@<TRIPOS>MOLECULE
10131_out_ligand_01.pdbqt
 39 43 0 0 0
SMALL
GASTEIGER

@<TRIPOS>ATOM
      1  C         23.5350  -23.6200   -9.5100 C.3     1  UNL1        0.0690
      2  C         22.3590  -22.9170  -10.1050 C.ar    1  UNL1        0.0200
      3  C         22.2790  -22.0180  -11.1560 C.ar    1  UNL1       -0.0010
      4  C         20.9070  -21.6940  -11.3670 C.ar    1  UNL1        0.0030
      5  C         20.2250  -20.8650  -12.2840 C.2     1  UNL1        0.0140
      6  C         18.8330  -20.7540  -12.2200 C.2     1  UNL1        0.0010
      7  C         18.1160  -21.4510  -11.2550 C.2     1  UNL1        0.0020
      8  C         18.7660  -22.2730  -10.3300 C.2     1  UNL1        0.0300
      9  C         20.1670  -22.3800  -10.4020 C.ar    1  UNL1        0.0460
     10  N         21.0690  -23.1090   -9.6450 N.ar    1  UNL1       -0.3400
     11  C         23.3640  -21.5120  -11.9350 C.2     1  UNL1        0.0170
     12  C         23.7570  -22.0010  -13.1230 C.2     1  UNL1        0.0330
     13  C         24.8800  -21.4960  -13.8890 C.ar    1  UNL1        0.0750
     14  N         25.5040  -20.3990  -13.3340 N.ar    1  UNL1       -0.3060
     15  C         26.5830  -19.7610  -13.8880 C.ar    1  UNL1        0.3270
     16  H         25.1840  -20.0180  -12.4480 H       1  UNL1        0.1710
     17  O         27.1060  -18.7910  -13.3550 O.2     1  UNL1       -0.2470
     18  N         27.0310  -20.2770  -15.0720 N.ar    1  UNL1       -0.2730
     19  C         26.4850  -21.3530  -15.7340 C.ar    1  UNL1        0.2840
     20  H         27.8210  -19.8170  -15.5040 H       1  UNL1        0.1730
     21  O         26.9360  -21.7370  -16.8050 O.2     1  UNL1       -0.2650
     22  C         25.3420  -21.9730  -15.0560 C.ar    1  UNL1        0.1970
     23  N         24.6980  -23.0720  -15.6950 N.pl3   1  UNL1       -0.1070
     24  O         23.7890  -22.8050  -16.4920 O.2     1  UNL1       -0.5310
     25  O         25.1200  -24.2040  -15.4250 O.2     1  UNL1       -0.5310
     26  C         20.6900  -23.9770   -8.5330 C.3     1  UNL1        0.2320
     27  C         19.8590  -23.2880   -7.4620 C.2     1  UNL1        0.2400
     28  O         20.2690  -22.2380   -6.9680 O.2     1  UNL1       -0.2710
     29  N         18.6460  -23.8900   -7.1770 N.am    1  UNL1       -0.3260
     30  H         18.4480  -24.7730   -7.6390 H       1  UNL1        0.1690
     31  C         17.6570  -23.4630   -6.2660 C.2     1  UNL1        0.0370
     32  C         17.7740  -23.5760   -4.8680 C.2     1  UNL1        0.0320
     33  C         16.7520  -23.1270   -4.0180 C.2     1  UNL1        0.0420
     34  C         15.6330  -22.5730   -4.5940 C.2     1  UNL1        0.1050
     35  C         15.5100  -22.4570   -5.9560 C.2     1  UNL1        0.1070
     36  O         14.5500  -22.0870   -3.9320 O.2     1  UNL1       -0.3230
     37  C         16.5000  -22.8890   -6.8160 C.2     1  UNL1        0.0690
     38  O         14.3330  -21.8830   -6.3250 O.2     1  UNL1       -0.3230
     39  C         13.7300  -21.6530   -5.0350 C.3     1  UNL1        0.3520
@<TRIPOS>BOND
     1    21    19    2
     2    24    23    2
     3    19    18   ar
     4    19    22   ar
     5    23    25    2
     6    23    22    1
     7    20    18    1
     8    18    15   ar
     9    22    13   ar
    10    13    14   ar
    11    13    12    1
    12    15    17    2
    13    15    14   ar
    14    14    16    1
    15    12    11    2
    16     5     6    1
    17     5     4    2
    18     6     7    2
    19    11     3    1
    20     4     3   ar
    21     4     9   ar
    22     7     8    1
    23     3     2   ar
    24     9     8    2
    25     9    10   ar
    26     2    10   ar
    27     2     1    1
    28    10    26    1
    29    26    27    1
    30    30    29    1
    31    27    29   am
    32    27    28    2
    33    29    31    1
    34    37    31    2
    35    37    35    1
    36    38    35    1
    37    38    39    1
    38    31    32    1
    39    35    34    2
    40    39    36    1
    41    32    33    2
    42    34    33    1
    43    34    36    1
