@<TRIPOS>MOLECULE
1016_out_ligand_01.pdbqt
 38 42 0 0 0
SMALL
GASTEIGER

@<TRIPOS>ATOM
      1  C         19.6310  -23.2670   -9.0040 C.3     1  UNL1        0.1200
      2  N         21.0690  -23.3430   -8.6980 N.pl3   1  UNL1       -0.3800
      3  C         22.0080  -23.0560   -9.7010 C.2     1  UNL1        0.0350
      4  C         23.3700  -23.1930   -9.4050 C.2     1  UNL1        0.0310
      5  C         24.3470  -22.8330  -10.3360 C.2     1  UNL1        0.0270
      6  C         23.9580  -22.3090  -11.5700 C.2     1  UNL1        0.0750
      7  C         22.6070  -22.1510  -11.8890 C.2     1  UNL1        0.0350
      8  C         21.6290  -22.4950  -10.9470 C.2     1  UNL1       -0.0220
      9  C         20.1600  -22.4250  -11.2530 C.3     1  UNL1        0.0500
     10  C         19.5710  -21.3850  -12.1550 C.3     1  UNL1       -0.0210
     11  C         18.3470  -21.0420  -11.7180 C.3     1  UNL1       -0.0290
     12  C         18.0060  -21.7410  -10.4270 C.3     1  UNL1        0.0350
     13  C         19.4120  -22.0990   -9.9570 C.3     1  UNL1        0.0280
     14  H         21.3290  -24.1170   -8.0930 H       1  UNL1        0.1600
     15  C         18.8570  -23.1100   -7.7080 C.2     1  UNL1       -0.0300
     16  C         19.2140  -22.1000   -6.7970 C.2     1  UNL1        0.0490
     17  C         18.5280  -21.9510   -5.5870 C.2     1  UNL1        0.1040
     18  C         17.4620  -22.8200   -5.3010 C.2     1  UNL1        0.1350
     19  C         17.0990  -23.8490   -6.1850 C.2     1  UNL1        0.1040
     20  C         17.7980  -23.9800   -7.3870 C.2     1  UNL1        0.0490
     21  O         18.8060  -20.9970   -4.6430 O.2     1  UNL1       -0.3530
     22  C         19.5260  -19.8470   -5.0620 C.3     1  UNL1        0.2100
     23  O         16.8090  -22.7060   -4.0920 O.2     1  UNL1       -0.3510
     24  C         17.3720  -23.6220   -3.1530 C.3     1  UNL1        0.2100
     25  O         16.0590  -24.6510   -5.7920 O.2     1  UNL1       -0.3530
     26  C         14.7530  -24.0920   -5.8280 C.3     1  UNL1        0.2100
     27  S         25.1870  -21.8540  -12.7670 S.O2    1  UNL1        0.2460
     28  O         25.9330  -20.7220  -12.2640 O.2     1  UNL1       -0.2060
     29  O         25.8530  -23.0750  -13.1700 O.2     1  UNL1       -0.2060
     30  N         24.2440  -21.3690  -14.0920 N.pl3   1  UNL1       -0.1780
     31  H         23.2730  -21.6310  -13.9110 H       1  UNL1        0.1460
     32  C         24.7350  -21.7230  -15.3880 C.2     1  UNL1        0.0610
     33  C         24.2550  -22.8580  -16.0400 C.2     1  UNL1        0.0270
     34  C         24.6990  -23.1550  -17.3310 C.2     1  UNL1        0.0020
     35  C         25.6140  -22.3140  -17.9730 C.2     1  UNL1        0.0030
     36  C         26.0890  -21.1750  -17.3240 C.2     1  UNL1        0.0440
     37  C         25.6440  -20.8850  -16.0380 C.2     1  UNL1        0.1380
     38  F         26.1080  -19.7910  -15.4140 F       1  UNL1       -0.2040
@<TRIPOS>BOND
     1    35    34    2
     2    35    36    1
     3    34    33    1
     4    36    37    2
     5    33    32    2
     6    37    38    1
     7    37    32    1
     8    32    30    1
     9    30    31    1
    10    30    27    1
    11    29    27    2
    12    27    28    2
    13    27     6    1
    14    10    11    1
    15    10     9    1
    16     7     6    2
    17     7     8    1
    18    11    12    1
    19     6     5    1
    20     9     8    1
    21     9    13    1
    22     8     3    2
    23    12    13    1
    24     5     4    2
    25    13     1    1
    26     3     4    1
    27     3     2    1
    28     1     2    1
    29     1    15    1
    30     2    14    1
    31    15    20    2
    32    15    16    1
    33    20    19    1
    34    16    17    2
    35    19    25    1
    36    19    18    2
    37    26    25    1
    38    17    18    1
    39    17    21    1
    40    18    23    1
    41    22    21    1
    42    23    24    1
