@<TRIPOS>MOLECULE
1025_out_ligand_01.pdbqt
 32 35 0 0 0
SMALL
GASTEIGER

@<TRIPOS>ATOM
      1  C         21.8500  -23.1250   -9.6880 C.2     1  UNL1        0.0790
      2  C         21.4720  -24.0510   -8.7140 C.2     1  UNL1        0.0270
      3  C         20.1160  -24.3090   -8.5040 C.2     1  UNL1        0.0310
      4  C         19.1340  -23.6430   -9.2480 C.2     1  UNL1        0.0420
      5  C         19.5310  -22.7500  -10.2490 C.2     1  UNL1        0.0310
      6  C         20.8870  -22.4850  -10.4660 C.2     1  UNL1        0.0270
      7  N         17.7800  -24.0140   -9.0050 N.pl3   1  UNL1       -0.2810
      8  H         17.5750  -24.9470   -8.6500 H       1  UNL1        0.1790
      9  S         16.5400  -22.9270   -8.6930 S.O2    1  UNL1        0.2640
     10  O         17.1050  -21.6170   -8.9330 O.2     1  UNL1       -0.2000
     11  O         15.3660  -23.3850   -9.4030 O.2     1  UNL1       -0.2000
     12  C         16.2570  -23.0380   -6.9340 C.2     1  UNL1        0.0900
     13  C         15.1420  -23.7740   -6.4970 C.2     1  UNL1        0.0260
     14  C         14.8430  -23.8510   -5.1440 C.2     1  UNL1        0.0020
     15  C         15.6540  -23.2010   -4.2210 C.2     1  UNL1        0.0120
     16  C         16.7850  -22.4750   -4.6300 C.2     1  UNL1       -0.0240
     17  C         17.5830  -21.8450   -3.6620 C.2     1  UNL1        0.0120
     18  C         17.1210  -22.3880   -6.0060 C.2     1  UNL1       -0.0030
     19  C         18.7230  -21.1310   -4.0220 C.2     1  UNL1        0.0010
     20  C         19.0840  -21.0500   -5.3570 C.2     1  UNL1        0.0010
     21  C         18.3000  -21.6700   -6.3320 C.2     1  UNL1        0.0140
     22  S         23.5670  -22.7740   -9.9670 S.O2    1  UNL1        0.2590
     23  O         23.7620  -21.3420   -9.9100 O.2     1  UNL1       -0.2010
     24  O         24.3380  -23.6830   -9.1480 O.2     1  UNL1       -0.2010
     25  N         23.7630  -23.2710  -11.5480 N.3     1  UNL1       -0.3110
     26  H         23.7480  -24.2780  -11.7020 H       1  UNL1        0.1720
     27  C         24.3110  -22.3690  -12.5590 C.3     1  UNL1        0.0930
     28  C         25.1500  -23.1740  -13.5550 C.3     1  UNL1        0.0260
     29  C         25.6440  -22.2970  -14.7040 C.3     1  UNL1        0.0020
     30  C         24.4900  -21.5790  -15.3990 C.3     1  UNL1        0.0000
     31  C         23.6430  -20.7850  -14.4090 C.3     1  UNL1        0.0020
     32  C         23.1500  -21.6630  -13.2620 C.3     1  UNL1        0.0260
@<TRIPOS>BOND
     1    30    29    1
     2    30    31    1
     3    29    28    1
     4    31    32    1
     5    28    27    1
     6    32    27    1
     7    27    25    1
     8    26    25    1
     9    25    22    1
    10     6     5    1
    11     6     1    2
    12     5     4    2
    13    22    23    2
    14    22     1    1
    15    22    24    2
    16     1     2    1
    17    11     9    2
    18     4     7    1
    19     4     3    1
    20     7     9    1
    21     7     8    1
    22    10     9    2
    23     2     3    2
    24     9    12    1
    25    12    13    2
    26    12    18    1
    27    13    14    1
    28    21    18    1
    29    21    20    2
    30    18    16    2
    31    20    19    1
    32    14    15    2
    33    16    15    1
    34    16    17    1
    35    19    17    2
