@<TRIPOS>MOLECULE
11009_out_ligand_01.pdbqt
 34 37 0 0 0
SMALL
GASTEIGER

@<TRIPOS>ATOM
      1  C         18.2550  -23.3480   -8.8320 C.2     1  UNL1        0.0800
      2  C         19.0080  -24.2570   -8.0840 C.2     1  UNL1        0.0280
      3  C         20.3510  -24.4790   -8.4050 C.2     1  UNL1        0.0380
      4  C         20.9350  -23.8070   -9.4800 C.2     1  UNL1        0.0690
      5  C         20.1620  -22.9250  -10.2440 C.2     1  UNL1        0.0380
      6  C         18.8220  -22.6930   -9.9270 C.2     1  UNL1        0.0280
      7  O         22.2240  -23.9510   -9.9150 O.2     1  UNL1       -0.3420
      8  C         23.2480  -23.2640   -9.2010 C.3     1  UNL1        0.2780
      9  C         23.7200  -21.9470   -9.8340 C.2     1  UNL1        0.2460
     10  O         23.2090  -20.8820   -9.5010 O.2     1  UNL1       -0.2710
     11  N         24.7180  -22.1390  -10.7730 N.am    1  UNL1       -0.3250
     12  H         25.0220  -23.0990  -10.8590 H       1  UNL1        0.1690
     13  C         25.3960  -21.1750  -11.5620 C.2     1  UNL1        0.0450
     14  C         26.2970  -20.2730  -10.9830 C.2     1  UNL1        0.0300
     15  C         26.9520  -19.3190  -11.7570 C.2     1  UNL1        0.0030
     16  C         26.7140  -19.2510  -13.1250 C.2     1  UNL1        0.0120
     17  C         25.8210  -20.1360  -13.7410 C.2     1  UNL1       -0.0240
     18  C         25.6110  -20.0430  -15.1270 C.2     1  UNL1        0.0120
     19  C         25.1440  -21.1190  -12.9710 C.2     1  UNL1        0.0010
     20  C         24.7400  -20.9090  -15.7830 C.2     1  UNL1        0.0010
     21  C         24.0690  -21.8830  -15.0590 C.2     1  UNL1        0.0010
     22  C         24.2670  -21.9870  -13.6780 C.2     1  UNL1        0.0140
     23  S         16.5430  -23.0750   -8.4310 S.O2    1  UNL1        0.2630
     24  O         15.9540  -22.3370   -9.5300 O.2     1  UNL1       -0.2000
     25  O         15.9810  -24.3340   -7.9940 O.2     1  UNL1       -0.2000
     26  N         16.6120  -21.9960   -7.1360 N.pl3   1  UNL1       -0.2800
     27  H         17.2150  -21.1990   -7.3260 H       1  UNL1        0.1790
     28  C         16.5150  -22.4730   -5.7970 C.2     1  UNL1        0.0480
     29  C         17.6480  -23.0020   -5.1710 C.2     1  UNL1        0.0300
     30  C         17.5830  -23.4470   -3.8510 C.2     1  UNL1        0.0020
     31  C         16.3820  -23.3710   -3.1530 C.2     1  UNL1        0.0010
     32  C         15.2450  -22.8560   -3.7760 C.2     1  UNL1        0.0090
     33  C         15.2940  -22.4030   -5.1050 C.2     1  UNL1       -0.0350
     34  C         14.0440  -21.8640   -5.7400 C.3     1  UNL1        0.0500
@<TRIPOS>BOND
     1    20    18    2
     2    20    21    1
     3    18    17    1
     4    21    22    2
     5    17    16    2
     6    17    19    1
     7    22    19    1
     8    16    15    1
     9    19    13    2
    10    15    14    2
    11    13    14    1
    12    13    11    1
    13    12    11    1
    14    11     9   am
    15     5     6    1
    16     5     4    2
    17     6     1    2
    18     7     4    1
    19     7     8    1
    20     9    10    2
    21     9     8    1
    22    24    23    2
    23     4     3    1
    24     1    23    1
    25     1     2    1
    26    23    25    2
    27    23    26    1
    28     3     2    2
    29    27    26    1
    30    26    28    1
    31    28    29    2
    32    28    33    1
    33    34    33    1
    34    29    30    1
    35    33    32    2
    36    30    31    2
    37    32    31    1
