@<TRIPOS>MOLECULE
11005_out_ligand_01.pdbqt
 33 35 0 0 0
SMALL
GASTEIGER

@<TRIPOS>ATOM
      1  C         21.4300  -22.7560  -10.0170 C.2     1  UNL1        0.0800
      2  C         20.7290  -21.7910  -10.7400 C.2     1  UNL1        0.0280
      3  C         19.3540  -21.9470  -10.9320 C.2     1  UNL1        0.0380
      4  C         18.6800  -23.0520  -10.4030 C.2     1  UNL1        0.0690
      5  C         19.3890  -24.0020   -9.6630 C.2     1  UNL1        0.0380
      6  C         20.7660  -23.8540   -9.4660 C.2     1  UNL1        0.0280
      7  O         17.3340  -23.0650  -10.6510 O.2     1  UNL1       -0.3420
      8  C         16.4780  -22.4040   -9.7270 C.3     1  UNL1        0.2780
      9  C         16.5090  -22.9420   -8.2890 C.2     1  UNL1        0.2460
     10  O         16.2710  -24.1250   -8.0680 O.2     1  UNL1       -0.2710
     11  N         16.7560  -21.9540   -7.3550 N.am    1  UNL1       -0.3240
     12  H         16.6320  -21.0160   -7.7190 H       1  UNL1        0.1690
     13  C         16.8410  -22.0790   -5.9480 C.2     1  UNL1        0.0460
     14  C         18.1310  -21.9490   -5.3710 C.2     1  UNL1       -0.0350
     15  C         19.3640  -21.6880   -6.1990 C.3     1  UNL1        0.0500
     16  C         18.2870  -22.0300   -3.9760 C.2     1  UNL1        0.0090
     17  C         17.1900  -22.2460   -3.1530 C.2     1  UNL1        0.0010
     18  C         15.9310  -22.4200   -3.7180 C.2     1  UNL1        0.0090
     19  C         15.7420  -22.3750   -5.1130 C.2     1  UNL1       -0.0350
     20  C         14.3590  -22.7100   -5.6020 C.3     1  UNL1        0.0500
     21  S         23.1760  -22.5640   -9.7510 S.O2    1  UNL1        0.2630
     22  O         23.4660  -21.1630   -9.5340 O.2     1  UNL1       -0.2000
     23  O         23.5760  -23.5640   -8.7820 O.2     1  UNL1       -0.2000
     24  N         23.8320  -23.0600  -11.2280 N.pl3   1  UNL1       -0.2810
     25  H         24.3790  -23.9120  -11.1090 H       1  UNL1        0.1790
     26  C         24.3680  -22.0600  -12.0860 C.2     1  UNL1        0.0430
     27  C         23.8830  -21.9160  -13.3800 C.2     1  UNL1        0.0300
     28  C         24.4430  -20.9560  -14.2240 C.2     1  UNL1        0.0090
     29  C         25.4930  -20.1350  -13.7830 C.2     1  UNL1       -0.0560
     30  C         26.0760  -19.1180  -14.7270 C.3     1  UNL1        0.0490
     31  C         25.9940  -20.2960  -12.4760 C.2     1  UNL1       -0.0540
     32  C         25.4180  -21.2630  -11.6350 C.2     1  UNL1        0.0370
     33  C         27.1210  -19.4480  -11.9550 C.3     1  UNL1        0.0490
@<TRIPOS>BOND
     1    30    29    1
     2    28    29    2
     3    28    27    1
     4    29    31    1
     5    27    26    2
     6    31    33    1
     7    31    32    2
     8    26    32    1
     9    26    24    1
    10    24    25    1
    11    24    21    1
    12     3     2    1
    13     3     4    2
    14     2     1    2
    15     7     4    1
    16     7     8    1
    17     4     5    1
    18     1    21    1
    19     1     6    1
    20    21    22    2
    21    21    23    2
    22     8     9    1
    23     5     6    2
    24     9    10    2
    25     9    11   am
    26    12    11    1
    27    11    13    1
    28    15    14    1
    29    13    14    2
    30    13    19    1
    31    20    19    1
    32    14    16    1
    33    19    18    2
    34    16    17    2
    35    18    17    1
