@<TRIPOS>MOLECULE
11028_out_ligand_01.pdbqt
 34 37 0 0 0
SMALL
GASTEIGER

@<TRIPOS>ATOM
      1  C         22.0140  -22.3540  -10.5570 C.2     1  UNL1        0.0800
      2  C         21.1460  -23.2420   -9.9240 C.2     1  UNL1        0.0280
      3  C         19.7680  -23.0690  -10.0670 C.2     1  UNL1        0.0380
      4  C         19.2550  -22.0150  -10.8300 C.2     1  UNL1        0.0690
      5  C         20.1340  -21.1200  -11.4460 C.2     1  UNL1        0.0380
      6  C         21.5150  -21.2860  -11.3070 C.2     1  UNL1        0.0280
      7  O         17.8890  -21.9570  -10.8630 O.2     1  UNL1       -0.3420
      8  C         17.1570  -23.1130  -10.4700 C.3     1  UNL1        0.2780
      9  C         16.2950  -22.9450   -9.2100 C.2     1  UNL1        0.2460
     10  O         15.1300  -22.5720   -9.3020 O.2     1  UNL1       -0.2710
     11  N         16.9810  -23.2750   -8.0540 N.am    1  UNL1       -0.3250
     12  H         17.9540  -23.5050   -8.2060 H       1  UNL1        0.1690
     13  C         16.5230  -23.2680   -6.7130 C.2     1  UNL1        0.0450
     14  C         15.3870  -23.9940   -6.3340 C.2     1  UNL1        0.0300
     15  C         14.9520  -24.0050   -5.0110 C.2     1  UNL1        0.0030
     16  C         15.6500  -23.2910   -4.0450 C.2     1  UNL1        0.0120
     17  C         16.7880  -22.5480   -4.3840 C.2     1  UNL1       -0.0240
     18  C         17.4650  -21.8330   -3.3820 C.2     1  UNL1        0.0120
     19  C         17.2470  -22.5190   -5.7290 C.2     1  UNL1        0.0010
     20  C         18.5930  -21.0740   -3.6760 C.2     1  UNL1        0.0010
     21  C         19.0610  -21.0190   -4.9810 C.2     1  UNL1        0.0010
     22  C         18.3990  -21.7270   -5.9890 C.2     1  UNL1        0.0140
     23  S         23.7670  -22.5590  -10.3630 S.O2    1  UNL1        0.2630
     24  O         23.9710  -23.4930   -9.2750 O.2     1  UNL1       -0.2000
     25  O         24.3950  -21.2560  -10.3480 O.2     1  UNL1       -0.2000
     26  N         24.2000  -23.3850  -11.7730 N.pl3   1  UNL1       -0.2810
     27  H         24.6490  -24.2710  -11.5450 H       1  UNL1        0.1790
     28  C         24.7580  -22.6310  -12.8400 C.2     1  UNL1        0.0420
     29  C         23.9270  -21.8970  -13.6850 C.2     1  UNL1        0.0300
     30  C         24.4780  -21.1830  -14.7510 C.2     1  UNL1        0.0090
     31  C         25.8580  -21.2110  -14.9880 C.2     1  UNL1       -0.0620
     32  C         26.4520  -20.4180  -16.1140 C.3     1  UNL1        0.0480
     33  C         26.6820  -21.9490  -14.1280 C.2     1  UNL1        0.0090
     34  C         26.1330  -22.6630  -13.0610 C.2     1  UNL1        0.0300
@<TRIPOS>BOND
     1    32    31    1
     2    31    30    2
     3    31    33    1
     4    30    29    1
     5    33    34    2
     6    29    28    2
     7    34    28    1
     8    28    26    1
     9    26    27    1
    10    26    23    1
    11     5     6    1
    12     5     4    2
    13     6     1    2
    14     7     4    1
    15     7     8    1
    16     4     3    1
    17     1    23    1
    18     1     2    1
    19     8     9    1
    20    23    25    2
    21    23    24    2
    22     3     2    2
    23    10     9    2
    24     9    11   am
    25    12    11    1
    26    11    13    1
    27    13    14    2
    28    13    19    1
    29    14    15    1
    30    22    19    1
    31    22    21    2
    32    19    17    2
    33    15    16    2
    34    21    20    1
    35    17    16    1
    36    17    18    1
    37    20    18    2
