@<TRIPOS>MOLECULE
11046_out_ligand_01.pdbqt
 33 35 0 0 0
SMALL
GASTEIGER

@<TRIPOS>ATOM
      1  C         21.5490  -22.3650  -10.2970 C.2     1  UNL1        0.0800
      2  C         20.6810  -23.3150   -9.7560 C.2     1  UNL1        0.0280
      3  C         19.3210  -23.2480  -10.0580 C.2     1  UNL1        0.0380
      4  C         18.8240  -22.2470  -10.9010 C.2     1  UNL1        0.0690
      5  C         19.7040  -21.3160  -11.4570 C.2     1  UNL1        0.0380
      6  C         21.0700  -21.3770  -11.1600 C.2     1  UNL1        0.0280
      7  O         17.4760  -22.3170  -11.1270 O.2     1  UNL1       -0.3420
      8  C         16.6060  -21.7340  -10.1630 C.3     1  UNL1        0.2780
      9  C         16.2630  -22.6300   -8.9650 C.2     1  UNL1        0.2460
     10  O         15.8640  -23.7770   -9.1440 O.2     1  UNL1       -0.2710
     11  N         16.4430  -21.9860   -7.7550 N.am    1  UNL1       -0.3250
     12  H         16.8330  -21.0530   -7.8360 H       1  UNL1        0.1690
     13  C         16.2300  -22.4790   -6.4470 C.2     1  UNL1        0.0410
     14  C         14.9910  -22.9890   -6.0470 C.2     1  UNL1        0.0300
     15  C         14.8000  -23.4680   -4.7520 C.2     1  UNL1        0.0030
     16  C         15.8450  -23.4430   -3.8390 C.2     1  UNL1        0.0070
     17  C         17.1020  -22.9380   -4.2020 C.2     1  UNL1       -0.0540
     18  C         18.1940  -22.9410   -3.1650 C.3     1  UNL1        0.0490
     19  C         17.3050  -22.4500   -5.5180 C.2     1  UNL1       -0.0290
     20  C         18.6540  -21.9110   -5.9360 C.3     1  UNL1        0.0510
     21  S         23.2900  -22.4460   -9.9310 S.O2    1  UNL1        0.2630
     22  O         23.4890  -23.5610   -9.0300 O.2     1  UNL1       -0.2000
     23  O         23.7370  -21.1140   -9.5840 O.2     1  UNL1       -0.2000
     24  N         23.9690  -22.9090  -11.4060 N.pl3   1  UNL1       -0.2810
     25  H         23.4950  -23.7140  -11.8100 H       1  UNL1        0.1790
     26  C         24.4510  -21.9070  -12.2940 C.2     1  UNL1        0.0430
     27  C         23.9440  -21.7940  -13.5830 C.2     1  UNL1        0.0300
     28  C         24.4640  -20.8330  -14.4520 C.2     1  UNL1        0.0090
     29  C         25.4990  -19.9790  -14.0420 C.2     1  UNL1       -0.0560
     30  C         26.0330  -18.9570  -15.0090 C.3     1  UNL1        0.0490
     31  C         26.0090  -20.0900  -12.7340 C.2     1  UNL1       -0.0540
     32  C         25.4750  -21.0600  -11.8680 C.2     1  UNL1        0.0370
     33  C         27.1210  -19.2010  -12.2480 C.3     1  UNL1        0.0490
@<TRIPOS>BOND
     1    30    29    1
     2    28    29    2
     3    28    27    1
     4    29    31    1
     5    27    26    2
     6    31    33    1
     7    31    32    2
     8    26    32    1
     9    26    24    1
    10    25    24    1
    11     5     6    1
    12     5     4    2
    13    24    21    1
    14     6     1    2
    15     7     4    1
    16     7     8    1
    17     4     3    1
    18     1    21    1
    19     1     2    1
    20     8     9    1
    21     3     2    2
    22    21    23    2
    23    21    22    2
    24    10     9    2
    25     9    11   am
    26    12    11    1
    27    11    13    1
    28    13    14    2
    29    13    19    1
    30    14    15    1
    31    20    19    1
    32    19    17    2
    33    15    16    2
    34    17    16    1
    35    17    18    1
