@<TRIPOS>MOLECULE
11109_out_ligand_01.pdbqt
 35 37 0 0 0
SMALL
GASTEIGER

@<TRIPOS>ATOM
      1  C         16.2330  -23.2860   -8.7750 C.2     1  UNL1        0.0690
      2  C         16.4070  -24.4670   -8.0480 C.2     1  UNL1        0.0380
      3  C         16.1540  -24.4890   -6.6720 C.2     1  UNL1        0.0280
      4  C         15.7310  -23.3250   -6.0270 C.2     1  UNL1        0.0800
      5  C         15.5340  -22.1450   -6.7460 C.2     1  UNL1        0.0280
      6  C         15.7880  -22.1330   -8.1190 C.2     1  UNL1        0.0380
      7  O         16.4230  -23.1330  -10.1200 O.2     1  UNL1       -0.3420
      8  C         16.6060  -21.8120  -10.6200 C.3     1  UNL1        0.2780
      9  C         18.0220  -21.4990  -11.1210 C.2     1  UNL1        0.2460
     10  N         18.9580  -22.4180  -10.6840 N.am    1  UNL1       -0.3250
     11  H         18.6010  -23.1250  -10.0460 H       1  UNL1        0.1690
     12  O         18.2240  -20.5300  -11.8480 O.2     1  UNL1       -0.2710
     13  C         20.3370  -22.4490  -10.9570 C.2     1  UNL1        0.0340
     14  C         21.1370  -23.2360  -10.1230 C.2     1  UNL1        0.0320
     15  C         22.5190  -23.3190  -10.3300 C.2     1  UNL1        0.0320
     16  C         23.1280  -22.6190  -11.3770 C.2     1  UNL1        0.0340
     17  C         22.3290  -21.8360  -12.2080 C.2     1  UNL1        0.0320
     18  C         20.9430  -21.7520  -12.0000 C.2     1  UNL1        0.0320
     19  N         24.5240  -22.7550  -11.5180 N.am    1  UNL1       -0.3280
     20  C         25.4990  -21.8380  -11.1690 C.2     1  UNL1        0.2180
     21  C         26.8890  -22.3410  -11.4740 C.3     1  UNL1        0.1170
     22  O         25.3290  -20.7230  -10.6910 O.2     1  UNL1       -0.2740
     23  H         24.8440  -23.6220  -11.9300 H       1  UNL1        0.1690
     24  S         15.3950  -23.3620   -4.2840 S.O2    1  UNL1        0.2630
     25  O         14.5600  -22.2310   -3.9430 O.2     1  UNL1       -0.2000
     26  O         14.9850  -24.7110   -3.9540 O.2     1  UNL1       -0.2000
     27  N         16.9300  -23.1620   -3.6070 N.pl3   1  UNL1       -0.2810
     28  H         16.8710  -23.0990   -2.5910 H       1  UNL1        0.1790
     29  C         17.8370  -22.2830   -4.2600 C.2     1  UNL1        0.0430
     30  C         18.0930  -21.0300   -3.7090 C.2     1  UNL1        0.0300
     31  C         19.0100  -20.1790   -4.3240 C.2     1  UNL1        0.0030
     32  C         19.6700  -20.5840   -5.4850 C.2     1  UNL1        0.0070
     33  C         19.4130  -21.8400   -6.0470 C.2     1  UNL1       -0.0600
     34  C         20.1580  -22.2960   -7.2670 C.3     1  UNL1        0.0480
     35  C         18.4990  -22.6950   -5.4170 C.2     1  UNL1        0.0370
@<TRIPOS>BOND
     1    17    18    1
     2    17    16    2
     3    18    13    2
     4    23    19    1
     5    12     9    2
     6    19    16    1
     7    19    20   am
     8    21    20    1
     9    16    15    1
    10    20    22    2
    11     9    10   am
    12     9     8    1
    13    13    10    1
    14    13    14    1
    15    10    11    1
    16     8     7    1
    17    15    14    2
    18     7     1    1
    19     1     6    2
    20     1     2    1
    21     6     5    1
    22     2     3    2
    23    34    33    1
    24     5     4    2
    25     3     4    1
    26    33    32    2
    27    33    35    1
    28     4    24    1
    29    32    31    1
    30    35    29    2
    31    31    30    2
    32    24    26    2
    33    24    25    2
    34    24    27    1
    35    29    30    1
    36    29    27    1
    37    27    28    1
