@<TRIPOS>MOLECULE
11108_out_ligand_01.pdbqt
 29 31 0 0 0
SMALL
GASTEIGER

@<TRIPOS>ATOM
      1  C         17.5470  -23.5080   -8.6390 C.2     1  UNL1        0.0810
      2  C         18.9400  -23.6880   -8.6330 C.2     1  UNL1        0.0420
      3  C         19.7250  -23.1180   -9.6380 C.2     1  UNL1        0.0330
      4  C         19.1270  -22.3600  -10.6470 C.2     1  UNL1        0.0170
      5  C         17.7420  -22.1780  -10.6530 C.2     1  UNL1        0.0090
      6  C         16.9300  -22.7400   -9.6490 C.2     1  UNL1       -0.0390
      7  C         15.4480  -22.5040   -9.7260 C.3     1  UNL1        0.0500
      8  S         16.6120  -24.3080   -7.3370 S.O2    1  UNL1        0.2460
      9  O         15.5320  -25.0520   -7.9480 O.2     1  UNL1       -0.2060
     10  O         17.5610  -24.9510   -6.4530 O.2     1  UNL1       -0.2060
     11  N         16.0160  -22.9410   -6.5110 N.pl3   1  UNL1       -0.1810
     12  H         15.8370  -22.2170   -7.2070 H       1  UNL1        0.1460
     13  C         16.8770  -22.4550   -5.4640 C.2     1  UNL1        0.0290
     14  C         16.6460  -22.7320   -4.1060 C.2     1  UNL1       -0.0400
     15  C         17.5060  -22.1610   -3.1530 C.2     1  UNL1        0.0090
     16  C         15.4830  -23.5500   -3.6120 C.3     1  UNL1        0.0500
     17  C         18.5800  -21.3520   -3.5390 C.2     1  UNL1        0.0070
     18  C         18.8150  -21.0870   -4.8920 C.2     1  UNL1       -0.0600
     19  C         19.9440  -20.1860   -5.3080 C.3     1  UNL1        0.0480
     20  C         17.9430  -21.6250   -5.8470 C.2     1  UNL1        0.0310
     21  C         21.1990  -23.3030   -9.5840 C.2     1  UNL1        0.2520
     22  O         21.6890  -24.0350   -8.7340 O.2     1  UNL1       -0.2680
     23  N         21.9230  -22.6330  -10.5500 N.am    1  UNL1       -0.3520
     24  H         21.4170  -22.3220  -11.3700 H       1  UNL1        0.1630
     25  C         23.3510  -22.8390  -10.6890 C.3     1  UNL1        0.0840
     26  C         23.7750  -22.9440  -12.1510 C.3     1  UNL1        0.0250
     27  C         25.2720  -22.6950  -12.0950 C.3     1  UNL1        0.0020
     28  C         25.4230  -21.5840  -11.0600 C.3     1  UNL1        0.0020
     29  C         24.1930  -21.6740  -10.1540 C.3     1  UNL1        0.0250
@<TRIPOS>BOND
     1    26    27    1
     2    26    25    1
     3    27    28    1
     4    24    23    1
     5    28    29    1
     6    25    23    1
     7    25    29    1
     8     5     4    2
     9     5     6    1
    10     4     3    1
    11    23    21   am
    12     7     6    1
    13     6     1    2
    14     3    21    1
    15     3     2    2
    16    21    22    2
    17     1     2    1
    18     1     8    1
    19     9     8    2
    20     8    11    1
    21     8    10    2
    22    12    11    1
    23    11    13    1
    24    20    13    2
    25    20    18    1
    26    13    14    1
    27    19    18    1
    28    18    17    2
    29    14    16    1
    30    14    15    2
    31    17    15    1
