@<TRIPOS>MOLECULE
11128_out_ligand_01.pdbqt
 31 33 0 0 0
SMALL
GASTEIGER

@<TRIPOS>ATOM
      1  C         18.2380  -24.8240   -7.2360 C.3     1  UNL1        0.0500
      2  C         18.9390  -24.0150   -8.2900 C.2     1  UNL1       -0.0390
      3  C         20.3310  -24.1730   -8.4270 C.2     1  UNL1        0.0090
      4  C         21.0520  -23.4520   -9.3830 C.2     1  UNL1        0.0170
      5  C         20.3930  -22.5420  -10.2120 C.2     1  UNL1        0.0330
      6  C         19.0120  -22.3690  -10.0950 C.2     1  UNL1        0.0420
      7  C         18.2850  -23.1000   -9.1400 C.2     1  UNL1        0.0860
      8  S         16.5240  -22.7800   -9.0450 S.O2    1  UNL1        0.2630
      9  O         15.8600  -24.0300   -8.7420 O.2     1  UNL1       -0.2000
     10  O         16.1340  -22.0180  -10.2130 O.2     1  UNL1       -0.2000
     11  N         16.3880  -21.7360   -7.7280 N.pl3   1  UNL1       -0.2800
     12  H         16.8880  -20.8610   -7.8570 H       1  UNL1        0.1790
     13  C         16.2360  -22.2670   -6.4130 C.2     1  UNL1        0.0490
     14  C         15.0490  -22.9380   -6.1040 C.2     1  UNL1        0.0310
     15  C         14.8820  -23.5420   -4.8620 C.2     1  UNL1        0.0030
     16  C         15.9060  -23.4840   -3.9230 C.2     1  UNL1        0.0070
     17  C         17.1050  -22.8110   -4.2080 C.2     1  UNL1       -0.0540
     18  C         18.1800  -22.7910   -3.1540 C.3     1  UNL1        0.0490
     19  C         17.2690  -22.1630   -5.4580 C.2     1  UNL1       -0.0290
     20  C         18.5620  -21.4500   -5.7600 C.3     1  UNL1        0.0510
     21  C         21.1260  -21.7690  -11.2520 C.2     1  UNL1        0.2560
     22  O         20.5900  -20.7710  -11.7140 O.2     1  UNL1       -0.2670
     23  N         22.3780  -22.2660  -11.5650 N.am    1  UNL1       -0.3230
     24  H         22.7240  -23.0250  -10.9940 H       1  UNL1        0.1690
     25  C         23.2760  -21.7690  -12.5320 C.2     1  UNL1        0.0350
     26  C         22.8980  -21.3740  -13.8180 C.2     1  UNL1        0.0310
     27  C         23.8530  -20.8960  -14.7240 C.2     1  UNL1        0.0260
     28  C         25.1890  -20.8120  -14.3470 C.2     1  UNL1        0.0340
     29 CL         26.3620  -20.2270  -15.4600 Cl      1  UNL1       -0.0840
     30  C         25.5820  -21.2050  -13.0700 C.2     1  UNL1        0.0260
     31  C         24.6270  -21.6820  -12.1670 C.2     1  UNL1        0.0310
@<TRIPOS>BOND
     1    29    28    1
     2    27    28    2
     3    27    26    1
     4    28    30    1
     5    26    25    2
     6    30    31    2
     7    25    31    1
     8    25    23    1
     9    22    21    2
    10    23    21   am
    11    23    24    1
    12    21     5    1
    13    10     8    2
    14     5     6    2
    15     5     4    1
    16     6     7    1
    17     4     3    2
    18     7     8    1
    19     7     2    2
    20     8     9    2
    21     8    11    1
    22     3     2    1
    23     2     1    1
    24    12    11    1
    25    11    13    1
    26    13    14    2
    27    13    19    1
    28    14    15    1
    29    20    19    1
    30    19    17    2
    31    15    16    2
    32    17    16    1
    33    17    18    1
