@<TRIPOS>MOLECULE
11120_out_ligand_01.pdbqt
 32 34 0 0 0
SMALL
GASTEIGER

@<TRIPOS>ATOM
      1  C         20.7990  -23.0630  -10.1810 C.2     1  UNL1        0.0330
      2  C         21.2480  -24.0210   -9.2690 C.2     1  UNL1        0.0170
      3  C         20.3630  -24.5580   -8.3290 C.2     1  UNL1        0.0090
      4  C         19.0140  -24.1590   -8.2850 C.2     1  UNL1       -0.0390
      5  C         18.1340  -24.7730   -7.2330 C.3     1  UNL1        0.0500
      6  C         18.5770  -23.1810   -9.2020 C.2     1  UNL1        0.0860
      7  C         19.4740  -22.6240  -10.1290 C.2     1  UNL1        0.0420
      8  S         16.8920  -22.5730   -9.2390 S.O2    1  UNL1        0.2630
      9  O         16.0030  -23.6900   -8.9990 O.2     1  UNL1       -0.2000
     10  O         16.7230  -21.7510  -10.4190 O.2     1  UNL1       -0.2000
     11  N         16.8380  -21.5210   -7.9200 N.pl3   1  UNL1       -0.2800
     12  H         17.5050  -20.7580   -7.9980 H       1  UNL1        0.1790
     13  C         16.4880  -22.0030   -6.6210 C.2     1  UNL1        0.0490
     14  C         15.1950  -22.4860   -6.3990 C.2     1  UNL1        0.0310
     15  C         14.8390  -23.0020   -5.1580 C.2     1  UNL1        0.0030
     16  C         15.7720  -23.0280   -4.1260 C.2     1  UNL1        0.0070
     17  C         17.0710  -22.5300   -4.3160 C.2     1  UNL1       -0.0540
     18  C         18.0280  -22.5820   -3.1540 C.3     1  UNL1        0.0490
     19  C         17.4400  -22.0010   -5.5760 C.2     1  UNL1       -0.0290
     20  C         18.8180  -21.4390   -5.8120 C.3     1  UNL1        0.0510
     21  C         21.7110  -22.4690  -11.1960 C.2     1  UNL1        0.2560
     22  N         23.0410  -22.8170  -11.0470 N.am    1  UNL1       -0.3230
     23  H         23.2560  -23.5170  -10.3490 H       1  UNL1        0.1690
     24  O         21.2210  -21.7700  -12.0750 O.2     1  UNL1       -0.2670
     25  C         24.1350  -22.3730  -11.8200 C.2     1  UNL1        0.0350
     26  C         24.8460  -21.2620  -11.3430 C.2     1  UNL1        0.0360
     27  C         25.9420  -20.7470  -12.0490 C.2     1  UNL1       -0.0590
     28  C         26.3350  -21.3630  -13.2410 C.2     1  UNL1        0.0130
     29  C         26.7230  -19.5900  -11.5000 C.3     1  UNL1        0.0480
     30  C         25.6250  -22.4610  -13.7430 C.2     1  UNL1       -0.0590
     31  C         26.0650  -23.1320  -15.0110 C.3     1  UNL1        0.0480
     32  C         24.5330  -22.9650  -13.0200 C.2     1  UNL1        0.0360
@<TRIPOS>BOND
     1    31    30    1
     2    30    28    2
     3    30    32    1
     4    28    27    1
     5    32    25    2
     6    24    21    2
     7    27    29    1
     8    27    26    2
     9    25    26    1
    10    25    22    1
    11    21    22   am
    12    21     1    1
    13    22    23    1
    14    10     8    2
    15     1     7    2
    16     1     2    1
    17     7     6    1
    18     2     3    2
    19     8     6    1
    20     8     9    2
    21     8    11    1
    22     6     4    2
    23     3     4    1
    24     4     5    1
    25    12    11    1
    26    11    13    1
    27    13    14    2
    28    13    19    1
    29    14    15    1
    30    20    19    1
    31    19    17    2
    32    15    16    2
    33    17    16    1
    34    17    18    1
