@<TRIPOS>MOLECULE
11126_out_ligand_01.pdbqt
 32 34 0 0 0
SMALL
GASTEIGER

@<TRIPOS>ATOM
      1  C         20.7960  -22.4060  -10.7070 C.2     1  UNL1        0.0330
      2  C         20.4870  -21.4120  -11.6390 C.2     1  UNL1        0.0170
      3  C         19.1760  -20.9410  -11.7480 C.2     1  UNL1        0.0090
      4  C         18.1450  -21.4620  -10.9450 C.2     1  UNL1       -0.0390
      5  C         16.7630  -20.8970  -11.1210 C.3     1  UNL1        0.0500
      6  C         18.4670  -22.4710  -10.0150 C.2     1  UNL1        0.0860
      7  C         19.7880  -22.9390   -9.9000 C.2     1  UNL1        0.0420
      8  S         17.2540  -23.1920   -8.9110 S.O2    1  UNL1        0.2630
      9  O         17.9210  -24.1660   -8.0720 O.2     1  UNL1       -0.2000
     10  O         16.1070  -23.5830   -9.7030 O.2     1  UNL1       -0.2000
     11  N         16.8290  -21.9070   -7.9040 N.pl3   1  UNL1       -0.2800
     12  H         16.2760  -21.1950   -8.3720 H       1  UNL1        0.1790
     13  C         16.6460  -22.1300   -6.5070 C.2     1  UNL1        0.0490
     14  C         15.3810  -22.5210   -6.0600 C.2     1  UNL1        0.0310
     15  C         15.1280  -22.6730   -4.7020 C.2     1  UNL1        0.0030
     16  C         16.1390  -22.4270   -3.7800 C.2     1  UNL1        0.0070
     17  C         17.4200  -22.0380   -4.2040 C.2     1  UNL1       -0.0540
     18  C         18.4690  -21.7750   -3.1550 C.3     1  UNL1        0.0490
     19  C         17.6950  -21.9180   -5.5890 C.2     1  UNL1       -0.0290
     20  C         19.0710  -21.4960   -6.0410 C.3     1  UNL1        0.0510
     21  C         22.1790  -22.9420  -10.5760 C.2     1  UNL1        0.2560
     22  N         23.0900  -22.4120  -11.4710 N.am    1  UNL1       -0.3230
     23  H         22.7740  -21.6460  -12.0500 H       1  UNL1        0.1690
     24  O         22.3960  -23.7670   -9.6980 O.2     1  UNL1       -0.2670
     25  C         24.4510  -22.7570  -11.6130 C.2     1  UNL1        0.0370
     26  C         25.4620  -22.3020  -10.7680 C.2     1  UNL1        0.0290
     27  C         26.7850  -22.6980  -10.9750 C.2     1  UNL1        0.0050
     28  C         27.1120  -23.5540  -12.0280 C.2     1  UNL1        0.0370
     29  C         26.1120  -24.0200  -12.8790 C.2     1  UNL1        0.0700
     30  C         24.7890  -23.6180  -12.6650 C.2     1  UNL1        0.0660
     31  O         26.2880  -24.8620  -13.9430 O.2     1  UNL1       -0.3560
     32  C         26.1780  -24.2900  -15.2410 C.3     1  UNL1        0.2100
@<TRIPOS>BOND
     1    32    31    1
     2    31    29    1
     3    29    30    1
     4    29    28    2
     5    30    25    2
     6    23    22    1
     7    28    27    1
     8     3     2    1
     9     3     4    2
    10     2     1    2
    11    25    22    1
    12    25    26    1
    13    22    21   am
    14     5     4    1
    15    27    26    2
    16     4     6    1
    17     1    21    1
    18     1     7    1
    19    21    24    2
    20     6     7    2
    21     6     8    1
    22    10     8    2
    23     8     9    2
    24     8    11    1
    25    12    11    1
    26    11    13    1
    27    13    14    2
    28    13    19    1
    29    14    15    1
    30    20    19    1
    31    19    17    2
    32    15    16    2
    33    17    16    1
    34    17    18    1
