@<TRIPOS>MOLECULE
11133_out_ligand_01.pdbqt
 30 32 0 0 0
SMALL
GASTEIGER

@<TRIPOS>ATOM
      1  C         17.5370  -23.3650   -8.8760 C.2     1  UNL1        0.0860
      2  C         18.9260  -23.5600   -8.9710 C.2     1  UNL1        0.0420
      3  C         19.6640  -22.9190   -9.9690 C.2     1  UNL1        0.0330
      4  C         19.0170  -22.0820  -10.8790 C.2     1  UNL1        0.0170
      5  C         17.6320  -21.9100  -10.8010 C.2     1  UNL1        0.0090
      6  C         16.8670  -22.5480   -9.8050 C.2     1  UNL1       -0.0390
      7  C         15.3850  -22.3030   -9.7930 C.3     1  UNL1        0.0500
      8  S         16.7320  -24.2080   -7.5150 S.O2    1  UNL1        0.2630
      9  O         17.7820  -24.8370   -6.7400 O.2     1  UNL1       -0.2000
     10  O         15.6090  -24.9800   -7.9990 O.2     1  UNL1       -0.2000
     11  N         16.1480  -22.9310   -6.5720 N.pl3   1  UNL1       -0.2810
     12  H         15.1500  -23.0190   -6.3850 H       1  UNL1        0.1790
     13  C         16.9690  -22.4040   -5.5360 C.2     1  UNL1        0.0430
     14  C         16.6770  -22.6510   -4.1970 C.2     1  UNL1        0.0300
     15  C         17.4660  -22.0820   -3.1970 C.2     1  UNL1        0.0030
     16  C         18.5480  -21.2690   -3.5380 C.2     1  UNL1        0.0070
     17  C         18.8600  -21.0290   -4.8810 C.2     1  UNL1       -0.0600
     18  C         19.9990  -20.1250   -5.2510 C.3     1  UNL1        0.0480
     19  C         18.0550  -21.5960   -5.8800 C.2     1  UNL1        0.0370
     20  C         21.1400  -23.1050   -9.9860 C.2     1  UNL1        0.2560
     21  O         21.6170  -23.9290   -9.2160 O.2     1  UNL1       -0.2670
     22  N         21.8120  -22.3300  -10.9120 N.am    1  UNL1       -0.3230
     23  H         21.2470  -21.7920  -11.5560 H       1  UNL1        0.1690
     24  C         23.2070  -22.2700  -11.1240 C.2     1  UNL1        0.0360
     25  C         24.0760  -21.4750  -10.3730 C.2     1  UNL1        0.0290
     26  C         25.4470  -21.4640  -10.6470 C.2     1  UNL1        0.0040
     27  C         25.9640  -22.2470  -11.6770 C.2     1  UNL1        0.0190
     28  C         25.1000  -23.0380  -12.4300 C.2     1  UNL1        0.0130
     29 BR         25.7900  -24.1020  -13.8340 Br      1  UNL1       -0.0510
     30  C         23.7310  -23.0530  -12.1610 C.2     1  UNL1        0.0480
@<TRIPOS>BOND
     1    29    28    1
     2    28    30    1
     3    28    27    2
     4    30    24    2
     5    27    26    1
     6    23    22    1
     7    24    22    1
     8    24    25    1
     9    22    20   am
    10     4     5    2
    11     4     3    1
    12     5     6    1
    13    26    25    2
    14    20     3    1
    15    20    21    2
    16     3     2    2
    17     6     7    1
    18     6     1    2
    19     2     1    1
    20     1     8    1
    21    10     8    2
    22     8     9    2
    23     8    11    1
    24    11    12    1
    25    11    13    1
    26    19    13    2
    27    19    17    1
    28    13    14    1
    29    18    17    1
    30    17    16    2
    31    14    15    2
    32    16    15    1
