@<TRIPOS>MOLECULE
11132_out_ligand_01.pdbqt
 31 33 0 0 0
SMALL
GASTEIGER

@<TRIPOS>ATOM
      1  C         20.8320  -22.3560  -10.8940 C.2     1  UNL1        0.0330
      2  C         20.5680  -21.3370  -11.8130 C.2     1  UNL1        0.0170
      3  C         19.2830  -20.7940  -11.9040 C.2     1  UNL1        0.0090
      4  C         18.2380  -21.2550  -11.0840 C.2     1  UNL1       -0.0390
      5  C         16.8770  -20.6390  -11.2540 C.3     1  UNL1        0.0500
      6  C         18.5100  -22.3000  -10.1790 C.2     1  UNL1        0.0810
      7  C         19.7990  -22.8510  -10.0910 C.2     1  UNL1        0.0420
      8  S         17.2410  -22.9880   -9.1210 S.O2    1  UNL1        0.2460
      9  O         16.5440  -24.0140   -9.8690 O.2     1  UNL1       -0.2060
     10  O         16.5370  -21.8900   -8.4980 O.2     1  UNL1       -0.2060
     11  N         18.2040  -23.8140   -7.9740 N.pl3   1  UNL1       -0.1810
     12  H         17.8410  -24.7680   -7.9190 H       1  UNL1        0.1460
     13  C         18.1960  -23.2040   -6.6740 C.2     1  UNL1        0.0230
     14  C         18.8240  -21.9730   -6.4920 C.2     1  UNL1        0.0310
     15  C         18.7790  -21.3390   -5.2440 C.2     1  UNL1       -0.0600
     16  C         19.4770  -20.0260   -5.0370 C.3     1  UNL1        0.0480
     17  C         18.1110  -21.9640   -4.1840 C.2     1  UNL1        0.0130
     18  C         17.4700  -23.1980   -4.3630 C.2     1  UNL1       -0.0600
     19  C         16.7010  -23.8240   -3.2380 C.3     1  UNL1        0.0480
     20  C         17.4990  -23.8040   -5.6240 C.2     1  UNL1        0.0310
     21  C         22.1880  -22.9640  -10.7660 C.2     1  UNL1        0.2560
     22  N         23.0970  -22.5660  -11.7300 N.am    1  UNL1       -0.3230
     23  H         22.8080  -21.8350  -12.3650 H       1  UNL1        0.1690
     24  O         22.3940  -23.7160   -9.8230 O.2     1  UNL1       -0.2670
     25  C         24.4320  -23.0010  -11.8810 C.2     1  UNL1        0.0350
     26  C         25.3130  -22.7370  -10.8250 C.2     1  UNL1        0.0290
     27  C         26.6480  -23.1370  -10.8950 C.2     1  UNL1        0.0030
     28  C         27.1210  -23.7980  -12.0260 C.2     1  UNL1        0.0070
     29  C         26.2610  -24.0540  -13.1000 C.2     1  UNL1       -0.0600
     30  C         26.7530  -24.7930  -14.3100 C.3     1  UNL1        0.0480
     31  C         24.9160  -23.6620  -13.0130 C.2     1  UNL1        0.0360
@<TRIPOS>BOND
     1    30    29    1
     2    29    31    1
     3    29    28    2
     4    31    25    2
     5    23    22    1
     6    28    27    1
     7     3     2    1
     8     3     4    2
     9    25    22    1
    10    25    26    1
    11     2     1    2
    12    22    21   am
    13     5     4    1
    14     4     6    1
    15    27    26    2
    16     1    21    1
    17     1     7    1
    18    21    24    2
    19     6     7    2
    20     6     8    1
    21     9     8    2
    22     8    10    2
    23     8    11    1
    24    11    12    1
    25    11    13    1
    26    13    14    2
    27    13    20    1
    28    14    15    1
    29    20    18    2
    30    15    16    1
    31    15    17    2
    32    18    17    1
    33    18    19    1
