@<TRIPOS>MOLECULE
1113_out_ligand_01.pdbqt
 33 36 0 0 0
SMALL
GASTEIGER

@<TRIPOS>ATOM
      1  C         23.7710  -21.8660  -11.2790 C.2     1  UNL1        0.0320
      2  C         23.9000  -21.6560   -9.9010 C.2     1  UNL1        0.0190
      3  C         22.8500  -21.9960   -9.0400 C.2     1  UNL1        0.0300
      4  C         21.6660  -22.5550   -9.5370 C.2     1  UNL1        0.0350
      5  C         21.5490  -22.7780  -10.9090 C.2     1  UNL1        0.0300
      6  C         22.5970  -22.4400  -11.7750 C.2     1  UNL1        0.0190
      7  N         20.6570  -22.8600   -8.6020 N.am    1  UNL1       -0.3230
      8  C         19.3270  -22.4860   -8.6470 C.2     1  UNL1        0.2570
      9  O         18.7530  -21.8600   -9.5270 O.2     1  UNL1       -0.2670
     10  H         20.9350  -23.4330   -7.8130 H       1  UNL1        0.1690
     11  C         18.5310  -22.9750   -7.4940 C.2     1  UNL1        0.0430
     12  C         17.7840  -24.1410   -7.7110 C.2     1  UNL1        0.0180
     13  C         17.0610  -24.7030   -6.6670 C.2     1  UNL1        0.0020
     14  C         17.0810  -24.1010   -5.4090 C.2     1  UNL1        0.0120
     15  C         17.8050  -22.9180   -5.1790 C.2     1  UNL1       -0.0250
     16  C         17.7960  -22.3210   -3.9080 C.2     1  UNL1        0.0120
     17  C         18.5400  -22.3220   -6.2330 C.2     1  UNL1       -0.0100
     18  C         18.4870  -21.1350   -3.6660 C.2     1  UNL1        0.0010
     19  C         19.1920  -20.5240   -4.6940 C.2     1  UNL1        0.0010
     20  C         19.2140  -21.1060   -5.9630 C.2     1  UNL1        0.0130
     21  C         24.8590  -21.5220  -12.2420 C.2     1  UNL1        0.2560
     22  O         26.0170  -21.7520  -11.9180 O.2     1  UNL1       -0.2670
     23  N         24.4300  -20.9990  -13.4490 N.am    1  UNL1       -0.3210
     24  H         23.4220  -20.9860  -13.6030 H       1  UNL1        0.1690
     25  C         25.2130  -20.5340  -14.5380 C.2     1  UNL1        0.0680
     26  C         25.8520  -19.2860  -14.5000 C.2     1  UNL1        0.0320
     27  C         26.6210  -18.8250  -15.5750 C.2     1  UNL1        0.0020
     28  C         26.7700  -19.5980  -16.7200 C.2     1  UNL1        0.0030
     29  C         26.1460  -20.8400  -16.7950 C.2     1  UNL1        0.0380
     30  C         25.3720  -21.3080  -15.7140 C.2     1  UNL1        0.1290
     31  N         24.7440  -22.6300  -15.8610 N.pl3   1  UNL1       -0.1130
     32  O         25.1490  -23.5560  -15.1370 O.2     1  UNL1       -0.5320
     33  O         23.8400  -22.7530  -16.6990 O.2     1  UNL1       -0.5320
@<TRIPOS>BOND
     1    29    28    2
     2    29    30    1
     3    28    27    1
     4    33    31    2
     5    31    30    1
     6    31    32    2
     7    30    25    2
     8    27    26    2
     9    25    26    1
    10    25    23    1
    11    24    23    1
    12    23    21   am
    13    21    22    2
    14    21     1    1
    15     6     1    2
    16     6     5    1
    17     1     2    1
    18     5     4    2
    19     2     3    2
    20     4     3    1
    21     4     7    1
    22     9     8    2
    23     8     7   am
    24     8    11    1
    25     7    10    1
    26    12    11    2
    27    12    13    1
    28    11    17    1
    29    13    14    2
    30    17    20    1
    31    17    15    2
    32    20    19    2
    33    14    15    1
    34    15    16    1
    35    19    18    1
    36    16    18    2
