@<TRIPOS>MOLECULE
11138_out_ligand_01.pdbqt
 33 35 0 0 0
SMALL
GASTEIGER

@<TRIPOS>ATOM
      1  C         21.6280  -22.6090  -10.1580 C.2     1  UNL1        0.0800
      2  C         20.8010  -23.5390   -9.5280 C.2     1  UNL1        0.0280
      3  C         19.4390  -23.5620   -9.8360 C.2     1  UNL1        0.0380
      4  C         18.9020  -22.6690  -10.7690 C.2     1  UNL1        0.0690
      5  C         19.7420  -21.7530  -11.4100 C.2     1  UNL1        0.0380
      6  C         21.1080  -21.7240  -11.1070 C.2     1  UNL1        0.0280
      7  O         17.5600  -22.8200  -10.9880 O.2     1  UNL1       -0.3420
      8  C         16.6600  -22.0830  -10.1660 C.3     1  UNL1        0.2780
      9  C         16.1780  -22.8130   -8.9040 C.2     1  UNL1        0.2460
     10  O         15.6290  -23.9070   -8.9930 O.2     1  UNL1       -0.2710
     11  N         16.4240  -22.0910   -7.7490 N.am    1  UNL1       -0.3250
     12  H         16.9380  -21.2310   -7.9000 H       1  UNL1        0.1690
     13  C         16.1240  -22.4320   -6.4100 C.2     1  UNL1        0.0410
     14  C         14.8660  -22.1790   -5.8520 C.2     1  UNL1        0.0300
     15  C         14.5900  -22.5200   -4.5290 C.2     1  UNL1        0.0030
     16  C         15.5700  -23.1170   -3.7450 C.2     1  UNL1        0.0070
     17  C         16.8420  -23.3840   -4.2700 C.2     1  UNL1       -0.0540
     18  C         17.8580  -24.0350   -3.3680 C.3     1  UNL1        0.0490
     19  C         17.1310  -23.0410   -5.6150 C.2     1  UNL1       -0.0290
     20  C         18.4920  -23.3300   -6.2040 C.3     1  UNL1        0.0510
     21  S         23.3630  -22.5760   -9.7880 S.O2    1  UNL1        0.2630
     22  O         23.7540  -21.2130   -9.5000 O.2     1  UNL1       -0.2000
     23  O         23.6200  -23.6370   -8.8370 O.2     1  UNL1       -0.2000
     24  N         24.0630  -23.0750  -11.2440 N.pl3   1  UNL1       -0.2810
     25  H         24.5720  -23.9490  -11.1170 H       1  UNL1        0.1790
     26  C         24.6700  -22.0830  -12.0620 C.2     1  UNL1        0.0430
     27  C         25.5830  -21.1850  -11.5100 C.2     1  UNL1        0.0370
     28  C         26.1620  -20.1920  -12.3100 C.2     1  UNL1       -0.0590
     29  C         25.7850  -20.0940  -13.6570 C.2     1  UNL1        0.0130
     30  C         27.1210  -19.2030  -11.7160 C.3     1  UNL1        0.0480
     31  C         24.8500  -20.9790  -14.2100 C.2     1  UNL1       -0.0590
     32  C         24.4800  -20.8880  -15.6610 C.3     1  UNL1        0.0480
     33  C         24.3050  -21.9850  -13.4040 C.2     1  UNL1        0.0370
@<TRIPOS>BOND
     1    32    31    1
     2    31    29    2
     3    31    33    1
     4    29    28    1
     5    33    26    2
     6    28    30    1
     7    28    27    2
     8    26    27    1
     9    26    24    1
    10     5     6    1
    11     5     4    2
    12    24    25    1
    13    24    21    1
    14     6     1    2
    15     7     4    1
    16     7     8    1
    17     4     3    1
    18     8     9    1
    19     1    21    1
    20     1     2    1
    21     3     2    2
    22    21    22    2
    23    21    23    2
    24    10     9    2
    25     9    11   am
    26    12    11    1
    27    11    13    1
    28    13    14    2
    29    13    19    1
    30    20    19    1
    31    14    15    1
    32    19    17    2
    33    15    16    2
    34    17    16    1
    35    17    18    1
