@<TRIPOS>MOLECULE
11145_out_ligand_01.pdbqt
 31 33 0 0 0
SMALL
GASTEIGER

@<TRIPOS>ATOM
      1  C         17.3430  -23.4470   -8.7130 C.2     1  UNL1        0.0810
      2  C         18.7350  -23.5360   -8.8700 C.2     1  UNL1        0.0420
      3  C         19.3690  -22.8400   -9.9040 C.2     1  UNL1        0.0330
      4  C         18.6150  -22.0670  -10.7900 C.2     1  UNL1        0.0170
      5  C         17.2290  -21.9770  -10.6300 C.2     1  UNL1        0.0090
      6  C         16.5700  -22.6660   -9.5960 C.2     1  UNL1       -0.0390
      7  C         15.0780  -22.5130   -9.4780 C.3     1  UNL1        0.0500
      8  S         16.6050  -24.3450   -7.3500 S.O2    1  UNL1        0.2460
      9  O         17.6730  -24.9740   -6.6080 O.2     1  UNL1       -0.2060
     10  O         15.5000  -25.1150   -7.8820 O.2     1  UNL1       -0.2060
     11  N         15.9320  -23.0520   -6.4640 N.pl3   1  UNL1       -0.1810
     12  H         15.0420  -23.3630   -6.0750 H       1  UNL1        0.1460
     13  C         16.7970  -22.5030   -5.4570 C.2     1  UNL1        0.0290
     14  C         16.6180  -22.7970   -4.0950 C.2     1  UNL1       -0.0400
     15  C         17.5200  -22.2550   -3.1670 C.2     1  UNL1        0.0090
     16  C         15.5030  -23.6730   -3.5980 C.3     1  UNL1        0.0500
     17  C         18.5770  -21.4410   -3.5830 C.2     1  UNL1        0.0070
     18  C         18.7490  -21.1410   -4.9370 C.2     1  UNL1       -0.0600
     19  C         19.9060  -20.3050   -5.3940 C.3     1  UNL1        0.0480
     20  C         17.8610  -21.6900   -5.8680 C.2     1  UNL1        0.0310
     21  C         20.8430  -22.9800  -10.0560 C.2     1  UNL1        0.2560
     22  O         21.3900  -23.9170   -9.4900 O.2     1  UNL1       -0.2670
     23  N         21.4420  -21.9930  -10.8170 N.am    1  UNL1       -0.3230
     24  H         20.8570  -21.2220  -11.1100 H       1  UNL1        0.1690
     25  C         22.8060  -21.8890  -11.1570 C.2     1  UNL1        0.0350
     26  C         23.1600  -22.1860  -12.4810 C.2     1  UNL1        0.0310
     27  C         24.4930  -22.1130  -12.8990 C.2     1  UNL1        0.0260
     28  C         25.4800  -21.7430  -11.9910 C.2     1  UNL1        0.0340
     29 CL         27.1210  -21.6540  -12.5010 Cl      1  UNL1       -0.0840
     30  C         25.1450  -21.4470  -10.6730 C.2     1  UNL1        0.0260
     31  C         23.8110  -21.5220  -10.2580 C.2     1  UNL1        0.0310
@<TRIPOS>BOND
     1    27    26    1
     2    27    28    2
     3    29    28    1
     4    26    25    2
     5    28    30    1
     6    25    23    1
     7    25    31    1
     8    24    23    1
     9    23    21   am
    10     4     5    2
    11     4     3    1
    12    30    31    2
    13     5     6    1
    14    21     3    1
    15    21    22    2
    16     3     2    2
    17     6     7    1
    18     6     1    2
    19     2     1    1
    20     1     8    1
    21    10     8    2
    22     8     9    2
    23     8    11    1
    24    11    12    1
    25    11    13    1
    26    20    13    2
    27    20    18    1
    28    13    14    1
    29    19    18    1
    30    18    17    2
    31    14    16    1
    32    14    15    2
    33    17    15    1
