@<TRIPOS>MOLECULE
11149_out_ligand_01.pdbqt
 31 33 0 0 0
SMALL
GASTEIGER

@<TRIPOS>ATOM
      1  C         19.9850  -21.7800  -11.4110 C.2     1  UNL1        0.0330
      2  C         18.8460  -21.2150  -11.9920 C.2     1  UNL1        0.0170
      3  C         17.5960  -21.3920  -11.3940 C.2     1  UNL1        0.0090
      4  C         17.4540  -22.1400  -10.2120 C.2     1  UNL1       -0.0390
      5  C         16.0780  -22.2750   -9.6220 C.3     1  UNL1        0.0500
      6  C         18.6130  -22.6880   -9.6260 C.2     1  UNL1        0.0860
      7  C         19.8720  -22.4930  -10.2160 C.2     1  UNL1        0.0420
      8  C         21.3320  -21.6160  -12.0230 C.2     1  UNL1        0.2560
      9  N         22.3540  -22.2410  -11.3330 N.am    1  UNL1       -0.3230
     10  H         22.1200  -22.6550  -10.4420 H       1  UNL1        0.1690
     11  O         21.4260  -20.9370  -13.0360 O.2     1  UNL1       -0.2670
     12  C         23.7210  -22.2890  -11.6840 C.2     1  UNL1        0.0350
     13  C         24.5290  -21.2270  -11.2550 C.2     1  UNL1        0.0360
     14  C         25.8950  -21.1850  -11.5650 C.2     1  UNL1       -0.0590
     15  C         26.4610  -22.2400  -12.2880 C.2     1  UNL1        0.0130
     16  C         26.7510  -20.0530  -11.0800 C.3     1  UNL1        0.0480
     17  C         25.6750  -23.3180  -12.7080 C.2     1  UNL1       -0.0590
     18  C         26.2760  -24.4300  -13.5180 C.3     1  UNL1        0.0480
     19  C         24.3020  -23.3270  -12.4140 C.2     1  UNL1        0.0360
     20  S         18.5590  -23.6500   -8.1130 S.O2    1  UNL1        0.2630
     21  O         19.8550  -24.2630   -7.9180 O.2     1  UNL1       -0.2000
     22  O         17.3590  -24.4570   -8.1300 O.2     1  UNL1       -0.2000
     23  N         18.4040  -22.4670   -6.9170 N.pl3   1  UNL1       -0.2810
     24  H         18.6390  -21.5370   -7.2560 H       1  UNL1        0.1790
     25  C         17.3780  -22.5890   -5.9390 C.2     1  UNL1        0.0430
     26  C         17.6100  -23.2290   -4.7240 C.2     1  UNL1        0.0300
     27  C         16.5730  -23.3680   -3.8010 C.2     1  UNL1        0.0030
     28  C         15.3040  -22.8660   -4.0930 C.2     1  UNL1        0.0070
     29  C         15.0590  -22.2250   -5.3130 C.2     1  UNL1       -0.0600
     30  C         13.7060  -21.6530   -5.6110 C.3     1  UNL1        0.0480
     31  C         16.1100  -22.0770   -6.2280 C.2     1  UNL1        0.0370
@<TRIPOS>BOND
     1    18    17    1
     2    11     8    2
     3    17    19    1
     4    17    15    2
     5    19    12    2
     6    15    14    1
     7     8     1    1
     8     8     9   am
     9     2     1    2
    10     2     3    1
    11    12     9    1
    12    12    13    1
    13    14    13    2
    14    14    16    1
    15     1     7    1
    16     3     4    2
    17     9    10    1
    18     7     6    2
    19     4     6    1
    20     4     5    1
    21     6    20    1
    22    22    20    2
    23    20    21    2
    24    20    23    1
    25    24    23    1
    26    23    25    1
    27    31    25    2
    28    31    29    1
    29    25    26    1
    30    30    29    1
    31    29    28    2
    32    26    27    2
    33    28    27    1
