@<TRIPOS>MOLECULE
11146_out_ligand_01.pdbqt
 29 31 0 0 0
SMALL
GASTEIGER

@<TRIPOS>ATOM
      1  C         17.7070  -23.2380   -8.9070 C.2     1  UNL1        0.0860
      2  C         19.0930  -23.4530   -8.9710 C.2     1  UNL1        0.0420
      3  C         19.8530  -22.8590   -9.9830 C.2     1  UNL1        0.0330
      4  C         19.2290  -22.0400  -10.9270 C.2     1  UNL1        0.0170
      5  C         17.8480  -21.8330  -10.8700 C.2     1  UNL1        0.0090
      6  C         17.0640  -22.4230   -9.8620 C.2     1  UNL1       -0.0390
      7  C         15.5830  -22.1650   -9.8800 C.3     1  UNL1        0.0500
      8  S         16.8160  -24.0720   -7.5950 S.O2    1  UNL1        0.2630
      9  O         15.6430  -24.7000   -8.1670 O.2     1  UNL1       -0.2000
     10  O         17.7660  -24.8640   -6.8430 O.2     1  UNL1       -0.2000
     11  N         16.2550  -22.8030   -6.6380 N.pl3   1  UNL1       -0.2800
     12  H         15.6850  -22.1400   -7.1560 H       1  UNL1        0.1790
     13  C         17.0270  -22.3310   -5.5340 C.2     1  UNL1        0.0480
     14  C         18.1500  -21.5300   -5.7650 C.2     1  UNL1        0.0300
     15  C         18.8930  -21.0270   -4.6960 C.2     1  UNL1        0.0020
     16  C         18.5260  -21.3340   -3.3910 C.2     1  UNL1        0.0010
     17  C         17.4210  -22.1520   -3.1530 C.2     1  UNL1        0.0090
     18  C         16.6640  -22.6680   -4.2180 C.2     1  UNL1       -0.0350
     19  C         15.4780  -23.5370   -3.9070 C.3     1  UNL1        0.0500
     20  C         21.3220  -23.0940  -10.0050 C.2     1  UNL1        0.2560
     21  O         21.7960  -23.8600   -9.1760 O.2     1  UNL1       -0.2670
     22  N         21.9970  -22.4230  -11.0090 N.am    1  UNL1       -0.3230
     23  H         21.4340  -21.9320  -11.6920 H       1  UNL1        0.1690
     24  C         23.3870  -22.4190  -11.2510 C.2     1  UNL1        0.0350
     25  C         24.0250  -23.2790  -12.1460 C.2     1  UNL1        0.0290
     26  C         25.4110  -23.2160  -12.3230 C.2     1  UNL1        0.0020
     27  C         26.1710  -22.2940  -11.6050 C.2     1  UNL1        0.0000
     28  C         25.5440  -21.4340  -10.7080 C.2     1  UNL1        0.0020
     29  C         24.1590  -21.4970  -10.5310 C.2     1  UNL1        0.0290
@<TRIPOS>BOND
     1    26    25    1
     2    26    27    2
     3    25    24    2
     4    23    22    1
     5    27    28    1
     6    24    22    1
     7    24    29    1
     8    22    20   am
     9     4     5    2
    10     4     3    1
    11     5     6    1
    12    28    29    2
    13    20     3    1
    14    20    21    2
    15     3     2    2
    16     7     6    1
    17     6     1    2
    18     2     1    1
    19     1     8    1
    20     9     8    2
    21     8    10    2
    22     8    11    1
    23    12    11    1
    24    11    13    1
    25    14    13    2
    26    14    15    1
    27    13    18    1
    28    15    16    2
    29    18    19    1
    30    18    17    2
    31    16    17    1
