@<TRIPOS>MOLECULE
11147_out_ligand_01.pdbqt
 33 36 0 0 0
SMALL
GASTEIGER

@<TRIPOS>ATOM
      1  C         17.7100  -22.1630  -10.3020 C.2     1  UNL1        0.0540
      2  C         17.3870  -20.9160  -10.8560 C.2     1  UNL1        0.0190
      3  C         18.3060  -20.2580  -11.6750 C.2     1  UNL1        0.0010
      4  C         19.5480  -20.8340  -11.9390 C.2     1  UNL1        0.0020
      5  C         19.8790  -22.0710  -11.3810 C.2     1  UNL1        0.0250
      6  C         18.9690  -22.7350  -10.5550 C.2     1  UNL1        0.0380
      7  N         19.3120  -24.0440  -10.0720 N.pl3   1  UNL1       -0.1800
      8  H         19.7050  -24.6560  -10.8040 H       1  UNL1        0.1460
      9  S         20.3730  -24.0910   -8.7440 S.O2    1  UNL1        0.2450
     10  O         20.7580  -25.4640   -8.4890 O.2     1  UNL1       -0.2060
     11  O         19.7870  -23.2710   -7.7050 O.2     1  UNL1       -0.2060
     12  C         21.7840  -23.2090   -9.3620 C.2     1  UNL1        0.0750
     13  C         22.2690  -22.1130   -8.6450 C.2     1  UNL1        0.0260
     14  C         23.3740  -21.4140   -9.1300 C.2     1  UNL1        0.0140
     15  C         24.0040  -21.8050  -10.3230 C.2     1  UNL1       -0.0260
     16  C         25.1160  -21.1080  -10.8220 C.2     1  UNL1        0.0120
     17  C         23.5140  -22.9250  -11.0370 C.2     1  UNL1       -0.0250
     18  C         25.7350  -21.5070  -12.0080 C.2     1  UNL1        0.0010
     19  C         25.2530  -22.6090  -12.7080 C.2     1  UNL1        0.0010
     20  C         24.1500  -23.3150  -12.2270 C.2     1  UNL1        0.0120
     21  C         22.4040  -23.6250  -10.5430 C.2     1  UNL1        0.0370
     22  C         16.7460  -22.8650   -9.4160 C.2     1  UNL1        0.2540
     23  N         17.0080  -22.8070   -8.0650 N.am    1  UNL1       -0.3490
     24  H         17.6490  -22.0910   -7.7450 H       1  UNL1        0.1630
     25  O         15.7660  -23.4170   -9.9060 O.2     1  UNL1       -0.2680
     26  C         16.0410  -23.2860   -7.0880 C.3     1  UNL1        0.1140
     27  C         15.8550  -24.8050   -7.1720 C.3     1  UNL1        0.0370
     28  C         16.4640  -22.8270   -5.7020 C.2     1  UNL1       -0.0360
     29  C         17.6900  -22.1630   -5.5370 C.2     1  UNL1        0.0090
     30  C         18.1160  -21.7560   -4.2710 C.2     1  UNL1        0.0010
     31  C         17.3270  -22.0150   -3.1530 C.2     1  UNL1        0.0000
     32  C         16.1160  -22.6870   -3.2980 C.2     1  UNL1        0.0010
     33  C         15.6880  -23.0950   -4.5630 C.2     1  UNL1        0.0090
@<TRIPOS>BOND
     1    19    20    2
     2    19    18    1
     3    20    17    1
     4    18    16    2
     5     4     3    2
     6     4     5    1
     7     3     2    1
     8     5     6    2
     9    17    21    1
    10    17    15    2
    11     2     1    2
    12    16    15    1
    13     8     7    1
    14     6     1    1
    15     6     7    1
    16    21    12    2
    17    15    14    1
    18     1    22    1
    19     7     9    1
    20    25    22    2
    21    22    23   am
    22    12     9    1
    23    12    13    1
    24    14    13    2
    25     9    10    2
    26     9    11    2
    27    23    24    1
    28    23    26    1
    29    27    26    1
    30    26    28    1
    31    28    29    2
    32    28    33    1
    33    29    30    1
    34    33    32    2
    35    30    31    2
    36    32    31    1
