@<TRIPOS>MOLECULE
11151_out_ligand_01.pdbqt
 32 34 0 0 0
SMALL
GASTEIGER

@<TRIPOS>ATOM
      1  C         20.9550  -22.3790  -10.9750 C.2     1  UNL1        0.0330
      2  C         20.5520  -21.3530  -11.8340 C.2     1  UNL1        0.0170
      3  C         19.2350  -20.8900  -11.7950 C.2     1  UNL1        0.0090
      4  C         18.3000  -21.4260  -10.8900 C.2     1  UNL1       -0.0390
      5  C         16.9010  -20.8740  -10.9150 C.3     1  UNL1        0.0500
      6  C         18.7170  -22.4660  -10.0350 C.2     1  UNL1        0.0860
      7  C         20.0330  -22.9540  -10.0990 C.2     1  UNL1        0.0420
      8  S         17.6310  -23.2300   -8.8320 S.O2    1  UNL1        0.2630
      9  O         18.4080  -24.1740   -8.0580 O.2     1  UNL1       -0.2000
     10  O         16.4230  -23.6610   -9.5050 O.2     1  UNL1       -0.2000
     11  N         17.1850  -21.9300   -7.8470 N.pl3   1  UNL1       -0.2800
     12  H         17.2280  -21.0390   -8.3330 H       1  UNL1        0.1790
     13  C         17.4520  -21.9700   -6.4430 C.2     1  UNL1        0.0490
     14  C         18.5950  -21.3320   -5.9530 C.2     1  UNL1        0.0310
     15  C         18.8490  -21.2940   -4.5870 C.2     1  UNL1        0.0030
     16  C         17.9660  -21.9040   -3.7030 C.2     1  UNL1        0.0070
     17  C         16.8240  -22.5750   -4.1700 C.2     1  UNL1       -0.0540
     18  C         15.9180  -23.2250   -3.1590 C.3     1  UNL1        0.0490
     19  C         16.5620  -22.6210   -5.5610 C.2     1  UNL1       -0.0290
     20  C         15.3540  -23.3430   -6.1030 C.3     1  UNL1        0.0510
     21  C         22.3520  -22.8840  -10.9790 C.2     1  UNL1        0.2560
     22  N         23.0940  -22.4750  -12.0720 N.am    1  UNL1       -0.3220
     23  H         22.6570  -21.7960  -12.6750 H       1  UNL1        0.1690
     24  O         22.7230  -23.5600  -10.0290 O.2     1  UNL1       -0.2670
     25  C         24.4350  -22.8080  -12.3820 C.2     1  UNL1        0.0410
     26  C         25.4750  -22.1260  -11.7140 C.2     1  UNL1       -0.0350
     27  C         26.8120  -22.4430  -12.0160 C.2     1  UNL1        0.0090
     28  C         25.2130  -21.0700  -10.6740 C.3     1  UNL1        0.0500
     29  C         27.1210  -23.4140  -12.9670 C.2     1  UNL1        0.0070
     30  C         26.1000  -24.0790  -13.6460 C.2     1  UNL1       -0.0600
     31  C         26.4170  -25.1440  -14.6520 C.3     1  UNL1        0.0480
     32  C         24.7640  -23.7770  -13.3380 C.2     1  UNL1        0.0370
@<TRIPOS>BOND
     1    31    30    1
     2    30    32    1
     3    30    29    2
     4    32    25    2
     5    29    27    1
     6    23    22    1
     7    25    22    1
     8    25    26    1
     9    22    21   am
    10    27    26    2
    11     2     3    1
    12     2     1    2
    13     3     4    2
    14    26    28    1
    15    21     1    1
    16    21    24    2
    17     1     7    1
    18     5     4    1
    19     4     6    1
    20     7     6    2
    21     6     8    1
    22    10     8    2
    23     8     9    2
    24     8    11    1
    25    12    11    1
    26    11    13    1
    27    13    14    2
    28    13    19    1
    29    20    19    1
    30    14    15    1
    31    19    17    2
    32    15    16    2
    33    17    16    1
    34    17    18    1
