@<TRIPOS>MOLECULE
11153_out_ligand_01.pdbqt
 30 32 0 0 0
SMALL
GASTEIGER

@<TRIPOS>ATOM
      1  C         17.5740  -23.3080   -8.9160 C.2     1  UNL1        0.1020
      2  C         18.9650  -23.4940   -8.9860 C.2     1  UNL1        0.0440
      3  C         19.7050  -22.8960  -10.0130 C.2     1  UNL1        0.0340
      4  C         19.0490  -22.1460  -10.9940 C.2     1  UNL1        0.0190
      5  C         17.6640  -21.9750  -10.9270 C.2     1  UNL1        0.0260
      6  C         16.9190  -22.5500   -9.8880 C.2     1  UNL1        0.0570
      7 CL         15.2210  -22.2400   -9.8990 Cl      1  UNL1       -0.0830
      8  S         16.6940  -24.0740   -7.5790 S.O2    1  UNL1        0.2650
      9  O         17.6340  -24.8740   -6.8220 O.2     1  UNL1       -0.2000
     10  O         15.4990  -24.6850   -8.1190 O.2     1  UNL1       -0.2000
     11  N         16.1990  -22.7720   -6.6310 N.pl3   1  UNL1       -0.2800
     12  H         15.6190  -22.1220   -7.1580 H       1  UNL1        0.1790
     13  C         16.9800  -22.2750   -5.5400 C.2     1  UNL1        0.0480
     14  C         18.1280  -21.5060   -5.7640 C.2     1  UNL1        0.0300
     15  C         18.8900  -21.0250   -4.6980 C.2     1  UNL1        0.0020
     16  C         18.5270  -21.3290   -3.3930 C.2     1  UNL1        0.0010
     17  C         17.4140  -22.1320   -3.1550 C.2     1  UNL1        0.0090
     18  C         16.6400  -22.6300   -4.2200 C.2     1  UNL1       -0.0350
     19  C         15.4660  -23.5120   -3.8940 C.3     1  UNL1        0.0500
     20  C         21.1800  -23.1080  -10.0460 C.2     1  UNL1        0.2560
     21  O         21.6480  -23.9850   -9.3340 O.2     1  UNL1       -0.2670
     22  N         21.8720  -22.2420  -10.8730 N.am    1  UNL1       -0.3230
     23  H         21.3480  -21.4870  -11.2940 H       1  UNL1        0.1690
     24  C         23.2620  -22.2330  -11.1260 C.2     1  UNL1        0.0360
     25  C         24.1840  -21.4850  -10.3910 C.2     1  UNL1        0.0290
     26  C         25.5470  -21.5330  -10.7000 C.2     1  UNL1        0.0040
     27  C         26.0030  -22.3330  -11.7450 C.2     1  UNL1        0.0190
     28  C         25.0880  -23.0830  -12.4770 C.2     1  UNL1        0.0130
     29 BR         25.6960  -24.1750  -13.8970 Br      1  UNL1       -0.0510
     30  C         23.7260  -23.0390  -12.1740 C.2     1  UNL1        0.0480
@<TRIPOS>BOND
     1    29    28    1
     2    28    30    1
     3    28    27    2
     4    30    24    2
     5    27    26    1
     6    23    22    1
     7    24    22    1
     8    24    25    1
     9     4     5    2
    10     4     3    1
    11     5     6    1
    12    22    20   am
    13    26    25    2
    14    20     3    1
    15    20    21    2
    16     3     2    2
    17     7     6    1
    18     6     1    2
    19     2     1    1
    20     1     8    1
    21    10     8    2
    22     8     9    2
    23     8    11    1
    24    12    11    1
    25    11    13    1
    26    14    13    2
    27    14    15    1
    28    13    18    1
    29    15    16    2
    30    18    19    1
    31    18    17    2
    32    16    17    1
