@<TRIPOS>MOLECULE
11163_out_ligand_01.pdbqt
 36 39 0 0 0
SMALL
GASTEIGER

@<TRIPOS>ATOM
      1  C         17.5260  -22.9710   -9.1500 C.2     1  UNL1        0.0860
      2  C         18.9020  -22.8380   -9.3940 C.2     1  UNL1        0.0420
      3  C         19.3550  -22.1130  -10.4980 C.2     1  UNL1        0.0330
      4  C         18.4350  -21.4750  -11.3340 C.2     1  UNL1        0.0170
      5  C         17.0650  -21.5880  -11.0790 C.2     1  UNL1        0.0090
      6  C         16.5860  -22.3450   -9.9940 C.2     1  UNL1       -0.0390
      7  C         15.0980  -22.4050   -9.7790 C.3     1  UNL1        0.0500
      8  C         20.8210  -22.0220  -10.7380 C.2     1  UNL1        0.2560
      9  O         21.5690  -22.0940   -9.7720 O.2     1  UNL1       -0.2670
     10  N         21.1820  -21.9050  -12.0680 N.am    1  UNL1       -0.3230
     11  H         20.4440  -21.9950  -12.7520 H       1  UNL1        0.1690
     12  C         22.4870  -21.7850  -12.5910 C.2     1  UNL1        0.0350
     13  C         23.6160  -22.3670  -12.0120 C.2     1  UNL1        0.0320
     14  C         24.8800  -22.2010  -12.5900 C.2     1  UNL1        0.0390
     15  C         25.0210  -21.4330  -13.7460 C.2     1  UNL1        0.0760
     16  C         23.9000  -20.8630  -14.3430 C.2     1  UNL1        0.0390
     17  C         22.6400  -21.0300  -13.7620 C.2     1  UNL1        0.0320
     18  O         26.2270  -21.2630  -14.3840 O.2     1  UNL1       -0.3110
     19  C         26.3840  -20.1220  -15.1390 C.2     1  UNL1        0.0760
     20  C         26.4100  -20.1390  -16.5360 C.2     1  UNL1        0.0370
     21  C         26.6140  -18.9510  -17.2400 C.2     1  UNL1        0.0030
     22  C         26.8070  -17.7540  -16.5490 C.2     1  UNL1        0.0000
     23  C         26.8040  -17.7430  -15.1530 C.2     1  UNL1        0.0030
     24  C         26.6030  -18.9290  -14.4470 C.2     1  UNL1        0.0370
     25  S         17.0440  -23.9400   -7.7220 S.O2    1  UNL1        0.2630
     26  O         18.2430  -24.4090   -7.0580 O.2     1  UNL1       -0.2000
     27  O         16.0260  -24.8810   -8.1350 O.2     1  UNL1       -0.2000
     28  N         16.3570  -22.7890   -6.6990 N.pl3   1  UNL1       -0.2800
     29  H         15.3430  -22.8460   -6.6670 H       1  UNL1        0.1790
     30  C         17.0620  -22.3140   -5.5540 C.2     1  UNL1        0.0480
     31  C         18.1560  -21.4560   -5.7130 C.2     1  UNL1        0.0300
     32  C         18.8750  -21.0080   -4.6050 C.2     1  UNL1        0.0020
     33  C         18.4980  -21.4070   -3.3270 C.2     1  UNL1        0.0010
     34  C         17.3960  -22.2460   -3.1570 C.2     1  UNL1        0.0090
     35  C         16.6600  -22.7010   -4.2630 C.2     1  UNL1       -0.0350
     36  C         15.4860  -23.6090   -4.0240 C.3     1  UNL1        0.0500
@<TRIPOS>BOND
     1    21    22    2
     2    21    20    1
     3    22    23    1
     4    20    19    2
     5    23    24    2
     6    19    24    1
     7    19    18    1
     8    18    15    1
     9    16    17    1
    10    16    15    2
    11    17    12    2
    12    15    14    1
    13    11    10    1
    14    12    10    1
    15    12    13    1
    16    14    13    2
    17    10     8   am
    18     4     5    2
    19     4     3    1
    20     5     6    1
    21     8     3    1
    22     8     9    2
    23     3     2    2
    24     6     7    1
    25     6     1    2
    26     2     1    1
    27     1    25    1
    28    27    25    2
    29    25    26    2
    30    25    28    1
    31    28    29    1
    32    28    30    1
    33    31    30    2
    34    31    32    1
    35    30    35    1
    36    32    33    2
    37    35    36    1
    38    35    34    2
    39    33    34    1
