@<TRIPOS>MOLECULE
11162_out_ligand_01.pdbqt
 31 33 0 0 0
SMALL
GASTEIGER

@<TRIPOS>ATOM
      1  C         17.6080  -23.0270   -9.0930 C.2     1  UNL1        0.0860
      2  C         19.0040  -22.9520   -9.2350 C.2     1  UNL1        0.0420
      3  C         19.5740  -22.2600  -10.3050 C.2     1  UNL1        0.0330
      4  C         18.7480  -21.6340  -11.2400 C.2     1  UNL1        0.0170
      5  C         17.3610  -21.6820  -11.0840 C.2     1  UNL1        0.0090
      6  C         16.7650  -22.3690  -10.0090 C.2     1  UNL1       -0.0390
      7  C         15.2660  -22.3530   -9.9120 C.3     1  UNL1        0.0500
      8  S         17.0240  -23.9720   -7.6870 S.O2    1  UNL1        0.2630
      9  O         15.8980  -24.7540   -8.1570 O.2     1  UNL1       -0.2000
     10  O         18.1340  -24.6150   -7.0230 O.2     1  UNL1       -0.2000
     11  N         16.3770  -22.7910   -6.6710 N.pl3   1  UNL1       -0.2800
     12  H         15.7600  -22.1480   -7.1630 H       1  UNL1        0.1790
     13  C         17.1080  -22.3080   -5.5460 C.2     1  UNL1        0.0480
     14  C         18.2140  -21.4730   -5.7350 C.2     1  UNL1        0.0300
     15  C         18.9320  -20.9860   -4.6440 C.2     1  UNL1        0.0020
     16  C         18.5570  -21.3420   -3.3530 C.2     1  UNL1        0.0010
     17  C         17.4730  -22.1950   -3.1550 C.2     1  UNL1        0.0090
     18  C         16.7400  -22.6960   -4.2450 C.2     1  UNL1       -0.0350
     19  C         15.6000  -23.6380   -3.9760 C.3     1  UNL1        0.0500
     20  C         21.0560  -22.2580  -10.4380 C.2     1  UNL1        0.2560
     21  O         21.7220  -22.2840   -9.4100 O.2     1  UNL1       -0.2670
     22  N         21.5260  -22.1930  -11.7360 N.am    1  UNL1       -0.3230
     23  H         20.8380  -22.0460  -12.4640 H       1  UNL1        0.1690
     24  C         22.8750  -22.2120  -12.1570 C.2     1  UNL1        0.0380
     25  C         23.8940  -22.8840  -11.4790 C.2     1  UNL1        0.0530
     26  C         25.2010  -22.8560  -11.9720 C.2     1  UNL1        0.0370
     27 CL         26.4500  -23.6900  -11.1280 Cl      1  UNL1       -0.0840
     28  C         25.5110  -22.1640  -13.1390 C.2     1  UNL1        0.0480
     29  C         24.4960  -21.4980  -13.8140 C.2     1  UNL1        0.0370
     30 CL         24.8560  -20.6380  -15.2620 Cl      1  UNL1       -0.0840
     31  C         23.1850  -21.5190  -13.3330 C.2     1  UNL1        0.0530
@<TRIPOS>BOND
     1    30    29    1
     2    29    31    1
     3    29    28    2
     4    31    24    2
     5    28    26    1
     6    23    22    1
     7    24    22    1
     8    24    25    1
     9    26    25    2
    10    26    27    1
    11    22    20   am
    12     4     5    2
    13     4     3    1
    14     5     6    1
    15    20     3    1
    16    20    21    2
    17     3     2    2
    18     6     7    1
    19     6     1    2
    20     2     1    1
    21     1     8    1
    22     9     8    2
    23     8    10    2
    24     8    11    1
    25    12    11    1
    26    11    13    1
    27    14    13    2
    28    14    15    1
    29    13    18    1
    30    15    16    2
    31    18    19    1
    32    18    17    2
    33    16    17    1
