@<TRIPOS>MOLECULE
11165_out_ligand_01.pdbqt
 31 33 0 0 0
SMALL
GASTEIGER

@<TRIPOS>ATOM
      1  C         17.2540  -23.0370   -8.9130 C.2     1  UNL1        0.0810
      2  C         18.6510  -23.1800   -8.9750 C.2     1  UNL1        0.0420
      3  C         19.3720  -22.6190  -10.0350 C.2     1  UNL1        0.0330
      4  C         18.6900  -21.9560  -11.0580 C.2     1  UNL1        0.0170
      5  C         17.3000  -21.8170  -10.9980 C.2     1  UNL1        0.0090
      6  C         16.5620  -22.3370   -9.9210 C.2     1  UNL1       -0.0390
      7  C         15.0680  -22.1610   -9.9390 C.3     1  UNL1        0.0500
      8  S         16.4080  -23.8060   -7.5360 S.O2    1  UNL1        0.2460
      9  O         15.8980  -25.0870   -7.9790 O.2     1  UNL1       -0.2060
     10  O         15.5460  -22.8190   -6.9260 O.2     1  UNL1       -0.2060
     11  N         17.7350  -24.1600   -6.5160 N.pl3   1  UNL1       -0.1810
     12  H         17.5240  -25.0660   -6.0900 H       1  UNL1        0.1460
     13  C         17.9460  -23.1840   -5.4860 C.2     1  UNL1        0.0230
     14  C         17.5740  -23.4910   -4.1800 C.2     1  UNL1        0.0240
     15  C         17.8150  -22.5740   -3.1570 C.2     1  UNL1        0.0020
     16  C         18.4310  -21.3560   -3.4420 C.2     1  UNL1        0.0070
     17  C         18.8150  -21.0410   -4.7520 C.2     1  UNL1       -0.0600
     18  C         19.5300  -19.7530   -5.0390 C.3     1  UNL1        0.0480
     19  C         18.5820  -21.9730   -5.7730 C.2     1  UNL1        0.0310
     20  C         20.8550  -22.7850  -10.0550 C.2     1  UNL1        0.2560
     21  O         21.3550  -23.5790   -9.2660 O.2     1  UNL1       -0.2670
     22  N         21.5240  -21.9770  -10.9570 N.am    1  UNL1       -0.3230
     23  H         20.9780  -21.2850  -11.4520 H       1  UNL1        0.1690
     24  C         22.9090  -21.9490  -11.2190 C.2     1  UNL1        0.0350
     25  C         23.8700  -21.5400  -10.2990 C.2     1  UNL1        0.0300
     26  C         25.2260  -21.5490  -10.6410 C.2     1  UNL1        0.0090
     27  C         25.6520  -21.9680  -11.9090 C.2     1  UNL1       -0.0560
     28  C         27.1210  -21.9680  -12.2300 C.3     1  UNL1        0.0490
     29  C         24.6910  -22.3930  -12.8440 C.2     1  UNL1       -0.0540
     30  C         25.0880  -22.8660  -14.2160 C.3     1  UNL1        0.0490
     31  C         23.3300  -22.3750  -12.4880 C.2     1  UNL1        0.0370
@<TRIPOS>BOND
     1    30    29    1
     2    29    31    1
     3    29    27    2
     4    31    24    2
     5    28    27    1
     6    27    26    1
     7    23    22    1
     8    24    22    1
     9    24    25    1
    10     4     5    2
    11     4     3    1
    12     5     6    1
    13    22    20   am
    14    26    25    2
    15    20     3    1
    16    20    21    2
    17     3     2    2
    18     7     6    1
    19     6     1    2
    20     2     1    1
    21     1     8    1
    22     9     8    2
    23     8    10    2
    24     8    11    1
    25    11    12    1
    26    11    13    1
    27    19    13    2
    28    19    17    1
    29    13    14    1
    30    18    17    1
    31    17    16    2
    32    14    15    2
    33    16    15    1
