@<TRIPOS>MOLECULE
11178_out_ligand_01.pdbqt
 31 33 0 0 0
SMALL
GASTEIGER

@<TRIPOS>ATOM
      1  C         19.4090  -23.5150   -7.7650 C.2     1  UNL1        0.0800
      2  C         20.0850  -22.3220   -7.5020 C.2     1  UNL1        0.0280
      3  C         21.4120  -22.1860   -7.9120 C.2     1  UNL1        0.0380
      4  C         22.0640  -23.2250   -8.5840 C.2     1  UNL1        0.0690
      5  C         21.3720  -24.4070   -8.8600 C.2     1  UNL1        0.0380
      6  C         20.0420  -24.5520   -8.4530 C.2     1  UNL1        0.0280
      7  O         23.3540  -22.9430   -8.9450 O.2     1  UNL1       -0.3420
      8  C         23.6120  -21.7020   -9.5910 C.3     1  UNL1        0.2780
      9  C         24.5210  -21.7840  -10.8260 C.2     1  UNL1        0.2460
     10  O         25.5760  -21.1600  -10.8620 O.2     1  UNL1       -0.2710
     11  N         23.9930  -22.5910  -11.8180 N.am    1  UNL1       -0.3250
     12  H         23.1290  -23.0570  -11.5630 H       1  UNL1        0.1690
     13  C         24.5340  -22.8990  -13.0840 C.2     1  UNL1        0.0400
     14  C         25.4440  -23.9450  -13.2760 C.2     1  UNL1        0.0300
     15  C         25.9640  -24.2240  -14.5420 C.2     1  UNL1        0.0020
     16  C         25.5810  -23.4580  -15.6360 C.2     1  UNL1        0.0010
     17  C         24.6770  -22.4140  -15.4650 C.2     1  UNL1        0.0090
     18  C         24.1440  -22.1200  -14.1970 C.2     1  UNL1       -0.0350
     19  C         23.1650  -20.9820  -14.0800 C.3     1  UNL1        0.0500
     20  S         17.7140  -23.6970   -7.2680 S.O2    1  UNL1        0.2630
     21  O         17.5590  -24.9630   -6.5860 O.2     1  UNL1       -0.2000
     22  O         17.3170  -22.4580   -6.6320 O.2     1  UNL1       -0.2000
     23  N         16.8980  -23.7430   -8.7480 N.pl3   1  UNL1       -0.2810
     24  H         16.7850  -24.7050   -9.0670 H       1  UNL1        0.1790
     25  C         17.2420  -22.7720   -9.7270 C.2     1  UNL1        0.0430
     26  C         16.3430  -21.7490  -10.0230 C.2     1  UNL1        0.0300
     27  C         16.6910  -20.7710  -10.9540 C.2     1  UNL1        0.0030
     28  C         17.9360  -20.8160  -11.5830 C.2     1  UNL1        0.0070
     29  C         18.8420  -21.8450  -11.2950 C.2     1  UNL1       -0.0600
     30  C         20.1980  -21.8650  -11.9350 C.3     1  UNL1        0.0480
     31  C         18.4900  -22.8170  -10.3490 C.2     1  UNL1        0.0370
@<TRIPOS>BOND
     1    16    17    2
     2    16    15    1
     3    17    18    1
     4    15    14    2
     5    18    19    1
     6    18    13    2
     7    14    13    1
     8    13    11    1
     9    30    29    1
    10    11    12    1
    11    11     9   am
    12    28    29    2
    13    28    27    1
    14    29    31    1
    15    27    26    2
    16    10     9    2
    17     9     8    1
    18    31    25    2
    19    26    25    1
    20    25    23    1
    21     8     7    1
    22    24    23    1
    23     7     4    1
    24     5     4    2
    25     5     6    1
    26    23    20    1
    27     4     3    1
    28     6     1    2
    29     3     2    2
    30     1     2    1
    31     1    20    1
    32    20    22    2
    33    20    21    2
