@<TRIPOS>MOLECULE
11177_out_ligand_01.pdbqt
 31 33 0 0 0
SMALL
GASTEIGER

@<TRIPOS>ATOM
      1  C         16.7160  -20.9850  -10.9680 C.3     1  UNL1        0.0500
      2  C         18.1280  -21.4900  -10.8630 C.2     1  UNL1       -0.0390
      3  C         19.0890  -20.9420  -11.7320 C.2     1  UNL1        0.0090
      4  C         20.4230  -21.3610  -11.6980 C.2     1  UNL1        0.0170
      5  C         20.8230  -22.3330  -10.7800 C.2     1  UNL1        0.0330
      6  C         19.8830  -22.8980   -9.9130 C.2     1  UNL1        0.0420
      7  C         18.5420  -22.4810   -9.9510 C.2     1  UNL1        0.0860
      8  S         17.4460  -23.2610   -8.7710 S.O2    1  UNL1        0.2630
      9  O         18.1640  -24.2340   -7.9790 O.2     1  UNL1       -0.2000
     10  O         16.2590  -23.6560   -9.5020 O.2     1  UNL1       -0.2000
     11  N         16.9780  -21.9650   -7.7980 N.pl3   1  UNL1       -0.2800
     12  H         16.1070  -21.5410   -8.1120 H       1  UNL1        0.1790
     13  C         17.2280  -22.0320   -6.3990 C.2     1  UNL1        0.0490
     14  C         18.3840  -21.4040   -5.9280 C.2     1  UNL1        0.0310
     15  C         18.7100  -21.4570   -4.5780 C.2     1  UNL1        0.0030
     16  C         17.8830  -22.1470   -3.6940 C.2     1  UNL1        0.0070
     17  C         16.7200  -22.7890   -4.1500 C.2     1  UNL1       -0.0540
     18  C         15.8640  -23.5270   -3.1540 C.3     1  UNL1        0.0490
     19  C         16.3680  -22.7160   -5.5200 C.2     1  UNL1       -0.0290
     20  C         15.1260  -23.4130   -6.0140 C.3     1  UNL1        0.0510
     21  C         22.2280  -22.8220  -10.7250 C.2     1  UNL1        0.2560
     22  O         22.5120  -23.6570   -9.8760 O.2     1  UNL1       -0.2670
     23  N         23.0790  -22.2380  -11.6450 N.am    1  UNL1       -0.3230
     24  H         22.7080  -21.4690  -12.1890 H       1  UNL1        0.1690
     25  C         24.4440  -22.5320  -11.8520 C.2     1  UNL1        0.0360
     26  C         25.4740  -22.0700  -11.0310 C.2     1  UNL1        0.0290
     27  C         26.8050  -22.4100  -11.2960 C.2     1  UNL1        0.0040
     28  C         27.1180  -23.2200  -12.3860 C.2     1  UNL1        0.0190
     29  C         26.0940  -23.6850  -13.2050 C.2     1  UNL1        0.0130
     30 BR         26.5080  -24.7870  -14.6860 Br      1  UNL1       -0.0510
     31  C         24.7640  -23.3480  -12.9450 C.2     1  UNL1        0.0480
@<TRIPOS>BOND
     1    30    29    1
     2    29    31    1
     3    29    28    2
     4    31    25    2
     5    28    27    1
     6    24    23    1
     7    25    23    1
     8    25    26    1
     9     3     4    1
    10     3     2    2
    11     4     5    2
    12    23    21   am
    13    27    26    2
    14     1     2    1
    15     2     7    1
    16     5    21    1
    17     5     6    1
    18    21    22    2
    19     7     6    2
    20     7     8    1
    21    10     8    2
    22     8     9    2
    23     8    11    1
    24    12    11    1
    25    11    13    1
    26    13    14    2
    27    13    19    1
    28    20    19    1
    29    14    15    1
    30    19    17    2
    31    15    16    2
    32    17    16    1
    33    17    18    1
