@<TRIPOS>MOLECULE
11174_out_ligand_01.pdbqt
 30 32 0 0 0
SMALL
GASTEIGER

@<TRIPOS>ATOM
      1  C         19.8190  -22.7690  -10.0430 C.2     1  UNL1        0.0340
      2  C         19.1650  -22.0190  -11.0210 C.2     1  UNL1        0.0190
      3  C         17.7780  -21.8590  -10.9560 C.2     1  UNL1        0.0260
      4  C         17.0240  -22.4520   -9.9290 C.2     1  UNL1        0.0570
      5 CL         15.3260  -22.1720  -10.0060 Cl      1  UNL1       -0.0830
      6  C         17.6770  -23.2200   -8.9640 C.2     1  UNL1        0.1020
      7  C         19.0770  -23.3650   -9.0180 C.2     1  UNL1        0.0440
      8  S         16.8620  -24.0350   -7.6110 S.O2    1  UNL1        0.2650
      9  O         15.6720  -24.6550   -8.1610 O.2     1  UNL1       -0.2000
     10  O         17.7960  -24.8280   -6.8490 O.2     1  UNL1       -0.2000
     11  N         16.3030  -22.7530   -6.6670 N.pl3   1  UNL1       -0.2800
     12  H         15.7630  -22.0760   -7.2040 H       1  UNL1        0.1790
     13  C         17.0490  -22.2980   -5.5420 C.2     1  UNL1        0.0480
     14  C         18.1650  -21.4800   -5.7340 C.2     1  UNL1        0.0300
     15  C         18.8920  -21.0070   -4.6420 C.2     1  UNL1        0.0020
     16  C         18.5130  -21.3620   -3.3510 C.2     1  UNL1        0.0010
     17  C         17.4120  -22.1960   -3.1530 C.2     1  UNL1        0.0090
     18  C         16.6680  -22.6770   -4.2420 C.2     1  UNL1       -0.0350
     19  C         15.5040  -23.5930   -3.9800 C.3     1  UNL1        0.0500
     20  C         21.2860  -23.0100  -10.0880 C.2     1  UNL1        0.2560
     21  N         21.9860  -22.1740  -10.9370 N.am    1  UNL1       -0.3230
     22  H         21.4730  -21.4170  -11.3690 H       1  UNL1        0.1690
     23  O         21.7350  -23.8920   -9.3690 O.2     1  UNL1       -0.2670
     24  C         23.3710  -22.1980  -11.2090 C.2     1  UNL1        0.0350
     25  C         24.3140  -21.4340  -10.5210 C.2     1  UNL1        0.0290
     26  C         25.6680  -21.5160  -10.8540 C.2     1  UNL1        0.0030
     27  C         26.0930  -22.3670  -11.8730 C.2     1  UNL1        0.0070
     28  C         25.1670  -23.1550  -12.5620 C.2     1  UNL1       -0.0600
     29  C         25.6130  -24.0470  -13.6820 C.3     1  UNL1        0.0480
     30  C         23.8080  -23.0550  -12.2310 C.2     1  UNL1        0.0360
@<TRIPOS>BOND
     1    29    28    1
     2    28    30    1
     3    28    27    2
     4    30    24    2
     5    27    26    1
     6    22    21    1
     7    24    21    1
     8    24    25    1
     9     2     3    1
    10     2     1    2
    11     3     4    2
    12    21    20   am
    13    26    25    2
    14    20     1    1
    15    20    23    2
    16     1     7    1
    17     5     4    1
    18     4     6    1
    19     7     6    2
    20     6     8    1
    21     9     8    2
    22     8    10    2
    23     8    11    1
    24    12    11    1
    25    11    13    1
    26    14    13    2
    27    14    15    1
    28    13    18    1
    29    15    16    2
    30    18    19    1
    31    18    17    2
    32    16    17    1
