@<TRIPOS>MOLECULE
11172_out_ligand_01.pdbqt
 30 32 0 0 0
SMALL
GASTEIGER

@<TRIPOS>ATOM
      1  C         15.4650  -22.4810   -9.9670 C.3     1  UNL1        0.0500
      2  C         16.9690  -22.4910   -9.9280 C.2     1  UNL1       -0.0390
      3  C         17.6630  -21.8430  -10.9650 C.2     1  UNL1        0.0090
      4  C         19.0600  -21.8190  -10.9940 C.2     1  UNL1        0.0170
      5  C         19.7880  -22.4600   -9.9880 C.2     1  UNL1        0.0330
      6  C         19.1200  -23.1100   -8.9480 C.2     1  UNL1        0.0420
      7  C         17.7170  -23.1310   -8.9180 C.2     1  UNL1        0.0860
      8  C         21.2760  -22.4320   -9.9800 C.2     1  UNL1        0.2560
      9  O         21.8390  -22.3810   -8.8940 O.2     1  UNL1       -0.2670
     10  N         21.8540  -22.4950  -11.2340 N.am    1  UNL1       -0.3220
     11  H         21.2220  -22.6670  -12.0030 H       1  UNL1        0.1690
     12  C         23.2320  -22.4420  -11.5630 C.2     1  UNL1        0.0410
     13  C         24.2100  -22.9810  -10.7220 C.2     1  UNL1        0.0300
     14  C         25.5610  -22.9140  -11.0560 C.2     1  UNL1        0.0030
     15  C         25.9550  -22.3010  -12.2390 C.2     1  UNL1        0.0070
     16  C         25.0050  -21.7450  -13.1080 C.2     1  UNL1       -0.0540
     17  C         25.4990  -21.0960  -14.3740 C.3     1  UNL1        0.0490
     18  C         23.6280  -21.8100  -12.7740 C.2     1  UNL1       -0.0290
     19  C         22.5890  -21.2190  -13.6970 C.3     1  UNL1        0.0510
     20  S         16.9400  -24.0150   -7.5740 S.O2    1  UNL1        0.2630
     21  O         15.8040  -24.7330   -8.1130 O.2     1  UNL1       -0.2000
     22  O         17.9560  -24.7220   -6.8260 O.2     1  UNL1       -0.2000
     23  N         16.3050  -22.7690   -6.6190 N.pl3   1  UNL1       -0.2810
     24  H         15.3170  -22.9370   -6.4330 H       1  UNL1        0.1790
     25  C         17.0960  -22.3070   -5.5310 C.2     1  UNL1        0.0420
     26  C         18.1830  -21.4640   -5.7710 C.2     1  UNL1        0.0300
     27  C         18.9280  -20.9710   -4.6980 C.2     1  UNL1        0.0020
     28  C         18.5810  -21.3120   -3.3920 C.2     1  UNL1        0.0000
     29  C         17.4870  -22.1460   -3.1530 C.2     1  UNL1        0.0020
     30  C         16.7430  -22.6420   -4.2240 C.2     1  UNL1        0.0300
@<TRIPOS>BOND
     1    17    16    1
     2    19    18    1
     3    16    18    1
     4    16    15    2
     5    18    12    2
     6    15    14    1
     7    11    10    1
     8    12    10    1
     9    12    13    1
    10    10     8   am
    11    14    13    2
    12     4     3    1
    13     4     5    2
    14     3     2    2
    15     5     8    1
    16     5     6    1
    17     8     9    2
    18     1     2    1
    19     2     7    1
    20     6     7    2
    21     7    20    1
    22    21    20    2
    23    20    22    2
    24    20    23    1
    25    23    24    1
    26    23    25    1
    27    26    25    2
    28    26    27    1
    29    25    30    1
    30    27    28    2
    31    30    29    2
    32    28    29    1
