@<TRIPOS>MOLECULE
11176_out_ligand_01.pdbqt
 32 34 0 0 0
SMALL
GASTEIGER

@<TRIPOS>ATOM
      1  C         19.7790  -22.9380   -9.9270 C.2     1  UNL1        0.0330
      2  C         19.1510  -22.0990  -10.8480 C.2     1  UNL1        0.0170
      3  C         17.7650  -21.9210  -10.7980 C.2     1  UNL1        0.0090
      4  C         16.9790  -22.5560   -9.8180 C.2     1  UNL1       -0.0390
      5  C         15.4960  -22.3200   -9.8490 C.3     1  UNL1        0.0500
      6  C         17.6290  -23.3720   -8.8710 C.2     1  UNL1        0.0860
      7  C         19.0180  -23.5740   -8.9440 C.2     1  UNL1        0.0420
      8  S         16.7940  -24.2240   -7.5350 S.O2    1  UNL1        0.2630
      9  O         15.6790  -24.9870   -8.0500 O.2     1  UNL1       -0.2000
     10  O         17.8250  -24.8740   -6.7510 O.2     1  UNL1       -0.2000
     11  N         16.2080  -22.9630   -6.5780 N.pl3   1  UNL1       -0.2800
     12  H         15.2030  -23.0250   -6.4330 H       1  UNL1        0.1790
     13  C         17.0110  -22.3960   -5.5420 C.2     1  UNL1        0.0490
     14  C         18.0720  -21.5440   -5.8680 C.2     1  UNL1        0.0370
     15  C         18.8880  -20.9910   -4.8730 C.2     1  UNL1       -0.0600
     16  C         20.0050  -20.0630   -5.2440 C.3     1  UNL1        0.0480
     17  C         18.6050  -21.2710   -3.5350 C.2     1  UNL1        0.0070
     18  C         17.5310  -22.0970   -3.2000 C.2     1  UNL1        0.0090
     19  C         16.7190  -22.6650   -4.1940 C.2     1  UNL1       -0.0350
     20  C         15.5520  -23.5180   -3.7760 C.3     1  UNL1        0.0500
     21  C         21.2540  -23.1370   -9.9190 C.2     1  UNL1        0.2560
     22  N         21.9410  -22.4400  -10.8930 N.am    1  UNL1       -0.3230
     23  H         21.3900  -21.9500  -11.5860 H       1  UNL1        0.1690
     24  O         21.7210  -23.9020   -9.0840 O.2     1  UNL1       -0.2670
     25  C         23.3370  -22.3980  -11.0920 C.2     1  UNL1        0.0370
     26  C         24.1880  -21.4890  -10.4670 C.2     1  UNL1        0.0290
     27  C         25.5610  -21.5120  -10.7280 C.2     1  UNL1        0.0050
     28  C         26.0960  -22.4440  -11.6200 C.2     1  UNL1        0.0370
     29  C         25.2580  -23.3570  -12.2550 C.2     1  UNL1        0.0700
     30  C         23.8850  -23.3280  -11.9880 C.2     1  UNL1        0.0660
     31  O         25.6450  -24.3180  -13.1490 O.2     1  UNL1       -0.3560
     32  C         25.5480  -23.9880  -14.5280 C.3     1  UNL1        0.2100
@<TRIPOS>BOND
     1    32    31    1
     2    31    29    1
     3    29    30    1
     4    29    28    2
     5    30    25    2
     6    28    27    1
     7    23    22    1
     8    25    22    1
     9    25    26    1
    10    22    21   am
    11     2     3    1
    12     2     1    2
    13     3     4    2
    14    27    26    2
    15     1    21    1
    16     1     7    1
    17    21    24    2
    18     5     4    1
    19     4     6    1
    20     7     6    2
    21     6     8    1
    22     9     8    2
    23     8    10    2
    24     8    11    1
    25    11    12    1
    26    11    13    1
    27    14    13    2
    28    14    15    1
    29    13    19    1
    30    16    15    1
    31    15    17    2
    32    19    20    1
    33    19    18    2
    34    17    18    1
