@<TRIPOS>MOLECULE
11171_out_ligand_01.pdbqt
 30 32 0 0 0
SMALL
GASTEIGER

@<TRIPOS>ATOM
      1  C         19.5010  -22.6600  -10.1360 C.2     1  UNL1        0.0330
      2  C         18.7790  -21.8900  -11.0500 C.2     1  UNL1        0.0170
      3  C         17.3930  -21.7640  -10.9150 C.2     1  UNL1        0.0090
      4  C         16.6990  -22.4150   -9.8790 C.2     1  UNL1       -0.0390
      5  C         15.2120  -22.2140   -9.7920 C.3     1  UNL1        0.0500
      6  C         17.4380  -23.1990   -8.9700 C.2     1  UNL1        0.0860
      7  C         18.8320  -23.3160   -9.1000 C.2     1  UNL1        0.0420
      8  S         16.6770  -24.0490   -7.5880 S.O2    1  UNL1        0.2630
      9  O         17.7160  -24.7240   -6.8390 O.2     1  UNL1       -0.2000
     10  O         15.5450  -24.7980   -8.0900 O.2     1  UNL1       -0.2000
     11  N         16.1320  -22.7880   -6.6110 N.pl3   1  UNL1       -0.2800
     12  H         15.1190  -22.7640   -6.5260 H       1  UNL1        0.1790
     13  C         16.9250  -22.3180   -5.5220 C.2     1  UNL1        0.0480
     14  C         18.0380  -21.5080   -5.7700 C.2     1  UNL1        0.0300
     15  C         18.8450  -21.0710   -4.7200 C.2     1  UNL1        0.0020
     16  C         18.5370  -21.4310   -3.4130 C.2     1  UNL1        0.0010
     17  C         17.4150  -22.2180   -3.1530 C.2     1  UNL1        0.0090
     18  C         16.5900  -22.6640   -4.2000 C.2     1  UNL1       -0.0350
     19  C         15.4000  -23.5180   -3.8680 C.3     1  UNL1        0.0500
     20  C         20.9760  -22.8260  -10.2520 C.2     1  UNL1        0.2560
     21  N         21.6040  -21.8630  -11.0220 N.am    1  UNL1       -0.3230
     22  H         21.0380  -21.0860  -11.3380 H       1  UNL1        0.1690
     23  O         21.5010  -23.7560   -9.6540 O.2     1  UNL1       -0.2670
     24  C         22.9750  -21.7840  -11.3410 C.2     1  UNL1        0.0350
     25  C         23.9820  -21.5430  -10.4060 C.2     1  UNL1        0.0300
     26  C         25.3220  -21.4850  -10.8030 C.2     1  UNL1        0.0090
     27  C         25.6790  -21.6610  -12.1440 C.2     1  UNL1       -0.0620
     28  C         27.1190  -21.6300  -12.5610 C.3     1  UNL1        0.0480
     29  C         24.6730  -21.9200  -13.0800 C.2     1  UNL1        0.0090
     30  C         23.3340  -21.9770  -12.6810 C.2     1  UNL1        0.0300
@<TRIPOS>BOND
     1    29    30    1
     2    29    27    2
     3    30    24    2
     4    28    27    1
     5    27    26    1
     6    24    21    1
     7    24    25    1
     8    22    21    1
     9     2     3    1
    10     2     1    2
    11    21    20   am
    12     3     4    2
    13    26    25    2
    14    20     1    1
    15    20    23    2
    16     1     7    1
    17     4     5    1
    18     4     6    1
    19     7     6    2
    20     6     8    1
    21    10     8    2
    22     8     9    2
    23     8    11    1
    24    11    12    1
    25    11    13    1
    26    14    13    2
    27    14    15    1
    28    13    18    1
    29    15    16    2
    30    18    19    1
    31    18    17    2
    32    16    17    1
