@<TRIPOS>MOLECULE
11179_out_ligand_01.pdbqt
 34 37 0 0 0
SMALL
GASTEIGER

@<TRIPOS>ATOM
      1  C         18.2100  -23.2370   -8.7580 C.2     1  UNL1        0.0800
      2  C         18.7130  -22.3040   -9.6690 C.2     1  UNL1        0.0280
      3  C         20.0880  -22.2480   -9.9180 C.2     1  UNL1        0.0380
      4  C         20.9570  -23.1180   -9.2540 C.2     1  UNL1        0.0690
      5  C         20.4420  -24.0330   -8.3280 C.2     1  UNL1        0.0380
      6  C         19.0720  -24.0960   -8.0740 C.2     1  UNL1        0.0280
      7  O         22.3180  -23.1540   -9.3870 O.2     1  UNL1       -0.3420
      8  C         23.0110  -21.9140   -9.4780 C.3     1  UNL1        0.2780
      9  C         23.9750  -21.7940  -10.6650 C.2     1  UNL1        0.2460
     10  O         24.9310  -21.0270  -10.6140 O.2     1  UNL1       -0.2710
     11  N         23.6120  -22.6000  -11.7280 N.am    1  UNL1       -0.3250
     12  H         22.8130  -23.2040  -11.5590 H       1  UNL1        0.1690
     13  C         24.2500  -22.7320  -12.9760 C.2     1  UNL1        0.0370
     14  C         25.1460  -23.8010  -13.1210 C.2     1  UNL1        0.0320
     15  C         25.8300  -24.0020  -14.3230 C.2     1  UNL1        0.0420
     16  C         25.6200  -23.1350  -15.3900 C.2     1  UNL1        0.1020
     17  C         24.7060  -22.0860  -15.2640 C.2     1  UNL1        0.1040
     18  O         26.3380  -23.3770  -16.5330 O.2     1  UNL1       -0.3460
     19  C         24.0350  -21.8750  -14.0580 C.2     1  UNL1        0.0690
     20  O         24.4240  -21.2140  -16.2860 O.2     1  UNL1       -0.3460
     21  C         24.8890  -21.7130  -17.5450 C.3     1  UNL1        0.2020
     22  C         26.3030  -22.2520  -17.4180 C.3     1  UNL1        0.2020
     23  S         16.4650  -23.2900   -8.4360 S.O2    1  UNL1        0.2630
     24  O         16.1900  -24.5600   -7.7950 O.2     1  UNL1       -0.2000
     25  O         15.7590  -22.8940   -9.6350 O.2     1  UNL1       -0.2000
     26  N         16.2730  -22.1140   -7.2390 N.pl3   1  UNL1       -0.2800
     27  H         16.7560  -21.2540   -7.4940 H       1  UNL1        0.1790
     28  C         16.3350  -22.5210   -5.8750 C.2     1  UNL1        0.0480
     29  C         15.2600  -23.2410   -5.3450 C.2     1  UNL1        0.0300
     30  C         15.3000  -23.6940   -4.0270 C.2     1  UNL1        0.0020
     31  C         16.4180  -23.4330   -3.2380 C.2     1  UNL1        0.0010
     32  C         17.4950  -22.7190   -3.7660 C.2     1  UNL1        0.0090
     33  C         17.4680  -22.2510   -5.0900 C.2     1  UNL1       -0.0350
     34  C         18.6540  -21.5040   -5.6310 C.3     1  UNL1        0.0500
@<TRIPOS>BOND
     1    21    22    1
     2    21    20    1
     3    22    18    1
     4    18    16    1
     5    20    17    1
     6    16    17    2
     7    16    15    1
     8    17    19    1
     9    15    14    2
    10    19    13    2
    11    14    13    1
    12    13    11    1
    13    11    12    1
    14    11     9   am
    15     9    10    2
    16     9     8    1
    17     3     2    1
    18     3     4    2
    19     2     1    2
    20    25    23    2
    21     8     7    1
    22     7     4    1
    23     4     5    1
    24     1    23    1
    25     1     6    1
    26    23    24    2
    27    23    26    1
    28     5     6    2
    29    27    26    1
    30    26    28    1
    31    28    29    2
    32    28    33    1
    33    34    33    1
    34    29    30    1
    35    33    32    2
    36    30    31    2
    37    32    31    1
