@<TRIPOS>MOLECULE
11187_out_ligand_01.pdbqt
 30 32 0 0 0
SMALL
GASTEIGER

@<TRIPOS>ATOM
      1  C         18.5800  -22.3390  -10.1910 C.2     1  UNL1        0.0810
      2  C         19.8840  -22.8340  -10.0320 C.2     1  UNL1        0.0420
      3  C         20.9250  -22.3580  -10.8380 C.2     1  UNL1        0.0330
      4  C         20.6650  -21.3570  -11.7770 C.2     1  UNL1        0.0170
      5  C         19.3670  -20.8580  -11.9300 C.2     1  UNL1        0.0090
      6  C         18.3030  -21.3460  -11.1520 C.2     1  UNL1       -0.0390
      7  C         16.9380  -20.7470  -11.3550 C.3     1  UNL1        0.0500
      8  S         17.3070  -23.0000   -9.1210 S.O2    1  UNL1        0.2460
      9  O         16.5330  -23.9520   -9.8860 O.2     1  UNL1       -0.2060
     10  O         16.6820  -21.8900   -8.4310 O.2     1  UNL1       -0.2060
     11  N         18.2650  -23.8020   -7.9550 N.pl3   1  UNL1       -0.1810
     12  H         19.2140  -23.8430   -8.3310 H       1  UNL1        0.1460
     13  C         18.2620  -23.1630   -6.6700 C.2     1  UNL1        0.0230
     14  C         17.5770  -23.7550   -5.6100 C.2     1  UNL1        0.0310
     15  C         17.5290  -23.1250   -4.3620 C.2     1  UNL1       -0.0600
     16  C         18.1850  -21.8990   -4.1910 C.2     1  UNL1        0.0130
     17  C         16.8290  -23.7800   -3.2080 C.3     1  UNL1        0.0480
     18  C         18.8460  -21.2810   -5.2620 C.2     1  UNL1       -0.0600
     19  C         19.5400  -19.9650   -5.0580 C.3     1  UNL1        0.0480
     20  C         18.8820  -21.9230   -6.5040 C.2     1  UNL1        0.0310
     21  C         22.2880  -22.9190  -10.6340 C.2     1  UNL1        0.2520
     22  O         22.4850  -23.7290   -9.7360 O.2     1  UNL1       -0.2680
     23  N         23.2660  -22.5010  -11.5140 N.am    1  UNL1       -0.3520
     24  H         23.0420  -21.8320  -12.2360 H       1  UNL1        0.1630
     25  C         24.6590  -22.9080  -11.3600 C.3     1  UNL1        0.0840
     26  C         25.1710  -23.5330  -12.6680 C.3     1  UNL1        0.0250
     27  C         26.6810  -23.3920  -12.8080 C.3     1  UNL1        0.0020
     28  C         27.1100  -21.9250  -12.8430 C.3     1  UNL1        0.0000
     29  C         26.1850  -21.0000  -12.0500 C.3     1  UNL1        0.0020
     30  C         25.5250  -21.7260  -10.8830 C.3     1  UNL1        0.0250
@<TRIPOS>BOND
     1    28    27    1
     2    28    29    1
     3    27    26    1
     4    26    25    1
     5    24    23    1
     6    29    30    1
     7     5     4    2
     8     5     6    1
     9     4     3    1
    10    23    25    1
    11    23    21   am
    12    25    30    1
    13     7     6    1
    14     6     1    2
    15     3    21    1
    16     3     2    2
    17    21    22    2
    18     1     2    1
    19     1     8    1
    20     9     8    2
    21     8    10    2
    22     8    11    1
    23    12    11    1
    24    11    13    1
    25    13    20    2
    26    13    14    1
    27    20    18    1
    28    14    15    2
    29    18    19    1
    30    18    16    2
    31    15    16    1
    32    15    17    1
