@<TRIPOS>MOLECULE
11198_out_ligand_01.pdbqt
 37 40 0 0 0
SMALL
GASTEIGER

@<TRIPOS>ATOM
      1  C         17.4700  -23.0290   -9.1310 C.2     1  UNL1        0.1020
      2  C         18.8450  -22.9680   -9.4130 C.2     1  UNL1        0.0440
      3  C         19.3150  -22.1620  -10.4560 C.2     1  UNL1        0.0340
      4  C         18.4070  -21.4540  -11.2490 C.2     1  UNL1        0.0190
      5  C         17.0390  -21.5300  -10.9740 C.2     1  UNL1        0.0260
      6  C         16.5610  -22.3100   -9.9120 C.2     1  UNL1        0.0570
      7 CL         14.8570  -22.2820   -9.6470 Cl      1  UNL1       -0.0830
      8  C         20.7830  -22.1040  -10.7080 C.2     1  UNL1        0.2560
      9  O         21.5340  -22.2540   -9.7530 O.2     1  UNL1       -0.2670
     10  N         21.1350  -21.8440  -12.0190 N.am    1  UNL1       -0.3230
     11  H         20.3880  -21.6250  -12.6650 H       1  UNL1        0.1690
     12  C         22.4380  -21.7580  -12.5520 C.2     1  UNL1        0.0350
     13  C         22.5910  -21.0480  -13.7520 C.2     1  UNL1        0.0320
     14  C         23.8470  -20.9200  -14.3520 C.2     1  UNL1        0.0390
     15  C         24.9600  -21.5200  -13.7620 C.2     1  UNL1        0.0760
     16  C         24.8230  -22.2090  -12.5590 C.2     1  UNL1        0.0390
     17  C         23.5640  -22.3360  -11.9620 C.2     1  UNL1        0.0320
     18  O         26.2270  -21.4060  -14.2840 O.2     1  UNL1       -0.3110
     19  C         26.5280  -20.2390  -14.9490 C.2     1  UNL1        0.0760
     20  C         26.6910  -19.0180  -14.2870 C.2     1  UNL1        0.0370
     21  C         26.9640  -17.8630  -15.0230 C.2     1  UNL1        0.0030
     22  C         27.0580  -17.9270  -16.4140 C.2     1  UNL1        0.0000
     23  C         26.8700  -19.1420  -17.0730 C.2     1  UNL1        0.0030
     24  C         26.5960  -20.2980  -16.3410 C.2     1  UNL1        0.0370
     25  S         16.9400  -24.0410   -7.7730 S.O2    1  UNL1        0.2650
     26  O         18.1160  -24.6460   -7.1800 O.2     1  UNL1       -0.2000
     27  O         15.8530  -24.8810   -8.2280 O.2     1  UNL1       -0.2000
     28  N         16.2900  -22.9300   -6.6860 N.pl3   1  UNL1       -0.2800
     29  H         15.5570  -22.3690   -7.1150 H       1  UNL1        0.1790
     30  C         17.0670  -22.3620   -5.6270 C.2     1  UNL1        0.0490
     31  C         16.7640  -22.6780   -4.2890 C.2     1  UNL1       -0.0350
     32  C         17.5170  -22.0820   -3.2610 C.2     1  UNL1        0.0090
     33  C         15.6460  -23.6050   -3.9050 C.3     1  UNL1        0.0500
     34  C         18.5770  -21.2240   -3.5520 C.2     1  UNL1        0.0070
     35  C         18.9240  -20.9620   -4.8770 C.2     1  UNL1       -0.0600
     36  C         20.0620  -20.0400   -5.2030 C.3     1  UNL1        0.0480
     37  C         18.1640  -21.5370   -5.9050 C.2     1  UNL1        0.0370
@<TRIPOS>BOND
     1    23    22    2
     2    23    24    1
     3    22    21    1
     4    24    19    2
     5    21    20    2
     6    19    20    1
     7    19    18    1
     8    14    15    2
     9    14    13    1
    10    18    15    1
    11    15    16    1
    12    13    12    2
    13    11    10    1
    14    16    17    2
    15    12    10    1
    16    12    17    1
    17    10     8   am
    18     4     5    2
    19     4     3    1
    20     5     6    1
    21     8     3    1
    22     8     9    2
    23     3     2    2
    24     6     7    1
    25     6     1    2
    26     2     1    1
    27     1    25    1
    28    27    25    2
    29    25    26    2
    30    25    28    1
    31    29    28    1
    32    28    30    1
    33    37    30    2
    34    37    35    1
    35    30    31    1
    36    36    35    1
    37    35    34    2
    38    31    33    1
    39    31    32    2
    40    34    32    1
