@<TRIPOS>MOLECULE
11190_out_ligand_01.pdbqt
 30 32 0 0 0
SMALL
GASTEIGER

@<TRIPOS>ATOM
      1  C         17.5990  -23.4630   -8.7560 C.2     1  UNL1        0.1020
      2  C         18.9940  -23.6140   -8.8210 C.2     1  UNL1        0.0440
      3  C         19.7290  -22.9660   -9.8200 C.2     1  UNL1        0.0340
      4  C         19.0680  -22.1720  -10.7620 C.2     1  UNL1        0.0190
      5  C         17.6800  -22.0170  -10.6890 C.2     1  UNL1        0.0260
      6  C         16.9380  -22.6580   -9.6880 C.2     1  UNL1        0.0570
      7 CL         15.2300  -22.4170   -9.7230 Cl      1  UNL1       -0.0830
      8  S         16.7260  -24.3060   -7.4630 S.O2    1  UNL1        0.2650
      9  O         17.6900  -25.0740   -6.7030 O.2     1  UNL1       -0.2000
     10  O         15.5850  -24.9730   -8.0540 O.2     1  UNL1       -0.2000
     11  N         16.1790  -23.0680   -6.4630 N.pl3   1  UNL1       -0.2800
     12  H         15.1820  -23.1540   -6.2740 H       1  UNL1        0.1790
     13  C         17.0120  -22.4460   -5.4790 C.2     1  UNL1        0.0490
     14  C         16.7340  -22.6430   -4.1130 C.2     1  UNL1       -0.0350
     15  C         17.5690  -22.0450   -3.1530 C.2     1  UNL1        0.0090
     16  C         15.5870  -23.4870   -3.6330 C.3     1  UNL1        0.0500
     17  C         18.6390  -21.2360   -3.5360 C.2     1  UNL1        0.0070
     18  C         18.8760  -20.9820   -4.8860 C.2     1  UNL1       -0.0600
     19  C         20.0280  -20.1200   -5.3140 C.3     1  UNL1        0.0480
     20  C         18.0540  -21.5850   -5.8480 C.2     1  UNL1        0.0370
     21  C         21.2000  -23.1830   -9.8790 C.2     1  UNL1        0.2560
     22  O         21.6860  -24.0040   -9.1110 O.2     1  UNL1       -0.2670
     23  N         21.8670  -22.3930  -10.7970 N.am    1  UNL1       -0.3230
     24  H         21.3300  -21.6740  -11.2640 H       1  UNL1        0.1690
     25  C         23.2450  -22.4100  -11.0970 C.2     1  UNL1        0.0350
     26  C         23.8230  -23.2300  -12.0670 C.2     1  UNL1        0.0290
     27  C         25.2000  -23.1820  -12.3090 C.2     1  UNL1        0.0020
     28  C         26.0100  -22.3120  -11.5830 C.2     1  UNL1        0.0000
     29  C         25.4440  -21.4870  -10.6150 C.2     1  UNL1        0.0020
     30  C         24.0680  -21.5360  -10.3740 C.2     1  UNL1        0.0290
@<TRIPOS>BOND
     1    27    26    1
     2    27    28    2
     3    26    25    2
     4    28    29    1
     5    24    23    1
     6    25    23    1
     7    25    30    1
     8    23    21   am
     9     4     5    2
    10     4     3    1
    11     5     6    1
    12    29    30    2
    13    21     3    1
    14    21    22    2
    15     3     2    2
    16     7     6    1
    17     6     1    2
    18     2     1    1
    19     1     8    1
    20    10     8    2
    21     8     9    2
    22     8    11    1
    23    11    12    1
    24    11    13    1
    25    20    13    2
    26    20    18    1
    27    13    14    1
    28    19    18    1
    29    18    17    2
    30    14    16    1
    31    14    15    2
    32    17    15    1
