@<TRIPOS>MOLECULE
11205_out_ligand_01.pdbqt
 32 34 0 0 0
SMALL
GASTEIGER

@<TRIPOS>ATOM
      1  C         17.5150  -22.9930   -9.0820 C.2     1  UNL1        0.0860
      2  C         18.9090  -22.9440   -9.2530 C.2     1  UNL1        0.0420
      3  C         19.4640  -22.2120  -10.3040 C.2     1  UNL1        0.0330
      4  C         18.6280  -21.5360  -11.1970 C.2     1  UNL1        0.0170
      5  C         17.2430  -21.5760  -11.0220 C.2     1  UNL1        0.0090
      6  C         16.6610  -22.3040   -9.9670 C.2     1  UNL1       -0.0390
      7  C         15.1640  -22.2820   -9.8380 C.3     1  UNL1        0.0500
      8  C         20.9440  -22.1990  -10.4650 C.2     1  UNL1        0.2560
      9  O         21.6340  -22.1760   -9.4530 O.2     1  UNL1       -0.2670
     10  N         21.3800  -22.1820  -11.7770 N.am    1  UNL1       -0.3230
     11  H         20.6750  -22.0700  -12.4930 H       1  UNL1        0.1690
     12  C         22.7130  -22.2080  -12.2360 C.2     1  UNL1        0.0350
     13  C         23.0160  -21.4450  -13.3680 C.2     1  UNL1        0.0300
     14  C         24.3130  -21.4200  -13.8910 C.2     1  UNL1        0.0100
     15  C         25.3390  -22.1620  -13.2920 C.2     1  UNL1       -0.0550
     16  C         25.0290  -22.9290  -12.1600 C.2     1  UNL1        0.0100
     17  C         23.7300  -22.9510  -11.6380 C.2     1  UNL1        0.0300
     18  C         26.7410  -22.1230  -13.8730 C.3     1  UNL1        0.0100
     19  C         26.9350  -20.9090  -14.7850 C.3     1  UNL1        0.0150
     20  C         27.0830  -23.4210  -14.6120 C.3     1  UNL1        0.0150
     21  S         16.9010  -23.9260   -7.6800 S.O2    1  UNL1        0.2630
     22  O         18.0340  -24.5040   -6.9870 O.2     1  UNL1       -0.2000
     23  O         15.8270  -24.7780   -8.1440 O.2     1  UNL1       -0.2000
     24  N         16.2790  -22.7350   -6.6620 N.pl3   1  UNL1       -0.2800
     25  H         15.2650  -22.7630   -6.5960 H       1  UNL1        0.1790
     26  C         17.0290  -22.2770   -5.5390 C.2     1  UNL1        0.0480
     27  C         18.1530  -21.4680   -5.7370 C.2     1  UNL1        0.0300
     28  C         18.9210  -21.0420   -4.6540 C.2     1  UNL1        0.0020
     29  C         18.5620  -21.4130   -3.3630 C.2     1  UNL1        0.0010
     30  C         17.4310  -22.2010   -3.1530 C.2     1  UNL1        0.0090
     31  C         16.6450  -22.6350   -4.2350 C.2     1  UNL1       -0.0350
     32  C         15.4420  -23.4910   -3.9560 C.3     1  UNL1        0.0500
@<TRIPOS>BOND
     1    19    18    1
     2    20    18    1
     3    14    13    1
     4    14    15    2
     5    18    15    1
     6    13    12    2
     7    15    16    1
     8    11    10    1
     9    12    10    1
    10    12    17    1
    11    16    17    2
    12    10     8   am
    13     4     5    2
    14     4     3    1
    15     5     6    1
    16     8     3    1
    17     8     9    2
    18     3     2    2
    19     6     7    1
    20     6     1    2
    21     2     1    1
    22     1    21    1
    23    23    21    2
    24    21    22    2
    25    21    24    1
    26    24    25    1
    27    24    26    1
    28    27    26    2
    29    27    28    1
    30    26    31    1
    31    28    29    2
    32    31    32    1
    33    31    30    2
    34    29    30    1
