@<TRIPOS>MOLECULE
11203_out_ligand_01.pdbqt
 30 32 0 0 0
SMALL
GASTEIGER

@<TRIPOS>ATOM
      1  C         17.6090  -23.3970   -8.8260 C.2     1  UNL1        0.0860
      2  C         19.0070  -23.5340   -8.8820 C.2     1  UNL1        0.0420
      3  C         19.7420  -22.9200   -9.8990 C.2     1  UNL1        0.0330
      4  C         19.0820  -22.1610  -10.8650 C.2     1  UNL1        0.0170
      5  C         17.6950  -21.9970  -10.7930 C.2     1  UNL1        0.0090
      6  C         16.9360  -22.6030   -9.7740 C.2     1  UNL1       -0.0390
      7  C         15.4540  -22.3570   -9.7660 C.3     1  UNL1        0.0500
      8  S         16.8020  -24.2670   -7.4840 S.O2    1  UNL1        0.2630
      9  O         17.7740  -25.0260   -6.7300 O.2     1  UNL1       -0.2000
     10  O         15.6430  -24.9230   -8.0550 O.2     1  UNL1       -0.2000
     11  N         16.2010  -23.0190   -6.5190 N.pl3   1  UNL1       -0.2800
     12  H         15.5470  -22.4230   -7.0220 H       1  UNL1        0.1790
     13  C         17.0020  -22.4360   -5.4920 C.2     1  UNL1        0.0490
     14  C         16.7400  -22.7230   -4.1420 C.2     1  UNL1       -0.0350
     15  C         17.5300  -22.1110   -3.1560 C.2     1  UNL1        0.0090
     16  C         15.6490  -23.6660   -3.7140 C.3     1  UNL1        0.0500
     17  C         18.5710  -21.2480   -3.5030 C.2     1  UNL1        0.0070
     18  C         18.8620  -20.9990   -4.8450 C.2     1  UNL1       -0.0600
     19  C         19.9710  -20.0660   -5.2280 C.3     1  UNL1        0.0480
     20  C         18.0680  -21.5950   -5.8320 C.2     1  UNL1        0.0370
     21  C         21.2120  -23.1440   -9.9450 C.2     1  UNL1        0.2560
     22  O         21.6900  -23.9510   -9.1560 O.2     1  UNL1       -0.2670
     23  N         21.8860  -22.3740  -10.8740 N.am    1  UNL1       -0.3230
     24  H         21.3520  -21.6660  -11.3590 H       1  UNL1        0.1690
     25  C         23.2670  -22.3970  -11.1630 C.2     1  UNL1        0.0350
     26  C         23.8480  -23.2150  -12.1330 C.2     1  UNL1        0.0290
     27  C         25.2270  -23.1730  -12.3620 C.2     1  UNL1        0.0020
     28  C         26.0370  -22.3140  -11.6220 C.2     1  UNL1        0.0000
     29  C         25.4670  -21.4930  -10.6540 C.2     1  UNL1        0.0020
     30  C         24.0880  -21.5340  -10.4260 C.2     1  UNL1        0.0290
@<TRIPOS>BOND
     1    27    26    1
     2    27    28    2
     3    26    25    2
     4    28    29    1
     5    24    23    1
     6    25    23    1
     7    25    30    1
     8    23    21   am
     9     4     5    2
    10     4     3    1
    11     5     6    1
    12    29    30    2
    13    21     3    1
    14    21    22    2
    15     3     2    2
    16     6     7    1
    17     6     1    2
    18     2     1    1
    19     1     8    1
    20    10     8    2
    21     8     9    2
    22     8    11    1
    23    12    11    1
    24    11    13    1
    25    20    13    2
    26    20    18    1
    27    13    14    1
    28    19    18    1
    29    18    17    2
    30    14    16    1
    31    14    15    2
    32    17    15    1
