@<TRIPOS>MOLECULE
11207_out_ligand_01.pdbqt
 32 34 0 0 0
SMALL
GASTEIGER

@<TRIPOS>ATOM
      1  C         16.8670  -20.8750  -11.1510 C.3     1  UNL1        0.0500
      2  C         18.2760  -21.3930  -11.0770 C.2     1  UNL1       -0.0390
      3  C         19.2260  -20.8610  -11.9670 C.2     1  UNL1        0.0090
      4  C         20.5560  -21.2900  -11.9490 C.2     1  UNL1        0.0170
      5  C         20.9660  -22.2610  -11.0330 C.2     1  UNL1        0.0330
      6  C         20.0320  -22.8150  -10.1510 C.2     1  UNL1        0.0420
      7  C         18.6960  -22.3800  -10.1630 C.2     1  UNL1        0.0810
      8  S         17.5700  -23.1380   -8.9900 S.O2    1  UNL1        0.2460
      9  O         18.3550  -24.0140   -8.1460 O.2     1  UNL1       -0.2060
     10  O         16.4220  -23.6220   -9.7230 O.2     1  UNL1       -0.2060
     11  N         17.1340  -21.7920   -8.0310 N.pl3   1  UNL1       -0.1810
     12  H         17.8760  -21.0950   -8.1030 H       1  UNL1        0.1460
     13  C         16.8610  -22.1200   -6.6540 C.2     1  UNL1        0.0290
     14  C         15.5900  -22.6150   -6.3410 C.2     1  UNL1        0.0250
     15  C         15.2500  -22.8970   -5.0230 C.2     1  UNL1        0.0020
     16  C         16.1720  -22.6670   -4.0060 C.2     1  UNL1        0.0070
     17  C         17.4450  -22.1480   -4.2950 C.2     1  UNL1       -0.0540
     18  C         18.3970  -21.9000   -3.1540 C.3     1  UNL1        0.0490
     19  C         17.8090  -21.8870   -5.6380 C.2     1  UNL1       -0.0340
     20  C         19.1740  -21.3350   -5.9520 C.3     1  UNL1        0.0500
     21  C         22.3720  -22.7550  -10.9810 C.2     1  UNL1        0.2520
     22  O         22.7370  -23.4640  -10.0510 O.2     1  UNL1       -0.2680
     23  N         23.2050  -22.3390  -11.9950 N.am    1  UNL1       -0.3490
     24  H         22.9140  -21.5800  -12.5950 H       1  UNL1        0.1630
     25  C         24.6170  -22.6910  -12.0130 C.3     1  UNL1        0.1140
     26  C         24.9200  -23.7500  -13.0780 C.3     1  UNL1        0.0370
     27  C         25.4490  -21.4350  -12.2110 C.2     1  UNL1       -0.0360
     28  C         25.6750  -20.8920  -13.4870 C.2     1  UNL1        0.0090
     29  C         26.4290  -19.7280  -13.6440 C.2     1  UNL1        0.0010
     30  C         26.9630  -19.0870  -12.5280 C.2     1  UNL1        0.0000
     31  C         26.7420  -19.6080  -11.2560 C.2     1  UNL1        0.0010
     32  C         25.9880  -20.7720  -11.0960 C.2     1  UNL1        0.0090
@<TRIPOS>BOND
     1    29    28    1
     2    29    30    2
     3    28    27    2
     4    26    25    1
     5    24    23    1
     6    30    31    1
     7    27    25    1
     8    27    32    1
     9    25    23    1
    10    23    21   am
    11     3     4    1
    12     3     2    2
    13     4     5    2
    14    31    32    2
    15     1     2    1
    16     2     7    1
    17     5    21    1
    18     5     6    1
    19    21    22    2
    20     7     6    2
    21     7     8    1
    22    10     8    2
    23     8     9    2
    24     8    11    1
    25    12    11    1
    26    11    13    1
    27    13    14    2
    28    13    19    1
    29    14    15    1
    30    20    19    1
    31    19    17    2
    32    15    16    2
    33    17    16    1
    34    17    18    1
