@<TRIPOS>MOLECULE
11200_out_ligand_01.pdbqt
 30 32 0 0 0
SMALL
GASTEIGER

@<TRIPOS>ATOM
      1  C         18.6440  -22.3380   -9.7270 C.2     1  UNL1        0.0330
      2  C         18.2570  -21.7780  -10.9480 C.2     1  UNL1        0.0170
      3  C         19.2270  -21.4120  -11.8860 C.2     1  UNL1        0.0090
      4  C         20.5970  -21.5770  -11.6200 C.2     1  UNL1       -0.0390
      5  C         21.5790  -21.1700  -12.6830 C.3     1  UNL1        0.0500
      6  C         20.9740  -22.1330  -10.3790 C.2     1  UNL1        0.0860
      7  C         20.0000  -22.5100   -9.4400 C.2     1  UNL1        0.0420
      8  C         17.6390  -22.7280   -8.6990 C.2     1  UNL1        0.2560
      9  N         17.9210  -22.2750   -7.4240 N.am    1  UNL1       -0.3220
     10  H         18.7000  -21.6390   -7.3380 H       1  UNL1        0.1690
     11  O         16.6650  -23.3710   -9.0670 O.2     1  UNL1       -0.2670
     12  C         17.1920  -22.5190   -6.2340 C.2     1  UNL1        0.0410
     13  C         17.6570  -21.9580   -5.0250 C.2     1  UNL1       -0.0350
     14  C         16.9430  -22.1920   -3.8370 C.2     1  UNL1        0.0090
     15  C         18.8930  -21.1010   -4.9530 C.3     1  UNL1        0.0500
     16  C         15.7900  -22.9750   -3.8350 C.2     1  UNL1        0.0070
     17  C         15.3340  -23.5500   -5.0200 C.2     1  UNL1       -0.0600
     18  C         14.0770  -24.3680   -5.0390 C.3     1  UNL1        0.0480
     19  C         16.0340  -23.3080   -6.2130 C.2     1  UNL1        0.0370
     20  S         22.6880  -22.4130   -9.9360 S.O2    1  UNL1        0.2630
     21  O         22.7190  -23.2840   -8.7810 O.2     1  UNL1       -0.2000
     22  O         23.3610  -21.1310   -9.9010 O.2     1  UNL1       -0.2000
     23  N         23.2820  -23.3140  -11.2320 N.pl3   1  UNL1       -0.2810
     24  H         22.5550  -23.5750  -11.8930 H       1  UNL1        0.1790
     25  C         24.5900  -23.0610  -11.7330 C.2     1  UNL1        0.0420
     26  C         24.7270  -22.6410  -13.0570 C.2     1  UNL1        0.0300
     27  C         25.9930  -22.3510  -13.5720 C.2     1  UNL1        0.0020
     28  C         27.1210  -22.4870  -12.7630 C.2     1  UNL1        0.0000
     29  C         26.9840  -22.9190  -11.4450 C.2     1  UNL1        0.0020
     30  C         25.7200  -23.2120  -10.9310 C.2     1  UNL1        0.0300
@<TRIPOS>BOND
     1    27    26    1
     2    27    28    2
     3    26    25    2
     4    28    29    1
     5     5     4    1
     6    24    23    1
     7     3     4    2
     8     3     2    1
     9    25    23    1
    10    25    30    1
    11     4     6    1
    12    29    30    2
    13    23    20    1
    14     2     1    2
    15     6    20    1
    16     6     7    2
    17    20    22    2
    18    20    21    2
    19     1     7    1
    20     1     8    1
    21    11     8    2
    22     8     9   am
    23     9    10    1
    24     9    12    1
    25    12    19    2
    26    12    13    1
    27    19    17    1
    28    18    17    1
    29    13    15    1
    30    13    14    2
    31    17    16    2
    32    14    16    1
