@<TRIPOS>MOLECULE
11208_out_ligand_01.pdbqt
 31 33 0 0 0
SMALL
GASTEIGER

@<TRIPOS>ATOM
      1  C         18.3830  -22.5510   -9.8980 C.2     1  UNL1        0.1020
      2  C         19.7040  -23.0220   -9.8060 C.2     1  UNL1        0.0440
      3  C         20.7080  -22.4670  -10.6070 C.2     1  UNL1        0.0340
      4  C         20.3890  -21.4530  -11.5150 C.2     1  UNL1        0.0190
      5  C         19.0740  -20.9860  -11.6020 C.2     1  UNL1        0.0260
      6  C         18.0650  -21.5280  -10.7940 C.2     1  UNL1        0.0570
      7 CL         16.4770  -20.8920  -11.0250 Cl      1  UNL1       -0.0830
      8  S         17.1650  -23.2740   -8.8280 S.O2    1  UNL1        0.2650
      9  O         16.0440  -23.6870   -9.6480 O.2     1  UNL1       -0.2000
     10  O         17.8240  -24.2450   -7.9810 O.2     1  UNL1       -0.2000
     11  N         16.6860  -21.9930   -7.8420 N.pl3   1  UNL1       -0.2800
     12  H         16.0930  -21.3260   -8.3290 H       1  UNL1        0.1790
     13  C         16.5440  -22.1730   -6.4310 C.2     1  UNL1        0.0490
     14  C         15.3060  -22.5830   -5.9250 C.2     1  UNL1        0.0310
     15  C         15.1070  -22.7170   -4.5550 C.2     1  UNL1        0.0030
     16  C         16.1460  -22.4440   -3.6760 C.2     1  UNL1        0.0070
     17  C         17.4040  -22.0490   -4.1550 C.2     1  UNL1       -0.0540
     18  C         18.4960  -21.7760   -3.1530 C.3     1  UNL1        0.0490
     19  C         17.6250  -21.9410   -5.5530 C.2     1  UNL1       -0.0290
     20  C         18.9880  -21.5280   -6.0480 C.3     1  UNL1        0.0510
     21  C         22.0910  -23.0080  -10.4980 C.2     1  UNL1        0.2560
     22  O         22.3450  -23.7430   -9.5540 O.2     1  UNL1       -0.2670
     23  N         22.9600  -22.5820  -11.4850 N.am    1  UNL1       -0.3230
     24  H         22.6230  -21.8710  -12.1200 H       1  UNL1        0.1690
     25  C         24.3100  -22.9590  -11.6550 C.2     1  UNL1        0.0360
     26  C         25.2990  -22.7730  -10.6870 C.2     1  UNL1        0.0290
     27  C         26.6170  -23.1800  -10.9270 C.2     1  UNL1        0.0040
     28  C         26.9560  -23.7790  -12.1370 C.2     1  UNL1        0.0190
     29  C         25.9730  -23.9690  -13.1030 C.2     1  UNL1        0.0130
     30 BR         26.4240  -24.7840  -14.7490 Br      1  UNL1       -0.0510
     31  C         24.6580  -23.5650  -12.8700 C.2     1  UNL1        0.0480
@<TRIPOS>BOND
     1    30    29    1
     2    29    31    1
     3    29    28    2
     4    31    25    2
     5    28    27    1
     6    24    23    1
     7    25    23    1
     8    25    26    1
     9     5     4    2
    10     5     6    1
    11     4     3    1
    12    23    21   am
    13     7     6    1
    14    27    26    2
    15     6     1    2
    16     3    21    1
    17     3     2    2
    18    21    22    2
    19     1     2    1
    20     1     8    1
    21     9     8    2
    22     8    10    2
    23     8    11    1
    24    12    11    1
    25    11    13    1
    26    13    14    2
    27    13    19    1
    28    20    19    1
    29    14    15    1
    30    19    17    2
    31    15    16    2
    32    17    16    1
    33    17    18    1
