@<TRIPOS>MOLECULE
11218_out_ligand_01.pdbqt
 31 33 0 0 0
SMALL
GASTEIGER

@<TRIPOS>ATOM
      1  C         17.5490  -23.5060   -8.6860 C.2     1  UNL1        0.0860
      2  C         18.9500  -23.6060   -8.6330 C.2     1  UNL1        0.0420
      3  C         19.7450  -22.9990   -9.6070 C.2     1  UNL1        0.0330
      4  C         19.1400  -22.2810  -10.6390 C.2     1  UNL1        0.0170
      5  C         17.7480  -22.1570  -10.6790 C.2     1  UNL1        0.0090
      6  C         16.9290  -22.7590   -9.7050 C.2     1  UNL1       -0.0390
      7  C         15.4440  -22.5560   -9.8170 C.3     1  UNL1        0.0500
      8  S         16.6650  -24.3600   -7.3840 S.O2    1  UNL1        0.2630
      9  O         17.5780  -25.1740   -6.6130 O.2     1  UNL1       -0.2000
     10  O         15.4950  -24.9560   -7.9960 O.2     1  UNL1       -0.2000
     11  N         16.0910  -23.1010   -6.4170 N.pl3   1  UNL1       -0.2800
     12  H         15.4000  -22.5290   -6.8990 H       1  UNL1        0.1790
     13  C         16.9350  -22.4770   -5.4500 C.2     1  UNL1        0.0490
     14  C         16.6970  -22.6610   -4.0770 C.2     1  UNL1       -0.0350
     15  C         17.5270  -22.0030   -3.1540 C.2     1  UNL1        0.0090
     16  C         15.5830  -23.5280   -3.5590 C.3     1  UNL1        0.0500
     17  C         18.5860  -21.2030   -3.5830 C.2     1  UNL1        0.0070
     18  C         18.8530  -21.0590   -4.9470 C.2     1  UNL1       -0.0600
     19  C         19.9810  -20.1910   -5.4180 C.3     1  UNL1        0.0480
     20  C         18.0190  -21.6980   -5.8720 C.2     1  UNL1        0.0370
     21  C         21.2180  -23.1800   -9.5280 C.2     1  UNL1        0.2510
     22  O         21.6760  -24.2670   -9.1920 O.2     1  UNL1       -0.2680
     23  N         21.9830  -22.0720   -9.8160 N.am    1  UNL1       -0.3530
     24  H         21.5330  -21.1680   -9.8480 H       1  UNL1        0.1630
     25  C         23.4140  -22.0700   -9.6060 C.3     1  UNL1        0.1610
     26  C         24.1390  -21.7640  -10.8910 C.2     1  UNL1       -0.0410
     27  C         23.5520  -22.0800  -12.1260 C.2     1  UNL1        0.0090
     28  C         24.2300  -21.8230  -13.3180 C.2     1  UNL1        0.0010
     29  C         25.5010  -21.2540  -13.2900 C.2     1  UNL1        0.0000
     30  C         26.0970  -20.9410  -12.0690 C.2     1  UNL1        0.0010
     31  C         25.4220  -21.1980  -10.8740 C.2     1  UNL1        0.0090
@<TRIPOS>BOND
     1    28    29    2
     2    28    27    1
     3    29    30    1
     4    27    26    2
     5    30    31    2
     6    26    31    1
     7    26    25    1
     8     5     4    2
     9     5     6    1
    10     4     3    1
    11    24    23    1
    12     7     6    1
    13    23    25    1
    14    23    21   am
    15     6     1    2
    16     3    21    1
    17     3     2    2
    18    21    22    2
    19     1     2    1
    20     1     8    1
    21    10     8    2
    22     8     9    2
    23     8    11    1
    24    12    11    1
    25    11    13    1
    26    20    13    2
    27    20    18    1
    28    13    14    1
    29    19    18    1
    30    18    17    2
    31    14    16    1
    32    14    15    2
    33    17    15    1
