@<TRIPOS>MOLECULE
11220_out_ligand_01.pdbqt
 32 35 0 0 0
SMALL
GASTEIGER

@<TRIPOS>ATOM
      1  C         23.6830  -21.8520  -13.1340 C.2     1  UNL1        0.0540
      2  C         24.7610  -21.6710  -14.0130 C.2     1  UNL1        0.0190
      3  C         25.9080  -22.4560  -13.8820 C.2     1  UNL1        0.0010
      4  C         25.9810  -23.4270  -12.8860 C.2     1  UNL1        0.0020
      5  C         24.9060  -23.6240  -12.0180 C.2     1  UNL1        0.0250
      6  C         23.7500  -22.8490  -12.1440 C.2     1  UNL1        0.0380
      7  N         22.6960  -23.0280  -11.1850 N.pl3   1  UNL1       -0.1800
      8  H         21.8380  -22.5050  -11.4190 H       1  UNL1        0.1460
      9  S         23.0900  -22.6840   -9.5670 S.O2    1  UNL1        0.2450
     10  O         23.2240  -21.2470   -9.4610 O.2     1  UNL1       -0.2060
     11  O         24.1480  -23.5740   -9.1350 O.2     1  UNL1       -0.2060
     12  C         21.5930  -23.1240   -8.7190 C.2     1  UNL1        0.0750
     13  C         21.0680  -24.4050   -8.8830 C.2     1  UNL1        0.0260
     14  C         19.8960  -24.7580   -8.2110 C.2     1  UNL1        0.0140
     15  C         19.2400  -23.8330   -7.3790 C.2     1  UNL1       -0.0260
     16  C         18.0640  -24.1740   -6.6950 C.2     1  UNL1        0.0120
     17  C         19.7730  -22.5290   -7.2300 C.2     1  UNL1       -0.0250
     18  C         17.4210  -23.2460   -5.8740 C.2     1  UNL1        0.0010
     19  C         17.9450  -21.9640   -5.7290 C.2     1  UNL1        0.0010
     20  C         19.1130  -21.6080   -6.4030 C.2     1  UNL1        0.0120
     21  C         20.9490  -22.1820   -7.9100 C.2     1  UNL1        0.0370
     22  C         22.4470  -21.0390  -13.2800 C.2     1  UNL1        0.2530
     23  O         22.3100  -20.3260  -14.2690 O.2     1  UNL1       -0.2680
     24  N         21.5140  -21.1620  -12.2780 N.am    1  UNL1       -0.3530
     25  H         21.6470  -21.8360  -11.5380 H       1  UNL1        0.1630
     26  C         20.2900  -20.3950  -12.2640 C.3     1  UNL1        0.1610
     27  C         19.1920  -21.1850  -11.6000 C.2     1  UNL1       -0.0410
     28  C         18.0120  -20.5420  -11.1970 C.2     1  UNL1        0.0090
     29  C         16.9950  -21.2590  -10.5640 C.2     1  UNL1        0.0010
     30  C         17.1530  -22.6230  -10.3180 C.2     1  UNL1        0.0000
     31  C         18.3260  -23.2690  -10.7030 C.2     1  UNL1        0.0010
     32  C         19.3450  -22.5540  -11.3390 C.2     1  UNL1        0.0090
@<TRIPOS>BOND
     1    23    22    2
     2     2     3    1
     3     2     1    2
     4     3     4    2
     5    22     1    1
     6    22    24   am
     7     1     6    1
     8     4     5    1
     9    24    26    1
    10    24    25    1
    11    26    27    1
    12     6     5    2
    13     6     7    1
    14    27    32    2
    15    27    28    1
    16     8     7    1
    17    32    31    1
    18    28    29    2
    19     7     9    1
    20    31    30    2
    21    29    30    1
    22     9    10    2
    23     9    11    2
    24     9    12    1
    25    13    12    2
    26    13    14    1
    27    12    21    1
    28    14    15    2
    29    21    17    2
    30    15    17    1
    31    15    16    1
    32    17    20    1
    33    16    18    2
    34    20    19    2
    35    18    19    1
