@<TRIPOS>MOLECULE
11222_out_ligand_01.pdbqt
 32 34 0 0 0
SMALL
GASTEIGER

@<TRIPOS>ATOM
      1  C         18.2190  -22.3620   -9.7840 C.2     1  UNL1        0.0330
      2  C         17.9250  -21.8860  -11.0650 C.2     1  UNL1        0.0170
      3  C         18.9600  -21.5120  -11.9250 C.2     1  UNL1        0.0090
      4  C         20.3050  -21.6010  -11.5250 C.2     1  UNL1       -0.0390
      5  C         21.3680  -21.1950  -12.5090 C.3     1  UNL1        0.0500
      6  C         20.5890  -22.1050  -10.2400 C.2     1  UNL1        0.0810
      7  C         19.5490  -22.4910   -9.3790 C.2     1  UNL1        0.0420
      8  S         22.2600  -22.2900   -9.6380 S.O2    1  UNL1        0.2460
      9  O         22.2100  -23.0270   -8.3930 O.2     1  UNL1       -0.2060
     10  O         22.9330  -21.0110   -9.7010 O.2     1  UNL1       -0.2060
     11  N         22.9550  -23.3310  -10.7810 N.pl3   1  UNL1       -0.1810
     12  H         23.0940  -24.2540  -10.3720 H       1  UNL1        0.1460
     13  C         24.0150  -22.8170  -11.5770 C.2     1  UNL1        0.0230
     14  C         24.2660  -23.3820  -12.8230 C.2     1  UNL1        0.0250
     15  C         25.2770  -22.8610  -13.6300 C.2     1  UNL1        0.0090
     16  C         26.0420  -21.7630  -13.2020 C.2     1  UNL1       -0.0560
     17  C         27.1210  -21.2240  -14.1010 C.3     1  UNL1        0.0490
     18  C         25.7870  -21.1930  -11.9370 C.2     1  UNL1       -0.0540
     19  C         26.5630  -20.0040  -11.4410 C.3     1  UNL1        0.0490
     20  C         24.7640  -21.7270  -11.1370 C.2     1  UNL1        0.0310
     21  C         17.1380  -22.7660   -8.8410 C.2     1  UNL1        0.2560
     22  N         17.4870  -22.6900   -7.5050 N.am    1  UNL1       -0.3220
     23  H         18.4530  -22.4730   -7.3100 H       1  UNL1        0.1690
     24  O         16.0780  -23.1530   -9.3150 O.2     1  UNL1       -0.2670
     25  C         16.6750  -22.9580   -6.3760 C.2     1  UNL1        0.0410
     26  C         15.5210  -23.7460   -6.4640 C.2     1  UNL1        0.0300
     27  C         14.7220  -23.9860   -5.3430 C.2     1  UNL1        0.0020
     28  C         15.0620  -23.4370   -4.1140 C.2     1  UNL1        0.0010
     29  C         16.2050  -22.6490   -4.0060 C.2     1  UNL1        0.0090
     30  C         17.0270  -22.4030   -5.1240 C.2     1  UNL1       -0.0320
     31  C         18.2450  -21.5290   -4.9100 C.3     1  UNL1        0.0360
     32  C         18.5330  -21.2990   -3.4330 C.3     1  UNL1        0.0100
@<TRIPOS>BOND
     1    17    16    1
     2    15    16    2
     3    15    14    1
     4    16    18    1
     5    14    13    2
     6     5     4    1
     7    18    19    1
     8    18    20    2
     9     3     4    2
    10     3     2    1
    11    13    20    1
    12    13    11    1
    13     4     6    1
    14     2     1    2
    15    11    12    1
    16    11     8    1
    17     6     8    1
    18     6     7    2
    19     1     7    1
    20     1    21    1
    21    10     8    2
    22     8     9    2
    23    24    21    2
    24    21    22   am
    25    22    23    1
    26    22    25    1
    27    26    25    2
    28    26    27    1
    29    25    30    1
    30    27    28    2
    31    30    31    1
    32    30    29    2
    33    31    32    1
    34    28    29    1
