@<TRIPOS>MOLECULE
11226_out_ligand_01.pdbqt
 34 36 0 0 0
SMALL
GASTEIGER

@<TRIPOS>ATOM
      1  C         17.5970  -23.4420   -8.7380 C.2     1  UNL1        0.0810
      2  C         18.9920  -23.5970   -8.8220 C.2     1  UNL1        0.0420
      3  C         19.7150  -22.9600   -9.8360 C.2     1  UNL1        0.0330
      4  C         19.0350  -22.2030  -10.7950 C.2     1  UNL1        0.0170
      5  C         17.6450  -22.0610  -10.7220 C.2     1  UNL1        0.0090
      6  C         16.9050  -22.6700   -9.6930 C.2     1  UNL1       -0.0390
      7  C         15.4110  -22.5030   -9.7040 C.3     1  UNL1        0.0500
      8  C         21.1960  -23.1390   -9.8780 C.2     1  UNL1        0.2560
      9  O         21.7130  -23.8860   -9.0570 O.2     1  UNL1       -0.2670
     10  N         21.8470  -22.3940  -10.8460 N.am    1  UNL1       -0.3230
     11  H         21.2920  -21.7300  -11.3670 H       1  UNL1        0.1690
     12  C         23.2280  -22.3910  -11.1370 C.2     1  UNL1        0.0350
     13  C         24.0390  -21.5380  -10.3790 C.2     1  UNL1        0.0290
     14  C         25.4140  -21.4700  -10.6070 C.2     1  UNL1        0.0030
     15  C         25.9950  -22.2530  -11.6020 C.2     1  UNL1        0.0160
     16  C         25.2040  -23.1110  -12.3760 C.2     1  UNL1        0.0500
     17  C         23.8180  -23.1710  -12.1330 C.2     1  UNL1        0.0450
     18  C         25.8080  -23.9680  -13.4610 C.3     1  UNL1        0.4170
     19  F         26.2670  -23.2390  -14.5140 F       1  UNL1       -0.1660
     20  F         24.9280  -24.8650  -13.9890 F       1  UNL1       -0.1660
     21  F         26.8650  -24.7040  -13.0200 F       1  UNL1       -0.1660
     22  S         16.7500  -24.2960   -7.4170 S.O2    1  UNL1        0.2460
     23  O         15.6060  -24.9700   -7.9940 O.2     1  UNL1       -0.2060
     24  O         17.7270  -25.0230   -6.6360 O.2     1  UNL1       -0.2060
     25  N         16.1170  -23.0050   -6.5040 N.pl3   1  UNL1       -0.1810
     26  H         15.1890  -23.2880   -6.1830 H       1  UNL1        0.1460
     27  C         16.9500  -22.4690   -5.4720 C.2     1  UNL1        0.0290
     28  C         16.7040  -22.7450   -4.1210 C.2     1  UNL1       -0.0400
     29  C         17.5220  -22.1360   -3.1560 C.2     1  UNL1        0.0090
     30  C         15.5760  -23.6230   -3.6650 C.3     1  UNL1        0.0500
     31  C         18.5730  -21.2950   -3.5300 C.2     1  UNL1        0.0070
     32  C         18.8330  -21.0420   -4.8780 C.2     1  UNL1       -0.0600
     33  C         19.9210  -20.0910   -5.2820 C.3     1  UNL1        0.0480
     34  C         18.0010  -21.6200   -5.8450 C.2     1  UNL1        0.0310
@<TRIPOS>BOND
     1    19    18    1
     2    20    18    1
     3    18    21    1
     4    18    16    1
     5    16    17    1
     6    16    15    2
     7    17    12    2
     8    15    14    1
     9    11    10    1
    10    12    10    1
    11    12    13    1
    12    10     8   am
    13     4     5    2
    14     4     3    1
    15     5     6    1
    16    14    13    2
    17     8     3    1
    18     8     9    2
    19     3     2    2
    20     7     6    1
    21     6     1    2
    22     2     1    1
    23     1    22    1
    24    23    22    2
    25    22    24    2
    26    22    25    1
    27    25    26    1
    28    25    27    1
    29    34    27    2
    30    34    32    1
    31    27    28    1
    32    33    32    1
    33    32    31    2
    34    28    30    1
    35    28    29    2
    36    31    29    1
