@<TRIPOS>MOLECULE
11232_out_ligand_01.pdbqt
 32 34 0 0 0
SMALL
GASTEIGER

@<TRIPOS>ATOM
      1  C         15.6750  -23.3930   -6.0270 C.2     1  UNL1        0.0800
      2  C         16.1050  -24.5240   -6.7250 C.2     1  UNL1        0.0280
      3  C         16.3420  -24.4430   -8.1020 C.2     1  UNL1        0.0380
      4  C         16.1530  -23.2330   -8.7750 C.2     1  UNL1        0.0690
      5  C         15.7400  -22.1030   -8.0600 C.2     1  UNL1        0.0380
      6  C         15.5010  -22.1750   -6.6870 C.2     1  UNL1        0.0280
      7  O         16.3660  -23.0100  -10.1080 O.2     1  UNL1       -0.3420
      8  C         16.5910  -21.6700  -10.5330 C.3     1  UNL1        0.2780
      9  C         17.9320  -21.4310  -11.2380 C.2     1  UNL1        0.2460
     10  O         18.0260  -20.6010  -12.1380 O.2     1  UNL1       -0.2710
     11  N         18.9510  -22.2150  -10.7280 N.am    1  UNL1       -0.3250
     12  H         18.6650  -22.8790  -10.0140 H       1  UNL1        0.1690
     13  C         20.3010  -22.2500  -11.1220 C.2     1  UNL1        0.0360
     14  C         21.1780  -22.9930  -10.3240 C.2     1  UNL1        0.0300
     15  C         22.5360  -23.0820  -10.6450 C.2     1  UNL1        0.0110
     16  C         23.0480  -22.4280  -11.7720 C.2     1  UNL1       -0.0400
     17  C         24.5110  -22.5400  -12.0950 C.3     1  UNL1        0.0500
     18  C         22.1650  -21.6830  -12.5680 C.2     1  UNL1        0.0420
     19 CL         22.7190  -20.8430  -13.9750 Cl      1  UNL1       -0.0840
     20  C         20.8050  -21.5950  -12.2460 C.2     1  UNL1        0.0530
     21  S         15.3920  -23.4980   -4.2780 S.O2    1  UNL1        0.2630
     22  O         14.6620  -22.3100   -3.8880 O.2     1  UNL1       -0.2000
     23  O         14.8860  -24.8160   -3.9630 O.2     1  UNL1       -0.2000
     24  N         16.9480  -23.3180   -3.6400 N.pl3   1  UNL1       -0.2810
     25  H         17.3320  -24.2220   -3.3680 H       1  UNL1        0.1790
     26  C         17.8280  -22.4050   -4.2830 C.2     1  UNL1        0.0430
     27  C         18.0620  -21.1500   -3.7260 C.2     1  UNL1        0.0300
     28  C         18.9510  -20.2740   -4.3460 C.2     1  UNL1        0.0030
     29  C         19.6110  -20.6580   -5.5160 C.2     1  UNL1        0.0070
     30  C         19.3980  -21.9270   -6.0680 C.2     1  UNL1       -0.0600
     31  C         20.0840  -22.3320   -7.3390 C.3     1  UNL1        0.0480
     32  C         18.4900  -22.7960   -5.4470 C.2     1  UNL1        0.0370
@<TRIPOS>BOND
     1    19    18    1
     2    18    20    1
     3    18    16    2
     4    20    13    2
     5    10     9    2
     6    17    16    1
     7    16    15    1
     8     9    11   am
     9     9     8    1
    10    13    11    1
    11    13    14    1
    12    11    12    1
    13    15    14    2
    14     8     7    1
    15     7     4    1
    16     4     3    2
    17     4     5    1
    18     3     2    1
    19     5     6    2
    20    31    30    1
    21     2     1    2
    22     6     1    1
    23    30    29    2
    24    30    32    1
    25     1    21    1
    26    29    28    1
    27    32    26    2
    28    28    27    2
    29    26    27    1
    30    26    24    1
    31    21    23    2
    32    21    22    2
    33    21    24    1
    34    24    25    1
