@<TRIPOS>MOLECULE
1123_out_ligand_01.pdbqt
 29 32 0 0 0
SMALL
GASTEIGER

@<TRIPOS>ATOM
      1  C         20.1430  -21.9920  -11.1290 C.2     1  UNL1        0.0330
      2  C         19.0170  -21.3770  -11.7330 C.2     1  UNL1        0.0180
      3  C         17.7230  -21.5920  -11.2420 C.2     1  UNL1        0.0190
      4  C         17.5940  -22.4320  -10.1560 C.2     1  UNL1        0.0480
      5  C         18.6910  -23.0440   -9.5730 C.2     1  UNL1        0.0490
      6  C         19.9800  -22.8540  -10.0340 C.2     1  UNL1        0.0350
      7  C         18.2000  -23.8650   -8.4680 C.2     1  UNL1        0.2620
      8  O         18.9200  -24.5250   -7.7440 O.2     1  UNL1       -0.2670
      9  N         16.8430  -23.7100   -8.4410 N.am    1  UNL1       -0.2760
     10  C         16.4060  -22.8630   -9.4220 C.2     1  UNL1        0.2620
     11  O         15.2730  -22.5020   -9.6740 O.2     1  UNL1       -0.2670
     12  C         21.4880  -21.7240  -11.7200 C.2     1  UNL1        0.2560
     13  O         21.5390  -21.0330  -12.7290 O.2     1  UNL1       -0.2670
     14  N         22.5550  -22.2700  -11.0300 N.am    1  UNL1       -0.3230
     15  H         22.3590  -22.7110  -10.1410 H       1  UNL1        0.1690
     16  C         23.9210  -22.2090  -11.3830 C.2     1  UNL1        0.0360
     17  C         24.8530  -21.3790  -10.7540 C.2     1  UNL1        0.0290
     18  C         26.1910  -21.3720  -11.1650 C.2     1  UNL1        0.0030
     19  C         26.6090  -22.1920  -12.2110 C.2     1  UNL1        0.0180
     20  C         25.6850  -23.0170  -12.8440 C.2     1  UNL1        0.0080
     21  I         26.2960  -24.2440  -14.4070 I       1  UNL1       -0.0450
     22  C         24.3470  -23.0290  -12.4360 C.2     1  UNL1        0.0470
     23  C         15.9670  -24.3880   -7.5140 C.3     1  UNL1        0.1750
     24  C         15.8760  -23.6570   -6.2030 C.2     1  UNL1       -0.0220
     25  C         14.8310  -22.7690   -5.9320 C.2     1  UNL1        0.0120
     26  C         14.7960  -22.0950   -4.7150 C.2     1  UNL1        0.0200
     27  C         15.8160  -22.3270   -3.8080 C.2     1  UNL1        0.1160
     28  N         16.8480  -23.1660   -4.0390 N.2     1  UNL1       -0.2730
     29  C         16.8600  -23.8070   -5.2290 C.2     1  UNL1        0.1240
@<TRIPOS>BOND
     1    21    20    1
     2    20    22    1
     3    20    19    2
     4    13    12    2
     5    22    16    2
     6    19    18    1
     7     2     3    1
     8     2     1    2
     9    12     1    1
    10    12    14   am
    11    16    14    1
    12    16    17    1
    13     3     4    2
    14    18    17    2
    15     1     6    1
    16    14    15    1
    17     4     5    1
    18     4    10    1
    19     6     5    2
    20    11    10    2
    21     5     7    1
    22    10     9   am
    23     7     9   am
    24     7     8    2
    25     9    23    1
    26    23    24    1
    27    24    25    2
    28    24    29    1
    29    25    26    1
    30    29    28    2
    31    26    27    2
    32    28    27    1
