@<TRIPOS>MOLECULE
11237_out_ligand_01.pdbqt
 33 35 0 0 0
SMALL
GASTEIGER

@<TRIPOS>ATOM
      1  C         19.8260  -21.8390  -11.3180 C.2     1  UNL1        0.0330
      2  C         18.7210  -21.2680  -11.9510 C.2     1  UNL1        0.0170
      3  C         17.4440  -21.4350  -11.4070 C.2     1  UNL1        0.0090
      4  C         17.2380  -22.1840  -10.2330 C.2     1  UNL1       -0.0390
      5  C         15.8310  -22.3170   -9.7210 C.3     1  UNL1        0.0500
      6  C         18.3580  -22.7730   -9.6170 C.2     1  UNL1        0.0860
      7  C         19.6450  -22.5870  -10.1510 C.2     1  UNL1        0.0420
      8  C         21.1990  -21.7280  -11.8790 C.2     1  UNL1        0.2560
      9  N         22.1520  -22.4880  -11.2370 N.am    1  UNL1       -0.3200
     10  H         21.8500  -23.1390  -10.5190 H       1  UNL1        0.1690
     11  O         21.3590  -21.0060  -12.8560 O.2     1  UNL1       -0.2670
     12  C         23.5370  -22.5650  -11.5080 C.2     1  UNL1        0.0710
     13  C         24.3900  -21.8160  -10.6710 C.2     1  UNL1        0.0950
     14  C         25.7690  -21.8450  -10.8880 C.2     1  UNL1        0.0420
     15  C         26.3040  -22.6130  -11.9280 C.2     1  UNL1        0.0390
     16  C         25.4640  -23.3520  -12.7610 C.2     1  UNL1        0.0700
     17  C         24.0830  -23.3230  -12.5460 C.2     1  UNL1        0.0690
     18  O         23.7630  -21.0930   -9.6810 O.2     1  UNL1       -0.3540
     19  C         23.1180  -21.8340   -8.6510 C.3     1  UNL1        0.2100
     20  O         25.8650  -24.1320  -13.8110 O.2     1  UNL1       -0.3560
     21  C         25.3150  -23.8360  -15.0880 C.3     1  UNL1        0.2100
     22  S         18.2760  -23.7900   -8.1440 S.O2    1  UNL1        0.2630
     23  O         16.9780  -24.4320   -8.1560 O.2     1  UNL1       -0.2000
     24  O         19.4840  -24.5750   -8.0120 O.2     1  UNL1       -0.2000
     25  N         18.2300  -22.6480   -6.8980 N.pl3   1  UNL1       -0.2810
     26  H         19.1620  -22.4290   -6.5460 H       1  UNL1        0.1790
     27  C         17.1640  -22.6910   -5.9560 C.2     1  UNL1        0.0430
     28  C         17.3460  -23.3910   -4.7620 C.2     1  UNL1        0.0300
     29  C         16.3000  -23.4850   -3.8450 C.2     1  UNL1        0.0030
     30  C         15.0760  -22.8730   -4.1170 C.2     1  UNL1        0.0070
     31  C         14.8910  -22.1500   -5.3020 C.2     1  UNL1       -0.0600
     32  C         13.5680  -21.5140   -5.6100 C.3     1  UNL1        0.0480
     33  C         15.9420  -22.0740   -6.2250 C.2     1  UNL1        0.0370
@<TRIPOS>BOND
     1    21    20    1
     2    20    16    1
     3    11     8    2
     4    16    17    1
     5    16    15    2
     6    17    12    2
     7     2     3    1
     8     2     1    2
     9    15    14    1
    10     8     1    1
    11     8     9   am
    12    12     9    1
    13    12    13    1
    14     3     4    2
    15     1     7    1
    16     9    10    1
    17    14    13    2
    18    13    18    1
    19     4     5    1
    20     4     6    1
    21     7     6    2
    22    18    19    1
    23     6    22    1
    24    23    22    2
    25    22    24    2
    26    22    25    1
    27    25    26    1
    28    25    27    1
    29    33    27    2
    30    33    31    1
    31    27    28    1
    32    32    31    1
    33    31    30    2
    34    28    29    2
    35    30    29    1
