@<TRIPOS>MOLECULE
11235_out_ligand_01.pdbqt
 33 35 0 0 0
SMALL
GASTEIGER

@<TRIPOS>ATOM
      1  C         17.4460  -23.0740   -9.0260 C.2     1  UNL1        0.0860
      2  C         18.8400  -23.0250   -9.1940 C.2     1  UNL1        0.0420
      3  C         19.3970  -22.2800  -10.2360 C.2     1  UNL1        0.0330
      4  C         18.5670  -21.5370  -11.0800 C.2     1  UNL1        0.0170
      5  C         17.1820  -21.5660  -10.8970 C.2     1  UNL1        0.0090
      6  C         16.5960  -22.3410   -9.8780 C.2     1  UNL1       -0.0390
      7  C         15.1000  -22.3050   -9.7370 C.3     1  UNL1        0.0500
      8  S         16.8260  -24.0820   -7.6810 S.O2    1  UNL1        0.2630
      9  O         17.9540  -24.6800   -6.9990 O.2     1  UNL1       -0.2000
     10  O         15.7580  -24.9160   -8.1930 O.2     1  UNL1       -0.2000
     11  N         16.1810  -22.9410   -6.6190 N.pl3   1  UNL1       -0.2800
     12  H         15.1840  -23.0690   -6.4670 H       1  UNL1        0.1790
     13  C         16.9760  -22.3800   -5.5750 C.2     1  UNL1        0.0490
     14  C         16.6930  -22.6840   -4.2310 C.2     1  UNL1       -0.0350
     15  C         17.5170  -22.1500   -3.2280 C.2     1  UNL1        0.0090
     16  C         15.5590  -23.5850   -3.8290 C.3     1  UNL1        0.0500
     17  C         18.5880  -21.3140   -3.5500 C.2     1  UNL1        0.0070
     18  C         18.8450  -20.9780   -4.8800 C.2     1  UNL1       -0.0600
     19  C         20.0080  -20.1000   -5.2350 C.3     1  UNL1        0.0480
     20  C         18.0330  -21.5180   -5.8870 C.2     1  UNL1        0.0370
     21  C         20.8750  -22.2820  -10.4030 C.2     1  UNL1        0.2560
     22  O         21.5700  -22.3280   -9.3950 O.2     1  UNL1       -0.2670
     23  N         21.3040  -22.2770  -11.7180 N.am    1  UNL1       -0.3230
     24  H         20.5940  -22.3740  -12.4320 H       1  UNL1        0.1690
     25  C         22.6360  -22.2720  -12.1800 C.2     1  UNL1        0.0350
     26  C         23.6490  -23.0690  -11.6510 C.2     1  UNL1        0.0300
     27  C         24.9480  -23.0100  -12.1740 C.2     1  UNL1        0.0100
     28  C         25.2600  -22.1530  -13.2370 C.2     1  UNL1       -0.0550
     29  C         24.2420  -21.3440  -13.7550 C.2     1  UNL1        0.0100
     30  C         22.9460  -21.4010  -13.2320 C.2     1  UNL1        0.0300
     31  C         26.6580  -22.0860  -13.8240 C.3     1  UNL1        0.0100
     32  C         26.8930  -20.7790  -14.5850 C.3     1  UNL1        0.0150
     33  C         26.9500  -23.2940  -14.7150 C.3     1  UNL1        0.0150
@<TRIPOS>BOND
     1    33    31    1
     2    32    31    1
     3    31    28    1
     4    29    28    2
     5    29    30    1
     6    28    27    1
     7    30    25    2
     8    24    23    1
     9    25    23    1
    10    25    26    1
    11    27    26    2
    12    23    21   am
    13     4     5    2
    14     4     3    1
    15     5     6    1
    16    21     3    1
    17    21    22    2
    18     3     2    2
    19     6     7    1
    20     6     1    2
    21     2     1    1
    22     1     8    1
    23    10     8    2
    24     8     9    2
    25     8    11    1
    26    11    12    1
    27    11    13    1
    28    20    13    2
    29    20    18    1
    30    13    14    1
    31    19    18    1
    32    18    17    2
    33    14    16    1
    34    14    15    2
    35    17    15    1
