@<TRIPOS>MOLECULE
11241_out_ligand_01.pdbqt
 31 33 0 0 0
SMALL
GASTEIGER

@<TRIPOS>ATOM
      1  C         19.5240  -22.7640   -9.9610 C.2     1  UNL1        0.0330
      2  C         18.7960  -21.9730  -10.8540 C.2     1  UNL1        0.0170
      3  C         17.4080  -21.8690  -10.7230 C.2     1  UNL1        0.0090
      4  C         16.7190  -22.5410   -9.6970 C.2     1  UNL1       -0.0390
      5  C         15.2250  -22.3870   -9.6330 C.3     1  UNL1        0.0500
      6  C         17.4620  -23.3510   -8.8140 C.2     1  UNL1        0.0860
      7  C         18.8550  -23.4730   -8.9610 C.2     1  UNL1        0.0420
      8  S         16.7020  -24.2770   -7.4820 S.O2    1  UNL1        0.2630
      9  O         15.5410  -24.9650   -8.0040 O.2     1  UNL1       -0.2000
     10  O         17.7400  -25.0180   -6.7980 O.2     1  UNL1       -0.2000
     11  N         16.1170  -23.0660   -6.4640 N.pl3   1  UNL1       -0.2800
     12  H         15.4110  -22.4860   -6.9110 H       1  UNL1        0.1790
     13  C         16.9590  -22.4830   -5.4700 C.2     1  UNL1        0.0490
     14  C         18.0210  -21.6570   -5.8540 C.2     1  UNL1        0.0370
     15  C         18.8390  -21.0410   -4.8990 C.2     1  UNL1       -0.0600
     16  C         19.9420  -20.1170   -5.3220 C.3     1  UNL1        0.0480
     17  C         18.5770  -21.2560   -3.5440 C.2     1  UNL1        0.0070
     18  C         17.5350  -22.0990   -3.1530 C.2     1  UNL1        0.0090
     19  C         16.7200  -22.7300   -4.1070 C.2     1  UNL1       -0.0350
     20  C         15.6090  -23.6230   -3.6330 C.3     1  UNL1        0.0500
     21  C         21.0030  -22.8990  -10.0640 C.2     1  UNL1        0.2560
     22  N         21.6090  -21.9790  -10.9000 N.am    1  UNL1       -0.3230
     23  H         21.0250  -21.2450  -11.2770 H       1  UNL1        0.1690
     24  O         21.5520  -23.7670   -9.3980 O.2     1  UNL1       -0.2670
     25  C         22.9810  -21.8870  -11.2210 C.2     1  UNL1        0.0350
     26  C         23.3530  -22.1910  -12.5360 C.2     1  UNL1        0.0300
     27  C         24.6910  -22.1310  -12.9330 C.2     1  UNL1        0.0090
     28  C         25.6860  -21.7770  -12.0180 C.2     1  UNL1       -0.0620
     29  C         27.1200  -21.6760  -12.4450 C.3     1  UNL1        0.0480
     30  C         25.3130  -21.4610  -10.7080 C.2     1  UNL1        0.0090
     31  C         23.9730  -21.5220  -10.3110 C.2     1  UNL1        0.0300
@<TRIPOS>BOND
     1    27    26    1
     2    27    28    2
     3    26    25    2
     4    29    28    1
     5    28    30    1
     6    23    22    1
     7    25    22    1
     8    25    31    1
     9    22    21   am
    10     2     3    1
    11     2     1    2
    12     3     4    2
    13    30    31    2
    14    21     1    1
    15    21    24    2
    16     1     7    1
    17     4     5    1
    18     4     6    1
    19     7     6    2
    20     6     8    1
    21     9     8    2
    22     8    10    2
    23     8    11    1
    24    12    11    1
    25    11    13    1
    26    14    13    2
    27    14    15    1
    28    13    19    1
    29    16    15    1
    30    15    17    2
    31    19    20    1
    32    19    18    2
    33    17    18    1
