@<TRIPOS>MOLECULE
11240_out_ligand_01.pdbqt
 31 34 0 0 0
SMALL
GASTEIGER

@<TRIPOS>ATOM
      1  C         23.6540  -21.7420  -12.8880 C.2     1  UNL1        0.0540
      2  C         24.5500  -21.0730  -13.7350 C.2     1  UNL1        0.0190
      3  C         25.9190  -21.3330  -13.6460 C.2     1  UNL1        0.0010
      4  C         26.3960  -22.2610  -12.7210 C.2     1  UNL1        0.0020
      5  C         25.5080  -22.9380  -11.8820 C.2     1  UNL1        0.0250
      6  C         24.1360  -22.6910  -11.9690 C.2     1  UNL1        0.0380
      7  N         23.2610  -23.3410  -11.0340 N.pl3   1  UNL1       -0.1800
      8  H         22.2620  -23.2360  -11.2700 H       1  UNL1        0.1460
      9  S         23.4550  -22.9020   -9.4030 S.O2    1  UNL1        0.2450
     10  O         23.5830  -21.4610   -9.3640 O.2     1  UNL1       -0.2060
     11  O         24.4450  -23.7630   -8.7900 O.2     1  UNL1       -0.2060
     12  C         21.8620  -23.2940   -8.7240 C.2     1  UNL1        0.0750
     13  C         21.3040  -24.5480   -8.9750 C.2     1  UNL1        0.0260
     14  C         20.0550  -24.8630   -8.4390 C.2     1  UNL1        0.0140
     15  C         19.3540  -23.9280   -7.6570 C.2     1  UNL1       -0.0260
     16  C         18.0980  -24.2330   -7.1090 C.2     1  UNL1        0.0120
     17  C         19.9210  -22.6530   -7.4170 C.2     1  UNL1       -0.0250
     18  C         17.4100  -23.2960   -6.3360 C.2     1  UNL1        0.0010
     19  C         17.9670  -22.0420   -6.1020 C.2     1  UNL1        0.0010
     20  C         19.2150  -21.7220   -6.6390 C.2     1  UNL1        0.0120
     21  C         21.1760  -22.3430   -7.9610 C.2     1  UNL1        0.0370
     22  C         22.1940  -21.4900  -12.9890 C.2     1  UNL1        0.2530
     23  O         21.7380  -20.9830  -14.0100 O.2     1  UNL1       -0.2680
     24  N         21.4310  -21.8900  -11.9130 N.am    1  UNL1       -0.3520
     25  H         21.8560  -22.4820  -11.2120 H       1  UNL1        0.1630
     26  C         19.9780  -21.7730  -11.9220 C.3     1  UNL1        0.0840
     27  C         19.3480  -22.8910  -11.0840 C.3     1  UNL1        0.0250
     28  C         17.8280  -22.7680  -11.0280 C.3     1  UNL1        0.0020
     29  C         17.3950  -21.3950  -10.5230 C.3     1  UNL1        0.0000
     30  C         18.0190  -20.2730  -11.3450 C.3     1  UNL1        0.0020
     31  C         19.5390  -20.3950  -11.4070 C.3     1  UNL1        0.0250
@<TRIPOS>BOND
     1    23    22    2
     2     2     3    1
     3     2     1    2
     4     3     4    2
     5    22     1    1
     6    22    24   am
     7     1     6    1
     8     4     5    1
     9     6     5    2
    10     6     7    1
    11    26    24    1
    12    26    31    1
    13    26    27    1
    14    24    25    1
    15    31    30    1
    16    30    29    1
    17     8     7    1
    18    27    28    1
    19     7     9    1
    20    28    29    1
    21     9    10    2
    22     9    11    2
    23     9    12    1
    24    13    12    2
    25    13    14    1
    26    12    21    1
    27    14    15    2
    28    21    17    2
    29    15    17    1
    30    15    16    1
    31    17    20    1
    32    16    18    2
    33    20    19    2
    34    18    19    1
