@<TRIPOS>MOLECULE
11244_out_ligand_01.pdbqt
 32 34 0 0 0
SMALL
GASTEIGER

@<TRIPOS>ATOM
      1  C         20.2780  -22.6850  -10.0480 C.2     1  UNL1        0.0330
      2  C         20.9620  -23.5760   -9.2150 C.2     1  UNL1        0.0170
      3  C         20.2630  -24.3070   -8.2520 C.2     1  UNL1        0.0090
      4  C         18.8740  -24.1540   -8.0850 C.2     1  UNL1       -0.0390
      5  C         18.1950  -24.9870   -7.0350 C.3     1  UNL1        0.0500
      6  C         18.1980  -23.2440   -8.9220 C.2     1  UNL1        0.0860
      7  C         18.9000  -22.5150   -9.8970 C.2     1  UNL1        0.0420
      8  S         16.4270  -22.9850   -8.8340 S.O2    1  UNL1        0.2630
      9  O         15.8160  -24.1850   -8.3030 O.2     1  UNL1       -0.2000
     10  O         15.9880  -22.4540  -10.1080 O.2     1  UNL1       -0.2000
     11  N         16.2630  -21.8010   -7.6450 N.pl3   1  UNL1       -0.2800
     12  H         15.6960  -21.0130   -7.9440 H       1  UNL1        0.1790
     13  C         16.2820  -22.1640   -6.2650 C.2     1  UNL1        0.0490
     14  C         15.1230  -22.7090   -5.7030 C.2     1  UNL1        0.0310
     15  C         15.0710  -23.0060   -4.3460 C.2     1  UNL1        0.0030
     16  C         16.1770  -22.7570   -3.5410 C.2     1  UNL1        0.0070
     17  C         17.3550  -22.2180   -4.0820 C.2     1  UNL1       -0.0540
     18  C         18.5080  -21.9480   -3.1530 C.3     1  UNL1        0.0490
     19  C         17.4270  -21.9430   -5.4710 C.2     1  UNL1       -0.0290
     20  C         18.6860  -21.3510   -6.0520 C.3     1  UNL1        0.0510
     21  C         20.9900  -21.8790  -11.0800 C.2     1  UNL1        0.2560
     22  N         22.2120  -22.3940  -11.4710 N.am    1  UNL1       -0.3230
     23  H         22.4600  -23.3080  -11.1160 H       1  UNL1        0.1690
     24  O         20.4390  -20.8720  -11.5040 O.2     1  UNL1       -0.2670
     25  C         23.1220  -21.8320  -12.3910 C.2     1  UNL1        0.0350
     26  C         22.7620  -21.3420  -13.6420 C.2     1  UNL1        0.0300
     27  C         23.7290  -20.7980  -14.4950 C.2     1  UNL1        0.0090
     28  C         25.0760  -20.7310  -14.1120 C.2     1  UNL1       -0.0560
     29  C         26.0810  -20.1380  -15.0610 C.3     1  UNL1        0.0490
     30  C         25.4480  -21.2050  -12.8410 C.2     1  UNL1       -0.0540
     31  C         24.4660  -21.7600  -12.0010 C.2     1  UNL1        0.0370
     32  C         26.8780  -21.1660  -12.3770 C.3     1  UNL1        0.0490
@<TRIPOS>BOND
     1    29    28    1
     2    27    28    2
     3    27    26    1
     4    28    30    1
     5    26    25    2
     6    30    32    1
     7    30    31    2
     8    25    31    1
     9    25    22    1
    10    24    21    2
    11    22    23    1
    12    22    21   am
    13    21     1    1
    14    10     8    2
    15     1     7    2
    16     1     2    1
    17     7     6    1
    18     2     3    2
    19     6     8    1
    20     6     4    2
    21     8     9    2
    22     8    11    1
    23     3     4    1
    24     4     5    1
    25    12    11    1
    26    11    13    1
    27    13    14    2
    28    13    19    1
    29    20    19    1
    30    14    15    1
    31    19    17    2
    32    15    16    2
    33    17    16    1
    34    17    18    1
