@<TRIPOS>MOLECULE
11502_out_ligand_01.pdbqt
 37 40 0 0 0
SMALL
GASTEIGER

@<TRIPOS>ATOM
      1  C         22.8290  -22.6190  -11.2330 C.ar    1  UNL1        0.1530
      2  N         22.3010  -23.0680  -10.1080 N.ar    1  UNL1       -0.1320
      3  N         21.0140  -22.6210  -10.0200 N.ar    1  UNL1       -0.1220
      4  C         20.7640  -21.9160  -11.0950 C.ar    1  UNL1        0.1910
      5  N         21.8760  -21.8600  -11.8870 N.ar    1  UNL1       -0.3140
      6  C         22.0200  -21.1560  -13.1340 C.3     1  UNL1        0.1600
      7  S         19.2600  -21.1440  -11.4420 S.3     1  UNL1       -0.0810
      8  C         18.1160  -22.5460  -11.2880 C.3     1  UNL1        0.1850
      9  C         17.2390  -22.4040  -10.0550 C.2     1  UNL1        0.2310
     10  O         16.1620  -21.8150  -10.1430 O.2     1  UNL1       -0.2720
     11  N         17.7600  -23.0150   -8.9240 N.am    1  UNL1       -0.3260
     12  H         18.6990  -23.3890   -9.0240 H       1  UNL1        0.1690
     13  C         17.1430  -23.1790   -7.6520 C.2     1  UNL1        0.0450
     14  C         16.0480  -24.0410   -7.4840 C.2     1  UNL1        0.0300
     15  C         15.4680  -24.2370   -6.2330 C.2     1  UNL1        0.0030
     16  C         15.9710  -23.5720   -5.1220 C.2     1  UNL1        0.0120
     17  C         17.0550  -22.6970   -5.2430 C.2     1  UNL1       -0.0240
     18  C         17.5400  -22.0440   -4.0930 C.2     1  UNL1        0.0120
     19  C         17.6610  -22.4780   -6.5130 C.2     1  UNL1        0.0010
     20  C         18.6200  -21.1690   -4.1630 C.2     1  UNL1        0.0010
     21  C         19.2220  -20.9240   -5.3880 C.2     1  UNL1        0.0010
     22  C         18.7500  -21.5660   -6.5400 C.2     1  UNL1        0.0140
     23  C         24.2310  -22.9350  -11.6890 C.3     1  UNL1        0.1600
     24  C         25.3460  -22.4650  -10.7210 C.3     1  UNL1        0.0080
     25  C         25.8760  -21.0750  -11.0940 C.3     1  UNL1        0.0120
     26  C         26.5250  -23.4460  -10.6920 C.3     1  UNL1        0.0120
     27  N         24.3790  -22.3910  -13.0340 N.am    1  UNL1       -0.3450
     28  C         24.9380  -23.1210  -14.0610 C.2     1  UNL1        0.2540
     29  O         25.4850  -24.2040  -13.8690 O.2     1  UNL1       -0.2680
     30  H         23.8920  -21.5380  -13.2690 H       1  UNL1        0.1630
     31  C         24.8990  -22.5540  -15.4470 C.2     1  UNL1        0.0530
     32  C         24.6070  -23.4790  -16.4700 C.2     1  UNL1        0.0190
     33  C         24.5380  -23.0840  -17.8100 C.2     1  UNL1        0.0010
     34  C         24.7470  -21.7550  -18.1530 C.2     1  UNL1        0.0020
     35  C         25.0250  -20.8210  -17.1520 C.2     1  UNL1        0.0250
     36  C         25.1030  -21.2110  -15.8040 C.2     1  UNL1        0.0490
     37 CL         25.4270  -19.9410  -14.6660 Cl      1  UNL1       -0.0830
@<TRIPOS>BOND
     1    34    33    2
     2    34    35    1
     3    33    32    1
     4    35    36    2
     5    32    31    2
     6    36    31    1
     7    36    37    1
     8    31    28    1
     9    28    29    2
    10    28    27   am
    11    30    27    1
    12     6     5    1
    13    27    23    1
    14     5     1   ar
    15     5     4   ar
    16    23     1    1
    17    23    24    1
    18     7     8    1
    19     7     4    1
    20     8     9    1
    21     1     2   ar
    22     4     3   ar
    23    25    24    1
    24    24    26    1
    25    10     9    2
    26     2     3   ar
    27     9    11   am
    28    12    11    1
    29    11    13    1
    30    13    14    2
    31    13    19    1
    32    14    15    1
    33    22    19    1
    34    22    21    2
    35    19    17    2
    36    15    16    2
    37    21    20    1
    38    17    16    1
    39    17    18    1
    40    20    18    2
