@<TRIPOS>MOLECULE
1151_out_ligand_01.pdbqt
 34 37 0 0 0
SMALL
GASTEIGER

@<TRIPOS>ATOM
      1  C         19.8480  -22.1380  -10.7980 C.2     1  UNL1        0.0340
      2  C         20.2780  -21.4660  -11.9470 C.2     1  UNL1        0.0310
      3  C         21.6190  -21.5240  -12.3450 C.2     1  UNL1        0.0270
      4  C         22.5360  -22.2520  -11.5850 C.2     1  UNL1        0.0750
      5  C         22.1200  -22.9400  -10.4450 C.2     1  UNL1        0.0270
      6  C         20.7800  -22.8750  -10.0530 C.2     1  UNL1        0.0310
      7  N         18.5220  -22.1170  -10.3210 N.am    1  UNL1       -0.3270
      8  C         17.4100  -21.5640  -10.9400 C.2     1  UNL1        0.2260
      9  O         17.3770  -21.0580  -12.0580 O.2     1  UNL1       -0.2730
     10  H         18.3740  -22.5610   -9.4240 H       1  UNL1        0.1690
     11  C         16.1560  -21.6350  -10.0760 C.3     1  UNL1        0.1440
     12  C         16.2250  -22.7570   -9.1010 C.2     1  UNL1       -0.0140
     13  C         15.7760  -24.0490   -9.2990 C.2     1  UNL1        0.1510
     14  O         16.0080  -24.8200   -8.2080 O.2     1  UNL1       -0.3210
     15  C         16.6030  -24.0250   -7.2790 C.2     1  UNL1        0.0850
     16  C         16.9950  -24.4290   -6.0070 C.2     1  UNL1        0.0390
     17  C         16.7640  -22.7380   -7.7750 C.2     1  UNL1        0.0070
     18  C         17.5840  -23.4540   -5.1930 C.2     1  UNL1        0.0100
     19  C         17.7740  -22.1340   -5.6380 C.2     1  UNL1       -0.0540
     20  C         17.3620  -21.7750   -6.9390 C.2     1  UNL1        0.0220
     21  C         18.4000  -21.0790   -4.7380 C.3     1  UNL1        0.0100
     22  C         19.7200  -20.5560   -5.3100 C.3     1  UNL1        0.0150
     23  C         18.5910  -21.6050   -3.3130 C.3     1  UNL1        0.0150
     24  S         24.2270  -22.3520  -12.1170 S.O2    1  UNL1        0.2480
     25  O         25.0860  -21.8150  -11.0810 O.2     1  UNL1       -0.2050
     26  O         24.4270  -23.7090  -12.5930 O.2     1  UNL1       -0.2050
     27  N         24.2750  -21.3840  -13.4650 N.pl3   1  UNL1       -0.1480
     28  H         23.3880  -20.9410  -13.6770 H       1  UNL1        0.1490
     29  C         24.9150  -21.8910  -14.5880 C.cat   1  UNL1        0.2150
     30  N         24.0760  -22.2020  -15.5810 N.2     1  UNL1       -0.2300
     31  C         24.6590  -22.5820  -16.7330 C.2     1  UNL1        0.1210
     32  C         26.0230  -22.6160  -16.9180 C.2     1  UNL1        0.0390
     33  C         26.7760  -22.2220  -15.8360 C.2     1  UNL1        0.1210
     34  N         26.2460  -21.8360  -14.6610 N.2     1  UNL1       -0.2300
@<TRIPOS>BOND
     1    32    31    2
     2    32    33    1
     3    31    30    1
     4    33    34    2
     5    30    29    2
     6    34    29    1
     7    29    27    1
     8    28    27    1
     9    27    24    1
    10    26    24    2
    11     3     2    1
    12     3     4    2
    13    24     4    1
    14    24    25    2
    15     9     8    2
    16     2     1    2
    17     4     5    1
    18     8     7   am
    19     8    11    1
    20     1     7    1
    21     1     6    1
    22     5     6    2
    23     7    10    1
    24    11    12    1
    25    13    12    2
    26    13    14    1
    27    12    17    1
    28    14    15    1
    29    17    15    2
    30    17    20    1
    31    15    16    1
    32    20    19    2
    33    16    18    2
    34    19    18    1
    35    19    21    1
    36    22    21    1
    37    21    23    1
