@<TRIPOS>MOLECULE
11547_out_ligand_01.pdbqt
 28 30 0 0 0
SMALL
GASTEIGER

@<TRIPOS>ATOM
      1  C         20.8350  -24.5710   -8.7720 C.3     1  UNL1        0.0370
      2  C         20.3110  -23.2680   -9.3750 C.3     1  UNL1        0.1110
      3  N         18.9370  -23.4450   -9.8440 N.am    1  UNL1       -0.3720
      4  H         18.8060  -23.9370  -10.7210 H       1  UNL1        0.1610
      5  C         17.8060  -22.8020   -9.3920 C.2     1  UNL1        0.1080
      6  S         17.1090  -21.6280  -10.3640 S.2     1  UNL1       -0.0600
      7  C         17.2610  -23.1600   -8.0640 C.2     1  UNL1        0.0130
      8  C         16.2240  -24.1020   -8.0330 C.2     1  UNL1        0.0150
      9  C         15.6450  -24.4520   -6.8190 C.2     1  UNL1        0.0020
     10  C         16.1000  -23.8630   -5.6400 C.2     1  UNL1        0.0120
     11  C         17.1420  -22.9200   -5.6510 C.2     1  UNL1       -0.0250
     12  C         17.5870  -22.3390   -4.4520 C.2     1  UNL1        0.0120
     13  C         17.7490  -22.5540   -6.8770 C.2     1  UNL1       -0.0130
     14  C         18.6230  -21.4050   -4.4460 C.2     1  UNL1        0.0010
     15  C         19.2320  -21.0410   -5.6400 C.2     1  UNL1        0.0010
     16  C         18.8020  -21.6090   -6.8410 C.2     1  UNL1        0.0130
     17  C         21.2180  -22.7840  -10.4940 C.2     1  UNL1       -0.0360
     18  C         20.7060  -21.9280  -11.4840 C.2     1  UNL1        0.0110
     19  C         21.5180  -21.4780  -12.5260 C.2     1  UNL1        0.0250
     20  C         22.8590  -21.8710  -12.5730 C.2     1  UNL1        0.0740
     21  C         23.3860  -22.7240  -11.6040 C.2     1  UNL1        0.0250
     22  C         22.5660  -23.1770  -10.5680 C.2     1  UNL1        0.0110
     23  S         23.8820  -21.2830  -13.8950 S.O2    1  UNL1        0.2390
     24  O         24.0490  -22.3540  -14.8480 O.2     1  UNL1       -0.2060
     25  O         24.9940  -20.5560  -13.3300 O.2     1  UNL1       -0.2060
     26  N         22.8930  -20.1070  -14.5900 N.3     1  UNL1       -0.2250
     27  H         23.4550  -19.2690  -14.7590 H       1  UNL1        0.1360
     28  H         22.0700  -19.8920  -14.0290 H       1  UNL1        0.1360
@<TRIPOS>BOND
     1    24    23    2
     2    27    26    1
     3    26    28    1
     4    26    23    1
     5    23    25    2
     6    23    20    1
     7    20    19    2
     8    20    21    1
     9    19    18    1
    10    21    22    2
    11    18    17    2
    12     4     3    1
    13    22    17    1
    14    17     2    1
    15     6     5    2
    16     3     5    1
    17     3     2    1
    18     5     7    1
    19     2     1    1
    20     7     8    2
    21     7    13    1
    22     8     9    1
    23    13    16    1
    24    13    11    2
    25    16    15    2
    26     9    10    2
    27    11    10    1
    28    11    12    1
    29    15    14    1
    30    12    14    2
