@<TRIPOS>MOLECULE
11589_out_ligand_01.pdbqt
 34 37 0 0 0
SMALL
GASTEIGER

@<TRIPOS>ATOM
      1  C         21.4140  -22.3160  -11.3810 C.2     1  UNL1        0.0350
      2  C         21.1370  -21.4550  -12.4530 C.2     1  UNL1        0.0310
      3  C         22.0390  -21.3160  -13.5110 C.2     1  UNL1        0.0270
      4  C         23.2340  -22.0340  -13.4960 C.2     1  UNL1        0.0800
      5  C         23.5150  -22.9130  -12.4480 C.2     1  UNL1        0.0270
      6  C         22.6040  -23.0490  -11.3920 C.2     1  UNL1        0.0310
      7  N         20.4460  -22.3950  -10.3590 N.am    1  UNL1       -0.3210
      8  C         19.0890  -22.1170  -10.4470 C.2     1  UNL1        0.2800
      9  O         18.5070  -21.8220  -11.4860 O.2     1  UNL1       -0.2650
     10  H         20.7620  -22.7790   -9.4820 H       1  UNL1        0.1690
     11  C         18.3860  -22.2490   -9.1770 C.ar    1  UNL1        0.1500
     12  O         19.1120  -22.0010   -8.0410 O.2     1  UNL1       -0.3040
     13  C         18.2830  -22.1490   -6.9790 C.ar    1  UNL1        0.0870
     14  C         18.6460  -21.9680   -5.6470 C.2     1  UNL1        0.0450
     15  C         17.0160  -22.5100   -7.4020 C.ar    1  UNL1        0.0070
     16  C         17.6500  -22.1690   -4.6730 C.2     1  UNL1       -0.0530
     17  C         18.0120  -21.9770   -3.2240 C.3     1  UNL1        0.0490
     18  C         16.3400  -22.5340   -5.0590 C.2     1  UNL1       -0.0550
     19  C         16.0240  -22.7110   -6.4240 C.2     1  UNL1        0.0220
     20  C         15.2590  -22.7540   -4.0330 C.3     1  UNL1        0.0490
     21  C         17.0810  -22.5970   -8.8290 C.ar    1  UNL1       -0.0090
     22  C         15.9720  -23.0090   -9.7280 C.3     1  UNL1        0.0520
     23  S         24.3750  -21.8780  -14.8460 S.O2    1  UNL1        0.2640
     24  O         24.3270  -23.1140  -15.6020 O.2     1  UNL1       -0.2000
     25  O         24.1550  -20.6080  -15.5000 O.2     1  UNL1       -0.2000
     26  N         25.8580  -21.8910  -14.0610 N.pl3   1  UNL1       -0.2580
     27  H         26.5210  -22.5350  -14.4810 H       1  UNL1        0.1810
     28  C         26.3290  -20.6220  -13.5440 C.ar    1  UNL1        0.1900
     29  O         26.7860  -19.5940  -14.3070 O.2     1  UNL1       -0.1940
     30  N         27.1170  -18.5220  -13.5040 N.ar    1  UNL1       -0.1310
     31  C         26.8520  -18.9150  -12.2540 C.ar    1  UNL1        0.0680
     32  C         27.1180  -17.9940  -11.1230 C.3     1  UNL1        0.0730
     33  C         26.3390  -20.2440  -12.2180 C.ar    1  UNL1        0.0180
     34  C         25.9350  -21.0100  -11.0170 C.3     1  UNL1        0.0550
@<TRIPOS>BOND
     1    24    23    2
     2    25    23    2
     3    23    26    1
     4    23     4    1
     5    27    26    1
     6    29    28   ar
     7    29    30   ar
     8    26    28    1
     9    28    33   ar
    10     3     4    2
    11     3     2    1
    12    30    31   ar
    13     4     5    1
    14     2     1    2
    15     5     6    2
    16    31    33   ar
    17    31    32    1
    18    33    34    1
    19     9     8    2
    20     6     1    1
    21     1     7    1
    22     8     7   am
    23     8    11    1
    24     7    10    1
    25    22    21    1
    26    11    21   ar
    27    11    12   ar
    28    21    15   ar
    29    12    13   ar
    30    15    13   ar
    31    15    19    1
    32    13    14    1
    33    19    18    2
    34    14    16    2
    35    18    16    1
    36    18    20    1
    37    16    17    1
