@<TRIPOS>MOLECULE
11586_out_ligand_01.pdbqt
 34 37 0 0 0
SMALL
GASTEIGER

@<TRIPOS>ATOM
      1  C         24.2450  -21.6910  -12.2500 C.2     1  UNL1        0.0800
      2  C         24.4300  -21.7230  -10.8660 C.2     1  UNL1        0.0270
      3  C         23.3230  -21.8660  -10.0210 C.2     1  UNL1        0.0310
      4  C         22.0360  -21.9880  -10.5510 C.2     1  UNL1        0.0350
      5  C         21.8690  -21.9630  -11.9440 C.2     1  UNL1        0.0310
      6  C         22.9680  -21.8200  -12.7950 C.2     1  UNL1        0.0270
      7  N         20.8690  -22.1290   -9.7720 N.am    1  UNL1       -0.3210
      8  C         20.4100  -23.2630   -9.1170 C.2     1  UNL1        0.2800
      9  O         20.9410  -24.3670   -9.1840 O.2     1  UNL1       -0.2650
     10  H         20.2570  -21.3260   -9.7480 H       1  UNL1        0.1690
     11  C         19.1910  -23.0350   -8.3500 C.ar    1  UNL1        0.1500
     12  O         19.3090  -23.0490   -6.9850 O.2     1  UNL1       -0.3040
     13  C         18.0750  -22.8470   -6.4600 C.ar    1  UNL1        0.0870
     14  C         17.7780  -22.8080   -5.1010 C.2     1  UNL1        0.0450
     15  C         17.1430  -22.6790   -7.4690 C.ar    1  UNL1        0.0070
     16  C         16.4360  -22.5830   -4.7390 C.2     1  UNL1       -0.0530
     17  C         16.0840  -22.5350   -3.2750 C.3     1  UNL1        0.0490
     18  C         15.4510  -22.4040   -5.7350 C.2     1  UNL1       -0.0550
     19  C         14.0100  -22.1590   -5.3680 C.3     1  UNL1        0.0490
     20  C         15.8040  -22.4510   -7.1020 C.2     1  UNL1        0.0220
     21  C         17.8660  -22.7810   -8.7010 C.ar    1  UNL1       -0.0090
     22  C         17.2960  -22.6100  -10.0620 C.3     1  UNL1        0.0520
     23  S         25.6600  -21.5390  -13.3130 S.O2    1  UNL1        0.2760
     24  O         26.5890  -20.6580  -12.6320 O.2     1  UNL1       -0.2000
     25  O         26.0880  -22.8590  -13.7290 O.2     1  UNL1       -0.2000
     26  N         25.0880  -20.6840  -14.6130 N.pl3   1  UNL1       -0.1090
     27  H         25.2550  -19.6870  -14.5550 H       1  UNL1        0.1980
     28  C         25.3200  -21.2070  -15.8790 C.cat   1  UNL1        0.7360
     29  N         26.5110  -21.0330  -16.4480 N.2     1  UNL1       -0.0740
     30  C         26.7010  -21.6990  -17.6000 C.2     1  UNL1        0.1380
     31  C         25.7650  -22.5440  -18.1520 C.2     1  UNL1        0.0470
     32  C         24.5860  -22.6900  -17.4460 C.2     1  UNL1        0.0510
     33  C         23.5100  -23.6030  -17.9510 C.3     1  UNL1        0.0710
     34  N         24.3560  -22.0400  -16.2870 N.2     1  UNL1       -0.0670
@<TRIPOS>BOND
     1    31    30    2
     2    31    32    1
     3    33    32    1
     4    30    29    1
     5    32    34    2
     6    29    28    2
     7    34    28    1
     8    28    26    1
     9    26    27    1
    10    26    23    1
    11    25    23    2
    12    23    24    2
    13    23     1    1
    14     6     1    2
    15     6     5    1
    16     1     2    1
    17     5     4    2
    18     2     3    2
    19     4     3    1
    20     4     7    1
    21    22    21    1
    22     7    10    1
    23     7     8   am
    24     9     8    2
    25     8    11    1
    26    21    11   ar
    27    21    15   ar
    28    11    12   ar
    29    15    20    1
    30    15    13   ar
    31    20    18    2
    32    12    13   ar
    33    13    14    1
    34    18    19    1
    35    18    16    1
    36    14    16    2
    37    16    17    1
