@<TRIPOS>MOLECULE
11590_out_ligand_01.pdbqt
 31 34 0 0 0
SMALL
GASTEIGER

@<TRIPOS>ATOM
      1  C         20.0270  -22.1660  -10.7900 C.2     1  UNL1        0.0320
      2  C         19.7930  -21.0640  -11.6190 C.2     1  UNL1        0.0170
      3  C         18.4940  -20.5950  -11.8040 C.2     1  UNL1        0.0020
      4  C         17.4250  -21.2320  -11.1720 C.2     1  UNL1        0.0090
      5  C         17.6400  -22.3500  -10.3500 C.2     1  UNL1       -0.0400
      6  C         18.9510  -22.8190  -10.1690 C.2     1  UNL1        0.0260
      7  C         16.4710  -23.0640   -9.7220 C.3     1  UNL1        0.1610
      8  N         16.3520  -22.7260   -8.3190 N.am    1  UNL1       -0.3530
      9  C         16.3000  -23.7190   -7.3600 C.2     1  UNL1        0.2540
     10  O         16.2340  -24.9160   -7.6040 O.2     1  UNL1       -0.2680
     11  H         16.7380  -21.8340   -8.0380 H       1  UNL1        0.1630
     12  C         16.3740  -23.2470   -5.9620 C.2     1  UNL1        0.0610
     13  C         15.4060  -23.6530   -5.0330 C.2     1  UNL1        0.0190
     14  C         15.4750  -23.2390   -3.7010 C.2     1  UNL1        0.0020
     15  C         16.5070  -22.3980   -3.2640 C.2     1  UNL1        0.0150
     16  C         17.4680  -21.9580   -4.1930 C.2     1  UNL1        0.0120
     17  C         18.6090  -21.1260   -4.1640 C.2     1  UNL1        0.1520
     18  C         17.3800  -22.3810   -5.5160 C.2     1  UNL1        0.0770
     19  N         19.1910  -21.0080   -5.3610 N.2     1  UNL1       -0.1860
     20  N         18.4040  -21.7440   -6.1640 N.pl3   1  UNL1       -0.2770
     21  H         18.6190  -21.7740   -7.1560 H       1  UNL1        0.1890
     22  C         21.4260  -22.6450  -10.6180 C.2     1  UNL1        0.2560
     23  O         21.6400  -23.5230   -9.7920 O.2     1  UNL1       -0.2670
     24  N         22.3440  -22.0460  -11.4620 N.am    1  UNL1       -0.3230
     25  H         21.9750  -21.4430  -12.1850 H       1  UNL1        0.1690
     26  C         23.7380  -22.2580  -11.4970 C.2     1  UNL1        0.0350
     27  C         24.6560  -21.5390  -10.7300 C.2     1  UNL1        0.0290
     28  C         26.0260  -21.8050  -10.8310 C.2     1  UNL1        0.0020
     29  C         26.4880  -22.7910  -11.7000 C.2     1  UNL1        0.0000
     30  C         25.5820  -23.5100  -12.4730 C.2     1  UNL1        0.0020
     31  C         24.2130  -23.2450  -12.3730 C.2     1  UNL1        0.0290
@<TRIPOS>BOND
     1    30    31    1
     2    30    29    2
     3    31    26    2
     4    25    24    1
     5     3     2    1
     6     3     4    2
     7    29    28    1
     8     2     1    2
     9    26    24    1
    10    26    27    1
    11    24    22   am
    12     4     5    1
    13    28    27    2
    14     1    22    1
    15     1     6    1
    16    22    23    2
    17     5     6    2
    18     5     7    1
    19     7     8    1
    20     8    11    1
    21     8     9   am
    22    10     9    2
    23     9    12    1
    24    21    20    1
    25    20    18    1
    26    20    19    1
    27    12    18    2
    28    12    13    1
    29    18    16    1
    30    19    17    2
    31    13    14    2
    32    16    17    1
    33    16    15    2
    34    14    15    1
