@<TRIPOS>MOLECULE
11594_out_ligand_01.pdbqt
 35 38 0 0 0
SMALL
GASTEIGER

@<TRIPOS>ATOM
      1  C         24.4820  -21.6400  -12.0960 C.2     1  UNL1        0.0750
      2  C         23.2880  -21.8350  -12.7890 C.2     1  UNL1        0.0270
      3  C         22.0880  -21.9800  -12.0840 C.2     1  UNL1        0.0310
      4  C         22.0790  -21.9460  -10.6870 C.2     1  UNL1        0.0350
      5  C         23.2920  -21.7760  -10.0020 C.2     1  UNL1        0.0310
      6  C         24.4930  -21.6230  -10.7000 C.2     1  UNL1        0.0270
      7  N         20.9160  -22.0920   -9.9030 N.am    1  UNL1       -0.3210
      8  C         20.5320  -23.1880   -9.1430 C.2     1  UNL1        0.2800
      9  O         21.1310  -24.2590   -9.1180 O.2     1  UNL1       -0.2650
     10  H         20.2420  -21.3430   -9.9690 H       1  UNL1        0.1690
     11  C         19.3010  -22.9700   -8.3950 C.ar    1  UNL1        0.1500
     12  O         19.3970  -22.9840   -7.0280 O.2     1  UNL1       -0.3040
     13  C         18.1530  -22.7890   -6.5230 C.ar    1  UNL1        0.0870
     14  C         17.8330  -22.7520   -5.1690 C.2     1  UNL1        0.0450
     15  C         17.2370  -22.6310   -7.5480 C.ar    1  UNL1        0.0070
     16  C         16.4850  -22.5380   -4.8300 C.2     1  UNL1       -0.0530
     17  C         16.1070  -22.4920   -3.3730 C.3     1  UNL1        0.0490
     18  C         15.5140  -22.3670   -5.8420 C.2     1  UNL1       -0.0550
     19  C         14.0660  -22.1320   -5.5000 C.3     1  UNL1        0.0490
     20  C         15.8900  -22.4120   -7.2030 C.2     1  UNL1        0.0220
     21  C         17.9800  -22.7280   -8.7680 C.ar    1  UNL1       -0.0090
     22  C         17.4310  -22.5650  -10.1390 C.3     1  UNL1        0.0520
     23  S         26.0130  -21.4740  -12.9810 S.O2    1  UNL1        0.2480
     24  O         25.8990  -20.2560  -13.7610 O.2     1  UNL1       -0.2050
     25  O         27.1210  -21.6450  -12.0660 O.2     1  UNL1       -0.2050
     26  N         25.9790  -22.7190  -14.0810 N.pl3   1  UNL1       -0.1480
     27  H         25.4800  -23.5360  -13.7520 H       1  UNL1        0.1490
     28  C         25.6720  -22.3920  -15.3960 C.cat   1  UNL1        0.2160
     29  N         24.6880  -23.1340  -15.9100 N.2     1  UNL1       -0.2230
     30  C         24.4460  -22.9570  -17.2250 C.2     1  UNL1        0.0360
     31  C         25.1970  -22.0990  -18.0080 C.2     1  UNL1        0.0530
     32  C         23.3220  -23.7420  -17.8320 C.3     1  UNL1        0.0700
     33  C         26.2270  -21.4250  -17.3780 C.2     1  UNL1        0.0360
     34  C         27.1080  -20.4910  -18.1510 C.3     1  UNL1        0.0700
     35  N         26.4910  -21.5820  -16.0680 N.2     1  UNL1       -0.2230
@<TRIPOS>BOND
     1    34    33    1
     2    31    33    1
     3    31    30    2
     4    32    30    1
     5    33    35    2
     6    30    29    1
     7    35    28    1
     8    29    28    2
     9    28    26    1
    10    26    27    1
    11    26    23    1
    12    24    23    2
    13    23     1    1
    14    23    25    2
    15     2     1    2
    16     2     3    1
    17     1     6    1
    18     3     4    2
    19     6     5    2
    20     4     5    1
    21     4     7    1
    22    22    21    1
    23    10     7    1
    24     7     8   am
    25     8     9    2
    26     8    11    1
    27    21    11   ar
    28    21    15   ar
    29    11    12   ar
    30    15    20    1
    31    15    13   ar
    32    20    18    2
    33    12    13   ar
    34    13    14    1
    35    18    19    1
    36    18    16    1
    37    14    16    2
    38    16    17    1
