@<TRIPOS>MOLECULE
11601_out_ligand_01.pdbqt
 28 30 0 0 0
SMALL
GASTEIGER

@<TRIPOS>ATOM
      1  C         20.1330  -23.3780   -9.2860 C.2     1  UNL1        0.2800
      2  O         20.0770  -24.5550   -8.9440 O.2     1  UNL1       -0.2650
      3  N         19.3920  -22.3480   -8.7330 N.am    1  UNL1       -0.3210
      4  H         19.5670  -21.4390   -9.1490 H       1  UNL1        0.1690
      5  C         21.0130  -22.9190  -10.3500 C.ar    1  UNL1        0.1500
      6  O         22.3190  -23.3390  -10.3470 O.2     1  UNL1       -0.3040
      7  C         22.9270  -22.7820  -11.4270 C.ar    1  UNL1        0.0870
      8  C         24.2620  -22.9630  -11.7790 C.2     1  UNL1        0.0450
      9  C         22.0320  -21.9990  -12.1370 C.ar    1  UNL1        0.0070
     10  C         24.7210  -22.3040  -12.9340 C.2     1  UNL1       -0.0530
     11  C         26.1610  -22.4830  -13.3420 C.3     1  UNL1        0.0490
     12  C         23.8430  -21.4960  -13.6900 C.2     1  UNL1       -0.0550
     13  C         22.4980  -21.3420  -13.2920 C.2     1  UNL1        0.0220
     14  C         24.3160  -20.7820  -14.9310 C.3     1  UNL1        0.0490
     15  C         20.7870  -22.0860  -11.4390 C.ar    1  UNL1       -0.0090
     16  C         19.5040  -21.4270  -11.7960 C.3     1  UNL1        0.0520
     17  C         18.4490  -22.4070   -7.6920 C.2     1  UNL1        0.0350
     18  C         18.7600  -22.2200   -6.3430 C.2     1  UNL1        0.0310
     19  C         17.7610  -22.2950   -5.3650 C.2     1  UNL1        0.0270
     20  C         16.4440  -22.5680   -5.7400 C.2     1  UNL1        0.0740
     21  C         16.1150  -22.7460   -7.0840 C.2     1  UNL1        0.0270
     22  C         17.1190  -22.6680   -8.0530 C.2     1  UNL1        0.0310
     23  S         15.1790  -22.6340   -4.5070 S.O2    1  UNL1        0.2390
     24  O         14.8670  -24.0140   -4.2180 O.2     1  UNL1       -0.2060
     25  O         14.1610  -21.6580   -4.8150 O.2     1  UNL1       -0.2060
     26  N         15.9840  -22.0530   -3.1530 N.3     1  UNL1       -0.2250
     27  H         16.9250  -21.7550   -3.4120 H       1  UNL1        0.1360
     28  H         15.4290  -21.3220   -2.7080 H       1  UNL1        0.1360
@<TRIPOS>BOND
     1    14    12    1
     2    12    13    2
     3    12    10    1
     4    11    10    1
     5    13     9    1
     6    10     8    2
     7     9    15   ar
     8     9     7   ar
     9    16    15    1
    10     8     7    1
    11    15     5   ar
    12     7     6   ar
    13     5     6   ar
    14     5     1    1
    15     1     2    2
    16     1     3   am
    17     4     3    1
    18     3    17    1
    19    22    17    2
    20    22    21    1
    21    17    18    1
    22    21    20    2
    23    18    19    2
    24    20    19    1
    25    20    23    1
    26    25    23    2
    27    23    24    2
    28    23    26    1
    29    27    26    1
    30    26    28    1
