@<TRIPOS>MOLECULE
11604_out_ligand_01.pdbqt
 27 29 0 0 0
SMALL
GASTEIGER

@<TRIPOS>ATOM
      1  C         19.6290  -22.5600   -9.7460 C.2     1  UNL1        0.2800
      2  O         18.5400  -22.3150  -10.2550 O.2     1  UNL1       -0.2650
      3  N         19.8030  -22.9540   -8.4260 N.am    1  UNL1       -0.3210
      4  H         20.7220  -23.2960   -8.1850 H       1  UNL1        0.1690
      5  C         18.8250  -23.0430   -7.4150 C.2     1  UNL1        0.0350
      6  C         18.6270  -22.0700   -6.4300 C.2     1  UNL1        0.0310
      7  C         17.6400  -22.2360   -5.4520 C.2     1  UNL1        0.0270
      8  C         16.8410  -23.3800   -5.4650 C.2     1  UNL1        0.0740
      9  C         17.0370  -24.3690   -6.4290 C.2     1  UNL1        0.0270
     10  C         18.0280  -24.1970   -7.4000 C.2     1  UNL1        0.0310
     11  S         15.5920  -23.5960   -4.2250 S.O2    1  UNL1        0.2390
     12  O         14.3500  -23.9280   -4.8820 O.2     1  UNL1       -0.2060
     13  O         16.1430  -24.3910   -3.1530 O.2     1  UNL1       -0.2060
     14  N         15.4530  -22.0330   -3.6150 N.3     1  UNL1       -0.2250
     15  H         14.5950  -21.8800   -3.0840 H       1  UNL1        0.1360
     16  H         15.5450  -21.3690   -4.3870 H       1  UNL1        0.1360
     17  C         20.8710  -22.5080  -10.5030 C.ar    1  UNL1        0.1500
     18  C         22.1460  -23.0350  -10.2980 C.ar    1  UNL1       -0.0090
     19  C         22.9230  -22.6450  -11.4350 C.ar    1  UNL1        0.0070
     20  C         22.6370  -23.8140   -9.1310 C.3     1  UNL1        0.0520
     21  C         24.2510  -22.8370  -11.8620 C.2     1  UNL1        0.0150
     22  C         22.0830  -21.8880  -12.2360 C.ar    1  UNL1        0.0870
     23  C         24.6620  -22.2670  -13.0780 C.2     1  UNL1        0.0070
     24  C         23.7790  -21.5200  -13.8720 C.2     1  UNL1       -0.0590
     25  C         24.2610  -20.8940  -15.1480 C.3     1  UNL1        0.0480
     26  C         22.4580  -21.3070  -13.4460 C.2     1  UNL1        0.0440
     27  O         20.8530  -21.7950  -11.6730 O.2     1  UNL1       -0.3040
@<TRIPOS>BOND
     1    25    24    1
     2    24    26    2
     3    24    23    1
     4    26    22    1
     5    23    21    2
     6    22    27   ar
     7    22    19   ar
     8    21    19    1
     9    27    17   ar
    10    19    18   ar
    11    17    18   ar
    12    17     1    1
    13    18    20    1
    14     2     1    2
    15     1     3   am
    16     3     4    1
    17     3     5    1
    18     5    10    2
    19     5     6    1
    20    10     9    1
    21     6     7    2
    22     9     8    2
    23     8     7    1
    24     8    11    1
    25    12    11    2
    26    16    14    1
    27    11    14    1
    28    11    13    2
    29    14    15    1
