@<TRIPOS>MOLECULE
11612_out_ligand_01.pdbqt
 28 31 0 0 0
SMALL
GASTEIGER

@<TRIPOS>ATOM
      1  C         20.5950  -22.8880   -8.4190 C.2     1  UNL1        0.0320
      2  C         21.5920  -22.1270   -7.7970 C.2     1  UNL1        0.0170
      3  C         22.7500  -21.7760   -8.4940 C.2     1  UNL1        0.0100
      4  C         22.9330  -22.1820   -9.8240 C.2     1  UNL1       -0.0300
      5  C         21.9360  -22.9490  -10.4420 C.2     1  UNL1        0.0100
      6  C         20.7770  -23.3060   -9.7440 C.2     1  UNL1        0.0170
      7  C         19.3890  -23.2540   -7.6220 C.2     1  UNL1        0.2520
      8  O         18.9130  -24.3820   -7.7060 O.2     1  UNL1       -0.2680
      9  N         18.8770  -22.2780   -6.7850 N.am    1  UNL1       -0.3520
     10  H         19.4630  -21.4880   -6.5590 H       1  UNL1        0.1630
     11  C         17.7670  -22.5710   -5.8770 C.3     1  UNL1        0.0840
     12  C         16.4540  -22.1770   -6.5700 C.3     1  UNL1        0.0250
     13  C         15.1810  -22.6960   -5.9070 C.3     1  UNL1        0.0020
     14  C         15.0080  -22.3310   -4.4340 C.3     1  UNL1        0.0000
     15  C         15.9570  -23.0980   -3.5210 C.3     1  UNL1        0.0000
     16  C         17.3320  -22.4620   -3.3360 C.3     1  UNL1        0.0020
     17  C         17.9690  -21.8090   -4.5590 C.3     1  UNL1        0.0250
     18  C         24.2040  -21.8160  -10.5630 C.3     1  UNL1        0.3110
     19  N         24.2630  -22.3840  -11.9190 N.3     1  UNL1        0.0970
     20  C         25.3380  -23.3830  -12.0170 C.3     1  UNL1        0.2770
     21  C         25.2700  -24.1210  -13.3610 C.3     1  UNL1        0.0690
     22  C         25.1550  -23.1810  -14.5320 C.2     1  UNL1       -0.0490
     23  C         25.4090  -23.6370  -15.8310 C.2     1  UNL1        0.0070
     24  C         24.7320  -21.8560  -14.3260 C.2     1  UNL1       -0.0240
     25  C         25.2710  -22.7750  -16.9200 C.2     1  UNL1        0.0010
     26  C         24.8710  -21.4550  -16.7190 C.2     1  UNL1        0.0010
     27  C         24.6050  -20.9970  -15.4290 C.2     1  UNL1        0.0090
     28  C         24.4800  -21.3270  -12.9290 C.3     1  UNL1        0.3110
@<TRIPOS>BOND
     1    25    26    2
     2    25    23    1
     3    26    27    1
     4    23    22    2
     5    27    24    2
     6    22    24    1
     7    22    21    1
     8    24    28    1
     9    21    20    1
    10    28    19    1
    11    20    19    1
    12    19    18    1
    13    18     4    1
    14     5     4    2
    15     5     6    1
    16     4     3    1
    17     6     1    2
    18     3     2    2
    19     1     2    1
    20     1     7    1
    21     8     7    2
    22     7     9   am
    23     9    10    1
    24     9    11    1
    25    12    13    1
    26    12    11    1
    27    13    14    1
    28    11    17    1
    29    17    16    1
    30    14    15    1
    31    15    16    1
