@<TRIPOS>MOLECULE
11610_out_ligand_01.pdbqt
 28 30 0 0 0
SMALL
GASTEIGER

@<TRIPOS>ATOM
      1  C         20.1180  -23.2490   -9.2870 C.2     1  UNL1        0.2800
      2  O         20.1150  -24.4080   -8.8850 O.2     1  UNL1       -0.2650
      3  N         19.3500  -22.2290   -8.7430 N.am    1  UNL1       -0.3210
      4  H         19.5460  -21.2980   -9.0830 H       1  UNL1        0.1690
      5  C         20.9750  -22.8140  -10.3830 C.ar    1  UNL1        0.1500
      6  O         22.2600  -23.2880  -10.3850 O.2     1  UNL1       -0.3040
      7  C         22.8990  -22.7610  -11.4560 C.ar    1  UNL1        0.0870
      8  C         24.2310  -22.9960  -11.7940 C.2     1  UNL1        0.0460
      9  C         22.0380  -21.9510  -12.1790 C.ar    1  UNL1        0.0080
     10  C         24.7260  -22.3630  -12.9490 C.2     1  UNL1       -0.0380
     11  C         26.1580  -22.5940  -13.3450 C.3     1  UNL1        0.0500
     12  C         23.8740  -21.5360  -13.7050 C.2     1  UNL1        0.0410
     13  C         22.5350  -21.3230  -13.3350 C.2     1  UNL1        0.0390
     14 CL         24.4370  -20.7380  -15.1330 Cl      1  UNL1       -0.0840
     15  C         20.7800  -21.9970  -11.4960 C.ar    1  UNL1       -0.0090
     16  C         19.5280  -21.3260  -11.9340 C.3     1  UNL1        0.0520
     17  C         18.4010  -22.3160   -7.7040 C.2     1  UNL1        0.0350
     18  C         17.0580  -22.4750   -8.0820 C.2     1  UNL1        0.0310
     19  C         16.0490  -22.5790   -7.1200 C.2     1  UNL1        0.0270
     20  C         16.3850  -22.5260   -5.7670 C.2     1  UNL1        0.0740
     21  C         17.7130  -22.3560   -5.3730 C.2     1  UNL1        0.0270
     22  C         18.7160  -22.2590   -6.3430 C.2     1  UNL1        0.0310
     23  S         15.1220  -22.6470   -4.5290 S.O2    1  UNL1        0.2390
     24  O         14.8330  -24.0450   -4.3060 O.2     1  UNL1       -0.2060
     25  O         14.0980  -21.6760   -4.8270 O.2     1  UNL1       -0.2060
     26  N         15.9460  -22.1360   -3.1530 N.3     1  UNL1       -0.2250
     27  H         16.8590  -21.7710   -3.4300 H       1  UNL1        0.1360
     28  H         15.4210  -21.4700   -2.5880 H       1  UNL1        0.1360
@<TRIPOS>BOND
     1    14    12    1
     2    12    13    2
     3    12    10    1
     4    11    10    1
     5    13     9    1
     6    10     8    2
     7     9    15   ar
     8     9     7   ar
     9    16    15    1
    10     8     7    1
    11    15     5   ar
    12     7     6   ar
    13     6     5   ar
    14     5     1    1
    15     1     2    2
    16     1     3   am
    17     4     3    1
    18     3    17    1
    19    18    17    2
    20    18    19    1
    21    17    22    1
    22    19    20    2
    23    22    21    2
    24    20    21    1
    25    20    23    1
    26    25    23    2
    27    23    24    2
    28    23    26    1
    29    27    26    1
    30    26    28    1
