@<TRIPOS>MOLECULE
11628_out_ligand_01.pdbqt
 34 37 0 0 0
SMALL
GASTEIGER

@<TRIPOS>ATOM
      1  C         24.3650  -21.7350  -12.2000 C.2     1  UNL1        0.0800
      2  C         24.5660  -21.6790  -10.8200 C.2     1  UNL1        0.0270
      3  C         23.4720  -21.7920   -9.9540 C.2     1  UNL1        0.0310
      4  C         22.1780  -21.9470  -10.4600 C.2     1  UNL1        0.0350
      5  C         21.9940  -21.9930  -11.8510 C.2     1  UNL1        0.0310
      6  C         23.0810  -21.8830  -12.7220 C.2     1  UNL1        0.0270
      7  N         21.0240  -22.0740   -9.6590 N.am    1  UNL1       -0.3210
      8  C         20.5110  -23.2230   -9.0750 C.2     1  UNL1        0.2800
      9  O         21.0490  -24.3240   -9.1200 O.2     1  UNL1       -0.2650
     10  H         20.5590  -21.2090   -9.4230 H       1  UNL1        0.1690
     11  C         19.2640  -23.0010   -8.3550 C.ar    1  UNL1        0.1500
     12  O         19.3100  -23.1210   -6.9900 O.2     1  UNL1       -0.3040
     13  C         18.0720  -22.8620   -6.5060 C.ar    1  UNL1        0.0870
     14  C         17.7180  -22.8700   -5.1580 C.2     1  UNL1        0.0460
     15  C         17.1970  -22.5850   -7.5440 C.ar    1  UNL1        0.0080
     16  C         16.3800  -22.5770   -4.8390 C.2     1  UNL1       -0.0380
     17  C         15.9620  -22.5770   -3.3940 C.3     1  UNL1        0.0500
     18  C         15.4670  -22.2940   -5.8730 C.2     1  UNL1        0.0410
     19 CL         13.8110  -21.9300   -5.5310 Cl      1  UNL1       -0.0840
     20  C         15.8580  -22.2970   -7.2230 C.2     1  UNL1        0.0390
     21  C         17.9620  -22.6940   -8.7500 C.ar    1  UNL1       -0.0090
     22  C         17.4370  -22.5390  -10.1320 C.3     1  UNL1        0.0520
     23  S         25.7580  -21.5630  -13.2900 S.O2    1  UNL1        0.2760
     24  O         26.8040  -20.8230  -12.6160 O.2     1  UNL1       -0.2000
     25  O         26.0300  -22.8870  -13.8160 O.2     1  UNL1       -0.2000
     26  N         25.1600  -20.6800  -14.5610 N.pl3   1  UNL1       -0.1090
     27  H         24.2330  -20.3050  -14.4020 H       1  UNL1        0.1980
     28  C         25.3360  -21.1950  -15.8390 C.cat   1  UNL1        0.7360
     29  N         26.5600  -20.9810  -16.3290 N.2     1  UNL1       -0.0740
     30  C         26.8200  -21.5840  -17.5020 C.2     1  UNL1        0.1380
     31  C         25.9240  -22.4020  -18.1520 C.2     1  UNL1        0.0470
     32  C         24.7090  -22.5920  -17.5230 C.2     1  UNL1        0.0510
     33  C         23.6690  -23.4800  -18.1360 C.3     1  UNL1        0.0710
     34  N         24.4080  -22.0090  -16.3460 N.2     1  UNL1       -0.0670
@<TRIPOS>BOND
     1    31    32    1
     2    31    30    2
     3    33    32    1
     4    32    34    2
     5    30    29    1
     6    34    28    1
     7    29    28    2
     8    28    26    1
     9    26    27    1
    10    26    23    1
    11    25    23    2
    12    23    24    2
    13    23     1    1
    14     6     1    2
    15     6     5    1
    16     1     2    1
    17     5     4    2
    18     2     3    2
    19     4     3    1
    20     4     7    1
    21    22    21    1
    22     7    10    1
    23     7     8   am
    24     9     8    2
    25     8    11    1
    26    21    11   ar
    27    21    15   ar
    28    11    12   ar
    29    15    20    1
    30    15    13   ar
    31    20    18    2
    32    12    13   ar
    33    13    14    1
    34    18    19    1
    35    18    16    1
    36    14    16    2
    37    16    17    1
