@<TRIPOS>MOLECULE
11622_out_ligand_01.pdbqt
 34 37 0 0 0
SMALL
GASTEIGER

@<TRIPOS>ATOM
      1  C         22.3670  -22.0560  -10.3700 C.2     1  UNL1        0.0350
      2  C         23.6390  -21.7320   -9.8930 C.2     1  UNL1        0.0310
      3  C         24.6980  -21.5150  -10.7820 C.2     1  UNL1        0.0270
      4  C         24.4840  -21.6360  -12.1560 C.2     1  UNL1        0.0750
      5  C         23.2150  -21.9460  -12.6480 C.2     1  UNL1        0.0270
      6  C         22.1630  -22.1580  -11.7540 C.2     1  UNL1        0.0310
      7  N         21.2520  -22.2890   -9.5440 N.am    1  UNL1       -0.3210
      8  C         20.9470  -23.4160   -8.8000 C.2     1  UNL1        0.2800
      9  O         21.6270  -24.4360   -8.7470 O.2     1  UNL1       -0.2650
     10  H         20.5670  -21.5430   -9.4720 H       1  UNL1        0.1690
     11  C         19.7010  -23.2730   -8.0630 C.ar    1  UNL1        0.1500
     12  O         18.6630  -24.1220   -8.3590 O.2     1  UNL1       -0.3040
     13  C         17.6250  -23.7920   -7.5460 C.ar    1  UNL1        0.0870
     14  C         16.3820  -24.4180   -7.5380 C.2     1  UNL1        0.0390
     15  C         17.9740  -22.7350   -6.7190 C.ar    1  UNL1        0.0070
     16  C         15.4410  -23.9300   -6.6250 C.2     1  UNL1        0.0100
     17  C         15.7410  -22.8670   -5.7600 C.2     1  UNL1       -0.0580
     18  C         17.0110  -22.2590   -5.8060 C.2     1  UNL1        0.0220
     19  C         19.3210  -22.3960   -7.0540 C.ar    1  UNL1       -0.0090
     20  C         20.1600  -21.3260   -6.4550 C.3     1  UNL1        0.0520
     21  C         14.6960  -22.3530   -4.7990 C.3     1  UNL1        0.0340
     22  C         13.6460  -21.5090   -5.5060 C.3     1  UNL1        0.0100
     23  S         25.8110  -21.3330  -13.2980 S.O2    1  UNL1        0.2480
     24  O         26.3790  -22.5950  -13.7230 O.2     1  UNL1       -0.2050
     25  O         26.6570  -20.3300  -12.6800 O.2     1  UNL1       -0.2050
     26  N         25.0720  -20.5750  -14.5760 N.pl3   1  UNL1       -0.1480
     27  H         25.1570  -19.5660  -14.5530 H       1  UNL1        0.1490
     28  C         25.2860  -21.1070  -15.8420 C.cat   1  UNL1        0.2150
     29  N         26.4430  -20.8680  -16.4590 N.2     1  UNL1       -0.2300
     30  C         26.6320  -21.5390  -17.6080 C.2     1  UNL1        0.1220
     31  C         25.7320  -22.4510  -18.1110 C.2     1  UNL1        0.0460
     32  C         24.5930  -22.6620  -17.3570 C.2     1  UNL1        0.0350
     33  C         23.5610  -23.6500  -17.8070 C.3     1  UNL1        0.0700
     34  N         24.3650  -22.0080  -16.1990 N.2     1  UNL1       -0.2230
@<TRIPOS>BOND
     1    31    30    2
     2    31    32    1
     3    33    32    1
     4    30    29    1
     5    32    34    2
     6    29    28    2
     7    34    28    1
     8    28    26    1
     9    26    27    1
    10    26    23    1
    11    24    23    2
    12    23    25    2
    13    23     4    1
    14     5     4    2
    15     5     6    1
    16     4     3    1
    17     6     1    2
    18     3     2    2
    19     1     2    1
    20     1     7    1
    21     7    10    1
    22     7     8   am
    23     8     9    2
    24     8    11    1
    25    12    11   ar
    26    12    13   ar
    27    11    19   ar
    28    13    14    2
    29    13    15   ar
    30    14    16    1
    31    19    15   ar
    32    19    20    1
    33    15    18    2
    34    16    17    2
    35    18    17    1
    36    17    21    1
    37    22    21    1
