@<TRIPOS>MOLECULE
11637_out_ligand_01.pdbqt
 27 29 0 0 0
SMALL
GASTEIGER

@<TRIPOS>ATOM
      1  C         20.1360  -23.3700   -9.2770 C.2     1  UNL1        0.2800
      2  O         20.0900  -24.5430   -8.9200 O.2     1  UNL1       -0.2650
      3  N         19.3910  -22.3380   -8.7340 N.am    1  UNL1       -0.3210
      4  H         19.5650  -21.4310   -9.1520 H       1  UNL1        0.1690
      5  C         18.4420  -22.3930   -7.6960 C.2     1  UNL1        0.0350
      6  C         18.7470  -22.1890   -6.3470 C.2     1  UNL1        0.0310
      7  C         17.7460  -22.2610   -5.3730 C.2     1  UNL1        0.0270
      8  C         16.4290  -22.5290   -5.7510 C.2     1  UNL1        0.0740
      9  C         16.1100  -22.7470   -7.0910 C.2     1  UNL1        0.0270
     10  C         17.1180  -22.6750   -8.0590 C.2     1  UNL1        0.0310
     11  S         15.1720  -22.6500   -4.5150 S.O2    1  UNL1        0.2390
     12  O         14.8880  -24.0420   -4.2560 O.2     1  UNL1       -0.2060
     13  O         14.1320  -21.6870   -4.7990 O.2     1  UNL1       -0.2060
     14  N         15.9670  -22.0760   -3.1530 N.3     1  UNL1       -0.2250
     15  H         16.9680  -22.0100   -3.3390 H       1  UNL1        0.1360
     16  H         15.7360  -22.6550   -2.3460 H       1  UNL1        0.1360
     17  C         21.0150  -22.9170  -10.3470 C.ar    1  UNL1        0.1500
     18  C         20.7850  -22.0880  -11.4400 C.ar    1  UNL1       -0.0090
     19  C         19.5000  -21.4300  -11.7910 C.3     1  UNL1        0.0520
     20  C         22.0250  -22.0050  -12.1430 C.ar    1  UNL1        0.0080
     21  C         22.4830  -21.3520  -13.3050 C.2     1  UNL1        0.0380
     22  C         22.9250  -22.7880  -11.4310 C.ar    1  UNL1        0.0870
     23  C         23.8210  -21.5220  -13.6860 C.2     1  UNL1        0.0350
     24  C         24.6950  -22.3180  -12.9420 C.2     1  UNL1        0.0260
     25 CL         24.3970  -20.7310  -15.1040 Cl      1  UNL1       -0.0840
     26  C         24.2600  -22.9740  -11.7860 C.2     1  UNL1        0.0400
     27  O         22.3190  -23.3390  -10.3480 O.2     1  UNL1       -0.3040
@<TRIPOS>BOND
     1    25    23    1
     2    23    21    1
     3    23    24    2
     4    21    20    2
     5    24    26    1
     6    20    18   ar
     7    20    22   ar
     8    19    18    1
     9    26    22    2
    10    18    17   ar
    11    22    27   ar
    12    27    17   ar
    13    17     1    1
    14     1     2    2
    15     1     3   am
    16     4     3    1
    17     3     5    1
    18    10     5    2
    19    10     9    1
    20     5     6    1
    21     9     8    2
    22     6     7    2
    23     8     7    1
    24     8    11    1
    25    13    11    2
    26    11    12    2
    27    11    14    1
    28    15    14    1
    29    14    16    1
