@<TRIPOS>MOLECULE
11635_out_ligand_01.pdbqt
 33 36 0 0 0
SMALL
GASTEIGER

@<TRIPOS>ATOM
      1  C         23.8310  -21.7500  -11.8400 C.2     1  UNL1        0.0750
      2  C         24.0300  -21.7100  -10.4590 C.2     1  UNL1        0.0270
      3  C         22.9420  -21.9000   -9.6040 C.2     1  UNL1        0.0310
      4  C         21.6550  -22.1220  -10.1150 C.2     1  UNL1        0.0350
      5  C         21.4710  -22.1430  -11.5000 C.2     1  UNL1        0.0310
      6  C         22.5540  -21.9510  -12.3640 C.2     1  UNL1        0.0270
      7  N         20.6210  -22.3070   -9.1800 N.am    1  UNL1       -0.3210
      8  C         20.2860  -23.4520   -8.4770 C.2     1  UNL1        0.2800
      9  O         20.8680  -24.5290   -8.5560 O.2     1  UNL1       -0.2650
     10  H         20.0330  -21.5050   -8.9780 H       1  UNL1        0.1690
     11  C         19.1400  -23.2510   -7.6020 C.ar    1  UNL1        0.1500
     12  O         18.0500  -24.0720   -7.7500 O.2     1  UNL1       -0.3040
     13  C         17.1250  -23.6900   -6.8310 C.ar    1  UNL1        0.0870
     14  C         15.8730  -24.2790   -6.6580 C.2     1  UNL1        0.0410
     15  C         17.6020  -22.6200   -6.0800 C.ar    1  UNL1        0.0090
     16  C         15.0640  -23.7370   -5.6550 C.2     1  UNL1        0.0450
     17  C         15.5110  -22.6670   -4.8850 C.2     1  UNL1        0.1170
     18  F         14.7090  -22.1720   -3.9310 F       1  UNL1       -0.2060
     19  C         16.7710  -22.0910   -5.0760 C.2     1  UNL1        0.0570
     20  C         18.9090  -22.3370   -6.5810 C.ar    1  UNL1       -0.0090
     21  C         19.8450  -21.2810   -6.1150 C.3     1  UNL1        0.0520
     22  S         25.2110  -21.4790  -12.9270 S.O2    1  UNL1        0.2480
     23  O         26.1740  -20.6140  -12.2790 O.2     1  UNL1       -0.2050
     24  O         25.6170  -22.7880  -13.4010 O.2     1  UNL1       -0.2050
     25  N         24.5410  -20.7110  -14.2390 N.pl3   1  UNL1       -0.1480
     26  H         23.5350  -20.6130  -14.1810 H       1  UNL1        0.1490
     27  C         24.9780  -21.1070  -15.4970 C.cat   1  UNL1        0.2150
     28  N         26.2280  -20.7240  -15.7680 N.2     1  UNL1       -0.2300
     29  C         26.7390  -21.2080  -16.9150 C.2     1  UNL1        0.1220
     30  C         26.0600  -22.0720  -17.7440 C.2     1  UNL1        0.0460
     31  C         24.7950  -22.4430  -17.3320 C.2     1  UNL1        0.0350
     32  C         23.9770  -23.3960  -18.1510 C.3     1  UNL1        0.0700
     33  N         24.2490  -21.9820  -16.1900 N.2     1  UNL1       -0.2230
@<TRIPOS>BOND
     1    32    31    1
     2    30    31    1
     3    30    29    2
     4    31    33    2
     5    29    28    1
     6    33    27    1
     7    28    27    2
     8    27    25    1
     9    25    26    1
    10    25    22    1
    11    24    22    2
    12    22    23    2
    13    22     1    1
    14     6     1    2
    15     6     5    1
    16     1     2    1
    17     5     4    2
    18     2     3    2
    19     4     3    1
    20     4     7    1
    21     7    10    1
    22     7     8   am
    23     9     8    2
    24     8    11    1
    25    12    11   ar
    26    12    13   ar
    27    11    20   ar
    28    13    14    2
    29    13    15   ar
    30    14    16    1
    31    20    21    1
    32    20    15   ar
    33    15    19    2
    34    16    17    2
    35    19    17    1
    36    17    18    1
