@<TRIPOS>MOLECULE
11641_out_ligand_01.pdbqt
 31 33 0 0 0
SMALL
GASTEIGER

@<TRIPOS>ATOM
      1  C         17.7760  -21.6260  -11.4650 C.3     1  UNL1        0.1620
      2  C         17.4620  -22.3370  -10.1820 C.2     1  UNL1       -0.0230
      3  C         16.1640  -22.3990   -9.6750 C.2     1  UNL1        0.0140
      4  C         15.9160  -23.0970   -8.4940 C.2     1  UNL1        0.0590
      5  C         16.9780  -23.7310   -7.8580 C.2     1  UNL1        0.1690
      6  N         18.2460  -23.6790   -8.3210 N.2     1  UNL1       -0.2360
      7  C         18.4570  -22.9990   -9.4710 C.2     1  UNL1        0.1280
      8  O         16.8380  -24.4260   -6.6730 O.2     1  UNL1       -0.2910
      9  C         16.5950  -23.6810   -5.5420 C.2     1  UNL1        0.0840
     10  C         15.3430  -23.6790   -4.9100 C.2     1  UNL1       -0.0280
     11  C         15.1820  -22.8970   -3.7590 C.2     1  UNL1        0.0100
     12  C         14.1830  -24.4690   -5.4420 C.3     1  UNL1        0.0510
     13  C         16.2540  -22.1680   -3.2310 C.2     1  UNL1        0.0070
     14  C         17.5090  -22.2010   -3.8480 C.2     1  UNL1       -0.0590
     15  C         18.6720  -21.4630   -3.2560 C.3     1  UNL1        0.0480
     16  C         17.6770  -22.9790   -4.9970 C.2     1  UNL1        0.0440
     17  N         19.1080  -21.9510  -11.9240 N.am    1  UNL1       -0.3530
     18  C         20.1390  -21.0410  -11.8200 C.2     1  UNL1        0.2510
     19  O         19.9850  -19.8900  -11.4270 O.2     1  UNL1       -0.2680
     20  H         19.3230  -22.9310  -12.0460 H       1  UNL1        0.1630
     21  C         21.4980  -21.5310  -12.1790 C.2     1  UNL1        0.0330
     22  C         22.1230  -22.4440  -11.3190 C.2     1  UNL1        0.0170
     23  C         23.3910  -22.9430  -11.6210 C.2     1  UNL1        0.0020
     24  C         24.0510  -22.5220  -12.7770 C.2     1  UNL1        0.0170
     25  C         23.4460  -21.5870  -13.6260 C.2     1  UNL1        0.0320
     26  C         22.1660  -21.0970  -13.3290 C.2     1  UNL1        0.0340
     27  C         24.1040  -21.1040  -14.8680 C.2     1  UNL1        0.2490
     28  N         24.7270  -19.8880  -14.8210 N.am    1  UNL1       -0.3660
     29  H         24.5360  -19.2140  -14.0950 H       1  UNL1        0.1590
     30  H         25.0530  -19.5260  -15.7100 H       1  UNL1        0.1590
     31  O         24.0610  -21.7530  -15.9050 O.2     1  UNL1       -0.2680
@<TRIPOS>BOND
     1    31    27    2
     2    30    28    1
     3    27    28   am
     4    27    25    1
     5    28    29    1
     6    25    26    1
     7    25    24    2
     8    26    21    2
     9    24    23    1
    10    21    18    1
    11    21    22    1
    12    20    17    1
    13    17    18   am
    14    17     1    1
    15    18    19    2
    16    23    22    2
    17     1     2    1
    18     2     3    1
    19     2     7    2
    20     3     4    2
    21     7     6    1
    22     4     5    1
    23     6     5    2
    24     5     8    1
    25     8     9    1
    26     9    16    2
    27     9    10    1
    28    12    10    1
    29    16    14    1
    30    10    11    2
    31    14    15    1
    32    14    13    2
    33    11    13    1
