@<TRIPOS>MOLECULE
11649_out_ligand_01.pdbqt
 29 31 0 0 0
SMALL
GASTEIGER

@<TRIPOS>ATOM
      1  C         17.5930  -21.5490  -10.8000 C.2     1  UNL1        0.2260
      2  O         17.8220  -20.4690  -11.3400 O.2     1  UNL1       -0.2730
      3  N         18.5360  -22.5020  -10.4540 N.am    1  UNL1       -0.3270
      4  H         18.1810  -23.3720  -10.0710 H       1  UNL1        0.1690
      5  C         16.1710  -21.9100  -10.3850 C.3     1  UNL1        0.1440
      6  C         16.1210  -22.9330   -9.3000 C.2     1  UNL1       -0.0140
      7  C         15.5490  -24.1880   -9.3730 C.2     1  UNL1        0.1510
      8  O         15.7020  -24.8620   -8.2060 O.2     1  UNL1       -0.3210
      9  C         16.3750  -24.0400   -7.3570 C.2     1  UNL1        0.0850
     10  C         16.7410  -24.3530   -6.0520 C.2     1  UNL1        0.0390
     11  C         16.6560  -22.8300   -7.9780 C.2     1  UNL1        0.0070
     12  C         17.4370  -23.3660   -5.3440 C.2     1  UNL1        0.0100
     13  C         17.7480  -22.1200   -5.9170 C.2     1  UNL1       -0.0540
     14  C         17.3540  -21.8500   -7.2440 C.2     1  UNL1        0.0220
     15  C         18.4990  -21.0560   -5.1330 C.3     1  UNL1        0.0100
     16  C         19.9060  -20.8330   -5.6920 C.3     1  UNL1        0.0150
     17  C         18.5490  -21.3860   -3.6380 C.3     1  UNL1        0.0150
     18  C         19.9320  -22.4460  -10.6460 C.2     1  UNL1        0.0340
     19  C         20.7350  -22.9920   -9.6330 C.2     1  UNL1        0.0310
     20  C         22.1290  -22.9770   -9.7390 C.2     1  UNL1        0.0270
     21  C         22.7250  -22.4190  -10.8700 C.2     1  UNL1        0.0740
     22  C         21.9400  -21.8590  -11.8800 C.2     1  UNL1        0.0270
     23  C         20.5450  -21.8790  -11.7650 C.2     1  UNL1        0.0310
     24  S         24.4880  -22.3650  -11.0030 S.O2    1  UNL1        0.2390
     25  O         24.9600  -21.0820  -10.5350 O.2     1  UNL1       -0.2060
     26  O         24.8880  -22.9210  -12.2740 O.2     1  UNL1       -0.2060
     27  N         24.9570  -23.4800   -9.8390 N.3     1  UNL1       -0.2250
     28  H         25.9500  -23.3660   -9.6310 H       1  UNL1        0.1360
     29  H         24.3530  -23.4050   -9.0210 H       1  UNL1        0.1360
@<TRIPOS>BOND
     1    26    24    2
     2    22    23    1
     3    22    21    2
     4    23    18    2
     5     2     1    2
     6    24    21    1
     7    24    25    2
     8    24    27    1
     9    21    20    1
    10     1     3   am
    11     1     5    1
    12    18     3    1
    13    18    19    1
    14     3     4    1
    15     5     6    1
    16    27    28    1
    17    27    29    1
    18    20    19    2
    19     7     6    2
    20     7     8    1
    21     6    11    1
    22     8     9    1
    23    11     9    2
    24    11    14    1
    25     9    10    1
    26    14    13    2
    27    10    12    2
    28    13    12    1
    29    13    15    1
    30    16    15    1
    31    15    17    1
