@<TRIPOS>MOLECULE
11657_out_ligand_01.pdbqt
 33 37 0 0 0
SMALL
GASTEIGER

@<TRIPOS>ATOM
      1  O         22.4840  -24.2920   -9.1010 O.2     1  UNL1       -0.2670
      2  C         21.8940  -23.3760   -9.6550 C.2     1  UNL1        0.2570
      3  N         22.3970  -22.4730  -10.5740 N.am    1  UNL1       -0.3230
      4  H         21.7310  -21.8320  -10.9900 H       1  UNL1        0.1690
      5  C         23.7300  -22.3600  -11.0180 C.2     1  UNL1        0.0360
      6  C         24.6290  -21.3980  -10.5500 C.2     1  UNL1        0.0290
      7  C         25.9330  -21.3350  -11.0540 C.2     1  UNL1        0.0040
      8  C         26.3540  -22.2360  -12.0280 C.2     1  UNL1        0.0250
      9  C         25.4670  -23.2100  -12.4840 C.2     1  UNL1        0.0820
     10  C         24.1550  -23.2660  -11.9960 C.2     1  UNL1        0.0540
     11  S         25.9720  -24.3400  -13.7520 S.O2    1  UNL1        0.2640
     12  O         24.8190  -25.0520  -14.2540 O.2     1  UNL1       -0.2000
     13  O         27.1210  -25.0650  -13.2430 O.2     1  UNL1       -0.2000
     14  N         26.5830  -23.3480  -14.9410 N.3     1  UNL1       -0.2680
     15  H         27.5910  -23.2480  -14.8750 H       1  UNL1        0.1800
     16  C         25.8710  -22.7460  -15.9720 C.3     1  UNL1        0.1080
     17  N         25.8340  -23.1870  -17.1840 N.3     1  UNL1       -0.2760
     18  C         24.9450  -22.2560  -17.9070 C.3     1  UNL1        0.1510
     19  C         24.8990  -20.9940  -17.0620 C.3     1  UNL1        0.0290
     20  C         25.0630  -21.5290  -15.6610 C.3     1  UNL1        0.0800
     21  C         20.4450  -23.2190   -9.3940 C.2     1  UNL1        0.0460
     22  C         19.9380  -23.9170   -8.2980 C.2     1  UNL1        0.0450
     23  C         18.5810  -23.8600   -8.0340 C.2     1  UNL1        0.0400
     24  N         17.7510  -23.1460   -8.8350 N.2     1  UNL1       -0.2520
     25  C         18.2430  -22.4430   -9.8710 C.2     1  UNL1        0.0680
     26  C         17.3580  -21.7010  -10.6400 C.2     1  UNL1        0.0320
     27  C         19.6080  -22.4270  -10.2050 C.2     1  UNL1        0.0080
     28  C         17.7840  -20.9280  -11.7230 C.2     1  UNL1        0.0020
     29  C         19.1330  -20.8850  -12.0470 C.2     1  UNL1        0.0010
     30  C         20.0410  -21.6250  -11.2930 C.2     1  UNL1        0.0150
     31  C         17.9850  -24.6160   -6.8720 C.3     1  UNL1        0.0380
     32  C         16.5740  -24.3110   -6.4200 C.3     1  UNL1        0.0110
     33  C         17.7330  -23.9120   -5.5570 C.3     1  UNL1        0.0110
@<TRIPOS>BOND
     1    18    17    1
     2    18    19    1
     3    17    16    1
     4    19    20    1
     5    16    20    1
     6    16    14    1
     7    14    15    1
     8    14    11    1
     9    12    11    2
    10    11    13    2
    11    11     9    1
    12     9     8    2
    13     9    10    1
    14    29    28    1
    15    29    30    2
    16     8     7    1
    17    10     5    2
    18    28    26    2
    19    30    27    1
    20     7     6    2
    21     5     3    1
    22     5     6    1
    23     4     3    1
    24    26    25    1
    25     3     2   am
    26    27    25    1
    27    27    21    2
    28    25    24    2
    29     2    21    1
    30     2     1    2
    31    21    22    1
    32    24    23    1
    33    22    23    2
    34    23    31    1
    35    31    32    1
    36    31    33    1
    37    32    33    1
