@<TRIPOS>MOLECULE
11666_out_ligand_01.pdbqt
 33 36 0 0 0
SMALL
GASTEIGER

@<TRIPOS>ATOM
      1  C         22.5360  -21.9280  -12.3840 C.2     1  UNL1        0.0140
      2  C         22.6970  -21.4040  -13.6770 C.2     1  UNL1        0.0170
      3  C         23.7140  -21.8730  -14.5110 C.2     1  UNL1        0.0260
      4  C         24.5900  -22.8550  -14.0410 C.2     1  UNL1        0.0790
      5  C         24.4420  -23.3870  -12.7570 C.2     1  UNL1        0.0260
      6  C         23.4210  -22.9140  -11.9270 C.2     1  UNL1        0.0170
      7  C         21.4320  -21.3800  -11.5450 C.2     1  UNL1        0.1840
      8  O         20.8120  -20.3840  -11.9110 O.2     1  UNL1       -0.2880
      9  C         21.1140  -21.9790  -10.2280 C.2     1  UNL1        0.0820
     10  C         19.9100  -22.3760   -9.7780 C.2     1  UNL1        0.0280
     11  N         18.6460  -22.2710  -10.3800 N.pl3   1  UNL1       -0.3530
     12  C         19.7650  -23.1450   -8.4250 C.3     1  UNL1        0.0250
     13  C         18.1390  -21.1190  -11.1180 C.3     1  UNL1        0.1560
     14  C         17.6920  -22.9360   -9.5790 C.2     1  UNL1        0.0410
     15  C         16.3330  -23.0950   -9.8020 C.2     1  UNL1        0.0300
     16  C         18.2870  -23.4900   -8.4340 C.2     1  UNL1       -0.0170
     17  C         15.5740  -23.8100   -8.8680 C.2     1  UNL1        0.0020
     18  C         16.1750  -24.3560   -7.7250 C.2     1  UNL1        0.0010
     19  C         17.5430  -24.1980   -7.5000 C.2     1  UNL1        0.0100
     20  C         20.0940  -22.2400   -7.2290 C.3     1  UNL1        0.0270
     21  C         20.6100  -24.4260   -8.3960 C.3     1  UNL1        0.0270
     22  S         25.8810  -23.4710  -15.1010 S.O2    1  UNL1        0.2630
     23  O         25.2820  -23.8520  -16.3620 O.2     1  UNL1       -0.2000
     24  O         26.6630  -24.4120  -14.3270 O.2     1  UNL1       -0.2000
     25  N         26.8650  -22.1170  -15.3260 N.pl3   1  UNL1       -0.2810
     26  H         27.7140  -22.3420  -15.8410 H       1  UNL1        0.1790
     27  C         26.9330  -21.1230  -14.3140 C.2     1  UNL1        0.0420
     28  C         27.0830  -21.5190  -12.9830 C.2     1  UNL1        0.0320
     29  C         27.1210  -20.5590  -11.9690 C.2     1  UNL1        0.0260
     30  C         27.0110  -19.2070  -12.2910 C.2     1  UNL1        0.0340
     31 CL         27.0570  -18.0250  -11.0430 Cl      1  UNL1       -0.0840
     32  C         26.8660  -18.8070  -13.6180 C.2     1  UNL1        0.0260
     33  C         26.8280  -19.7680  -14.6320 C.2     1  UNL1        0.0320
@<TRIPOS>BOND
     1    23    22    2
     2    26    25    1
     3    25    22    1
     4    25    27    1
     5    22    24    2
     6    22     4    1
     7    33    27    2
     8    33    32    1
     9     3     4    2
    10     3     2    1
    11    27    28    1
    12     4     5    1
    13     2     1    2
    14    32    30    2
    15    28    29    2
    16     5     6    2
    17     1     6    1
    18     1     7    1
    19    30    29    1
    20    30    31    1
    21     8     7    2
    22     7     9    1
    23    13    11    1
    24    11    10    1
    25    11    14    1
    26     9    10    2
    27    15    14    2
    28    15    17    1
    29    10    12    1
    30    14    16    1
    31    17    18    2
    32    16    12    1
    33    16    19    2
    34    12    21    1
    35    12    20    1
    36    18    19    1
