@<TRIPOS>MOLECULE
11672_out_ligand_01.pdbqt
 35 38 0 0 0
SMALL
GASTEIGER

@<TRIPOS>ATOM
      1  C         16.6250  -22.8190   -9.7590 C.2     1  UNL1       -0.0400
      2  C         17.5000  -23.6800  -10.4340 C.2     1  UNL1        0.0100
      3  C         18.6060  -23.1700  -11.1190 C.2     1  UNL1        0.0170
      4  C         18.8480  -21.7910  -11.1420 C.2     1  UNL1        0.0320
      5  C         17.9880  -20.9250  -10.4540 C.2     1  UNL1        0.0170
      6  C         16.8830  -21.4390   -9.7710 C.2     1  UNL1        0.0100
      7  C         20.0530  -21.2920  -11.8650 C.2     1  UNL1        0.2560
      8  O         19.9400  -20.2810  -12.5490 O.2     1  UNL1       -0.2670
      9  N         21.2070  -22.0210  -11.6450 N.am    1  UNL1       -0.3230
     10  H         21.1740  -22.7220  -10.9180 H       1  UNL1        0.1690
     11  C         22.4650  -21.8360  -12.2590 C.2     1  UNL1        0.0370
     12  C         23.5910  -21.8660  -11.4290 C.2     1  UNL1        0.0320
     13  C         24.8750  -21.7240  -11.9650 C.2     1  UNL1        0.0420
     14  C         25.0500  -21.5640  -13.3380 C.2     1  UNL1        0.1020
     15  C         23.9270  -21.4860  -14.1710 C.2     1  UNL1        0.1040
     16  O         26.3570  -21.4950  -13.7500 O.2     1  UNL1       -0.3480
     17  C         22.6430  -21.6470  -13.6320 C.2     1  UNL1        0.0690
     18  O         23.9610  -21.2860  -15.5290 O.2     1  UNL1       -0.3480
     19  C         24.9950  -20.3960  -15.9480 C.3     1  UNL1        0.1780
     20  C         26.3030  -21.1400  -16.1560 C.3     1  UNL1        0.0530
     21  C         26.5860  -22.1070  -15.0190 C.3     1  UNL1        0.1780
     22  C         15.4430  -23.3590   -8.9890 C.3     1  UNL1        0.1700
     23  N         15.8870  -24.2460   -7.9230 N.3     1  UNL1       -0.3110
     24  H         15.4380  -25.1560   -7.8260 H       1  UNL1        0.1720
     25  S         16.4670  -23.5920   -6.5000 S.O2    1  UNL1        0.2590
     26  O         16.5250  -24.6520   -5.5180 O.2     1  UNL1       -0.2010
     27  O         15.7210  -22.3760   -6.2680 O.2     1  UNL1       -0.2010
     28  C         18.1260  -23.1360   -6.9300 C.2     1  UNL1        0.0800
     29  C         18.6340  -21.9000   -6.5380 C.2     1  UNL1        0.0260
     30  C         19.9420  -21.5600   -6.8820 C.2     1  UNL1        0.0090
     31  C         20.7470  -22.4430   -7.6210 C.2     1  UNL1       -0.0560
     32  C         22.1550  -22.0390   -7.9670 C.3     1  UNL1        0.0490
     33  C         20.2210  -23.6870   -8.0270 C.2     1  UNL1       -0.0550
     34  C         18.9040  -24.0240   -7.6790 C.2     1  UNL1        0.0320
     35  C         21.0420  -24.6630   -8.8250 C.3     1  UNL1        0.0490
@<TRIPOS>BOND
     1    20    19    1
     2    20    21    1
     3    19    18    1
     4    18    15    1
     5    21    16    1
     6    15    17    1
     7    15    14    2
     8    16    14    1
     9    17    11    2
    10    14    13    1
    11     8     7    2
    12    11     9    1
    13    11    12    1
    14    13    12    2
    15     7     9   am
    16     7     4    1
    17     9    10    1
    18     4     3    2
    19     4     5    1
    20     3     2    1
    21     5     6    2
    22     2     1    2
    23     6     1    1
    24     1    22    1
    25    22    23    1
    26    35    33    1
    27    33    34    1
    28    33    31    2
    29    32    31    1
    30    23    24    1
    31    23    25    1
    32    34    28    2
    33    31    30    1
    34    28    29    1
    35    28    25    1
    36    30    29    2
    37    25    27    2
    38    25    26    2
