@<TRIPOS>MOLECULE
11673_out_ligand_01.pdbqt
 33 36 0 0 0
SMALL
GASTEIGER

@<TRIPOS>ATOM
      1  C         18.4110  -22.0210  -10.4150 C.2     1  UNL1       -0.0360
      2  C         19.3430  -21.7800  -11.4320 C.2     1  UNL1        0.0130
      3  C         20.7060  -21.9830  -11.2070 C.2     1  UNL1        0.0260
      4  C         21.1350  -22.4470   -9.9620 C.2     1  UNL1        0.0790
      5  C         20.2160  -22.6940   -8.9370 C.2     1  UNL1        0.0260
      6  C         18.8550  -22.4870   -9.1700 C.2     1  UNL1        0.0130
      7  C         16.9840  -21.8200  -10.6920 C.2     1  UNL1        0.0170
      8  C         15.9600  -22.3260   -9.9880 C.2     1  UNL1        0.0750
      9  C         16.1260  -23.1370   -8.7530 C.2     1  UNL1        0.2450
     10  O         16.4900  -24.3010   -8.8210 O.2     1  UNL1       -0.2680
     11  N         15.8370  -22.3880   -7.6310 N.am    1  UNL1       -0.3230
     12  H         15.5440  -21.4400   -7.8030 H       1  UNL1        0.1690
     13  C         15.8600  -22.8020   -6.2720 C.2     1  UNL1        0.0460
     14  C         14.8920  -23.6800   -5.7670 C.2     1  UNL1        0.0300
     15  C         14.9100  -24.0790   -4.4340 C.2     1  UNL1        0.0030
     16  C         15.8990  -23.6070   -3.5810 C.2     1  UNL1        0.0120
     17  C         16.8870  -22.7300   -4.0450 C.2     1  UNL1       -0.0240
     18  C         17.8710  -22.2750   -3.1530 C.2     1  UNL1        0.0120
     19  C         16.8880  -22.3080   -5.4030 C.2     1  UNL1        0.0010
     20  C         18.8740  -21.4040   -3.5690 C.2     1  UNL1        0.0010
     21  C         18.9030  -20.9760   -4.8870 C.2     1  UNL1        0.0010
     22  C         17.9290  -21.4200   -5.7880 C.2     1  UNL1        0.0140
     23  S         22.8630  -22.7070   -9.6560 S.O2    1  UNL1        0.2590
     24  O         23.4820  -21.4390   -9.3430 O.2     1  UNL1       -0.2010
     25  O         22.9900  -23.8560   -8.7880 O.2     1  UNL1       -0.2010
     26  N         23.4030  -23.1880  -11.1620 N.3     1  UNL1       -0.3090
     27  H         23.1120  -24.1310  -11.4170 H       1  UNL1        0.1720
     28  C         24.7470  -22.7840  -11.5580 C.3     1  UNL1        0.1970
     29  C         24.6140  -21.8620  -12.7140 C.2     1  UNL1        0.0700
     30  C         23.6780  -21.7300  -13.7190 C.2     1  UNL1        0.0360
     31  C         24.1150  -20.6580  -14.5340 C.2     1  UNL1        0.0270
     32  C         25.2910  -20.2080  -13.9780 C.2     1  UNL1        0.1420
     33  O         25.6040  -20.9350  -12.8740 O.2     1  UNL1       -0.3250
@<TRIPOS>BOND
     1    31    32    2
     2    31    30    1
     3    32    33    1
     4    30    29    2
     5    33    29    1
     6    29    28    1
     7    28    26    1
     8     2     3    1
     9     2     1    2
    10    27    26    1
    11     3     4    2
    12    26    23    1
    13     7     1    1
    14     7     8    2
    15     1     6    1
    16     8     9    1
    17     4    23    1
    18     4     5    1
    19    23    24    2
    20    23    25    2
    21     6     5    2
    22    10     9    2
    23     9    11   am
    24    12    11    1
    25    11    13    1
    26    13    14    2
    27    13    19    1
    28    22    19    1
    29    22    21    2
    30    14    15    1
    31    19    17    2
    32    21    20    1
    33    15    16    2
    34    17    16    1
    35    17    18    1
    36    20    18    2
