@<TRIPOS>MOLECULE
11671_out_ligand_01.pdbqt
 31 33 0 0 0
SMALL
GASTEIGER

@<TRIPOS>ATOM
      1  C         20.7010  -22.2540  -10.2400 C.2     1  UNL1        0.0870
      2  C         19.7590  -22.7990   -9.3440 C.2     1  UNL1        0.0550
      3  C         18.3910  -22.7600   -9.6180 C.2     1  UNL1        0.0360
      4  C         17.9680  -22.1690  -10.8040 C.2     1  UNL1        0.0300
      5  C         18.8980  -21.6500  -11.7120 C.2     1  UNL1        0.0100
      6  C         20.2790  -21.6900  -11.4560 C.2     1  UNL1       -0.0390
      7  C         21.2040  -21.1520  -12.5090 C.3     1  UNL1        0.0500
      8  S         22.4170  -22.3730   -9.7370 S.O2    1  UNL1        0.2630
      9  O         22.9930  -21.0520   -9.9080 O.2     1  UNL1       -0.2000
     10  O         22.5210  -23.0600   -8.4700 O.2     1  UNL1       -0.2000
     11  N         23.1050  -23.3250  -10.9510 N.pl3   1  UNL1       -0.2810
     12  H         22.8750  -24.3100  -10.8540 H       1  UNL1        0.1790
     13  C         24.3780  -22.9830  -11.4800 C.2     1  UNL1        0.0430
     14  C         25.5080  -23.1160  -10.6720 C.2     1  UNL1        0.0300
     15  C         26.7600  -22.7490  -11.1650 C.2     1  UNL1        0.0030
     16  C         26.8820  -22.2520  -12.4650 C.2     1  UNL1        0.0070
     17  C         25.7560  -22.1300  -13.2850 C.2     1  UNL1       -0.0600
     18  C         25.8720  -21.5590  -14.6680 C.3     1  UNL1        0.0480
     19  C         24.4990  -22.4910  -12.7780 C.2     1  UNL1        0.0370
     20  N         17.5240  -23.3440   -8.6710 N.am    1  UNL1       -0.3270
     21  C         17.2180  -22.8710   -7.4030 C.2     1  UNL1        0.2260
     22  O         17.6980  -21.8790   -6.8590 O.2     1  UNL1       -0.2730
     23  H         17.0530  -24.1910   -8.9690 H       1  UNL1        0.1690
     24  C         16.1800  -23.7210   -6.6840 C.3     1  UNL1        0.1460
     25  C         15.7980  -23.1200   -5.3780 C.ar    1  UNL1        0.0090
     26  C         16.4280  -23.2960   -4.1120 C.ar    1  UNL1        0.0670
     27  C         17.6280  -24.0980   -3.7700 C.3     1  UNL1        0.0730
     28  N         15.8030  -22.6010   -3.1550 N.ar    1  UNL1       -0.1330
     29  O         14.7500  -21.9600   -3.7800 O.2     1  UNL1       -0.2170
     30  C         14.7540  -22.2640   -5.1030 C.ar    1  UNL1        0.0840
     31  C         13.6890  -21.6410   -5.9120 C.3     1  UNL1        0.0790
@<TRIPOS>BOND
     1    18    17    1
     2    17    19    1
     3    17    16    2
     4    19    13    2
     5     7     6    1
     6    16    15    1
     7     5     6    1
     8     5     4    2
     9    13    11    1
    10    13    14    1
    11     6     1    2
    12    15    14    2
    13    11    12    1
    14    11     8    1
    15     4     3    1
    16     1     8    1
    17     1     2    1
    18     9     8    2
    19     8    10    2
    20     3     2    2
    21     3    20    1
    22    23    20    1
    23    20    21   am
    24    21    22    2
    25    21    24    1
    26    24    25    1
    27    31    30    1
    28    25    30   ar
    29    25    26   ar
    30    30    29   ar
    31    26    27    1
    32    26    28   ar
    33    29    28   ar
