@<TRIPOS>MOLECULE
11694_out_ligand_01.pdbqt
 28 30 0 0 0
SMALL
GASTEIGER

@<TRIPOS>ATOM
      1  C         18.0910  -22.9960   -9.4980 C.2     1  UNL1        0.0790
      2  C         18.0510  -22.0770  -10.5520 C.2     1  UNL1        0.0260
      3  C         19.2280  -21.7520  -11.2320 C.2     1  UNL1        0.0180
      4  C         20.4390  -22.3610  -10.8680 C.2     1  UNL1        0.0320
      5  C         20.4660  -23.2790   -9.8080 C.2     1  UNL1        0.0180
      6  C         19.2910  -23.6080   -9.1280 C.2     1  UNL1        0.0260
      7  S         16.5880  -23.4100   -8.6450 S.O2    1  UNL1        0.2630
      8  O         16.8340  -24.5560   -7.7970 O.2     1  UNL1       -0.2000
      9  O         15.5320  -23.4320   -9.6360 O.2     1  UNL1       -0.2000
     10  N         16.3090  -22.0380   -7.7020 N.pl3   1  UNL1       -0.2800
     11  H         15.6250  -21.4170   -8.1300 H       1  UNL1        0.1790
     12  C         16.2700  -22.1840   -6.2850 C.2     1  UNL1        0.0490
     13  C         15.0320  -22.4690   -5.7040 C.2     1  UNL1        0.0310
     14  C         14.9170  -22.5990   -4.3230 C.2     1  UNL1        0.0030
     15  C         16.0420  -22.4390   -3.5180 C.2     1  UNL1        0.0070
     16  C         17.2940  -22.1470   -4.0830 C.2     1  UNL1       -0.0540
     17  C         18.4780  -21.9770   -3.1670 C.3     1  UNL1        0.0490
     18  C         17.4190  -22.0190   -5.4880 C.2     1  UNL1       -0.0290
     19  C         18.7630  -21.6840   -6.0860 C.3     1  UNL1        0.0510
     20  C         21.7230  -22.0330  -11.5560 C.2     1  UNL1        0.2570
     21  O         21.6630  -21.6370  -12.7120 O.2     1  UNL1       -0.2670
     22  N         22.8460  -22.1970  -10.7820 N.am    1  UNL1       -0.3010
     23  H         22.7640  -22.4180   -9.8000 H       1  UNL1        0.1710
     24  C         24.1500  -22.0190  -11.1670 C.2     1  UNL1        0.1730
     25  N         24.8830  -21.0740  -10.6240 N.2     1  UNL1       -0.2360
     26  C         26.1540  -21.1090  -11.1680 C.2     1  UNL1        0.1260
     27  C         26.3670  -22.0910  -12.1100 C.2     1  UNL1        0.0720
     28  S         24.9280  -22.9950  -12.3250 S.3     1  UNL1       -0.0620
@<TRIPOS>BOND
     1    21    20    2
     2    28    27    1
     3    28    24    1
     4    27    26    2
     5    20     4    1
     6    20    22   am
     7     3     4    2
     8     3     2    1
     9    26    25    1
    10    24    22    1
    11    24    25    2
    12     4     5    1
    13    22    23    1
    14     2     1    2
    15     5     6    2
    16     9     7    2
    17     1     6    1
    18     1     7    1
    19     7     8    2
    20     7    10    1
    21    11    10    1
    22    10    12    1
    23    12    13    2
    24    12    18    1
    25    19    18    1
    26    13    14    1
    27    18    16    2
    28    14    15    2
    29    16    15    1
    30    16    17    1
