@<TRIPOS>MOLECULE
11708_out_ligand_01.pdbqt
 27 30 0 0 0
SMALL
GASTEIGER

@<TRIPOS>ATOM
      1  C         21.6120  -22.8590  -10.1820 C.2     1  UNL1        0.0320
      2  C         20.8840  -22.2090  -11.1880 C.2     1  UNL1        0.0180
      3  C         19.5160  -21.9700  -11.0190 C.2     1  UNL1        0.0190
      4  C         18.8690  -22.3780   -9.8460 C.2     1  UNL1        0.0450
      5  C         19.5890  -23.0350   -8.8400 C.2     1  UNL1       -0.0380
      6  C         20.9560  -23.2860   -9.0180 C.2     1  UNL1        0.0250
      7  C         18.8610  -23.5010   -7.6130 C.3     1  UNL1        0.0770
      8  C         17.7270  -22.5170   -7.3330 C.3     1  UNL1        0.1690
      9  O         16.8640  -22.4000   -8.4830 O.3     1  UNL1       -0.3070
     10  C         17.4050  -22.1510   -9.7040 C.2     1  UNL1        0.2940
     11  O         16.7270  -21.7800  -10.6520 O.2     1  UNL1       -0.2590
     12  C         23.0670  -23.1490  -10.3180 C.2     1  UNL1        0.2510
     13  O         23.7470  -23.3450   -9.3150 O.2     1  UNL1       -0.2680
     14  N         23.5790  -23.1410  -11.5960 N.am    1  UNL1       -0.3520
     15  H         23.0330  -22.7350  -12.3430 H       1  UNL1        0.1630
     16  C         25.0010  -23.2550  -11.8360 C.3     1  UNL1        0.1690
     17  C         25.5600  -21.8800  -12.0090 C.2     1  UNL1        0.0000
     18  C         25.9960  -21.0090  -11.0280 C.2     1  UNL1        0.0170
     19  C         26.4650  -19.7760  -11.5650 C.2     1  UNL1        0.0080
     20  C         26.3710  -19.7440  -12.9380 C.2     1  UNL1        0.0500
     21  S         25.7200  -21.1930  -13.5710 S.3     1  UNL1       -0.1050
     22  C         16.9130  -22.9620   -6.1330 C.2     1  UNL1       -0.0290
     23  C         17.5230  -23.2740   -4.9090 C.2     1  UNL1        0.0100
     24  C         16.7560  -23.6550   -3.8070 C.2     1  UNL1        0.0010
     25  C         15.3680  -23.7240   -3.9140 C.2     1  UNL1        0.0000
     26  C         14.7470  -23.4120   -5.1210 C.2     1  UNL1        0.0010
     27  C         15.5140  -23.0320   -6.2250 C.2     1  UNL1        0.0100
@<TRIPOS>BOND
     1    21    20    1
     2    21    17    1
     3    20    19    2
     4    15    14    1
     5    17    16    1
     6    17    18    2
     7    16    14    1
     8    14    12   am
     9    19    18    1
    10     2     3    1
    11     2     1    2
    12     3     4    2
    13    11    10    2
    14    12     1    1
    15    12    13    2
    16     1     6    1
    17     4    10    1
    18     4     5    1
    19    10     9    1
    20     6     5    2
    21     5     7    1
    22     9     8    1
    23     7     8    1
    24     8    22    1
    25    27    22    2
    26    27    26    1
    27    22    23    1
    28    26    25    2
    29    23    24    2
    30    25    24    1
