@<TRIPOS>MOLECULE
11719_out_ligand_01.pdbqt
 31 33 0 0 0
SMALL
GASTEIGER

@<TRIPOS>ATOM
      1  C         22.7120  -22.2770   -9.4780 C.2     1  UNL1        0.2260
      2  O         23.0090  -21.0910   -9.3590 O.2     1  UNL1       -0.2730
      3  N         23.2110  -23.1470  -10.4340 N.am    1  UNL1       -0.3270
      4  H         22.8640  -24.0980  -10.4050 H       1  UNL1        0.1690
      5  C         21.7740  -22.9330   -8.4690 C.3     1  UNL1        0.1440
      6  C         20.3360  -22.8600   -8.8620 C.2     1  UNL1       -0.0140
      7  C         19.8200  -22.9720  -10.1390 C.2     1  UNL1        0.1510
      8  O         18.4670  -22.8830  -10.1250 O.2     1  UNL1       -0.3210
      9  C         18.0940  -22.7050   -8.8290 C.2     1  UNL1        0.0860
     10  C         16.7870  -22.5770   -8.3740 C.2     1  UNL1        0.0450
     11  C         19.2060  -22.6750   -8.0070 C.2     1  UNL1        0.0070
     12  C         16.5820  -22.4140   -6.9850 C.2     1  UNL1       -0.0530
     13  C         15.1490  -22.2670   -6.5430 C.3     1  UNL1        0.0490
     14  C         17.6870  -22.3500   -6.1020 C.2     1  UNL1       -0.0480
     15  C         19.0000  -22.4950   -6.6270 C.2     1  UNL1        0.0230
     16  C         17.5970  -22.1590   -4.5870 C.3     1  UNL1        0.0110
     17  C         17.6600  -23.4450   -3.7630 C.3     1  UNL1        0.0150
     18  C         18.5990  -21.1150   -4.0890 C.3     1  UNL1        0.0150
     19  C         24.1090  -22.8610  -11.4820 C.2     1  UNL1        0.0360
     20  C         25.3580  -23.4880  -11.4310 C.2     1  UNL1        0.0300
     21  C         26.3150  -23.2630  -12.4250 C.2     1  UNL1        0.0100
     22  C         26.0520  -22.3980  -13.4970 C.2     1  UNL1       -0.0390
     23  C         27.1200  -22.2120  -14.5390 C.3     1  UNL1        0.0500
     24  C         24.7900  -21.7770  -13.5520 C.2     1  UNL1        0.0820
     25  C         23.8290  -22.0100  -12.5500 C.2     1  UNL1        0.0540
     26  S         24.3300  -20.7010  -14.8920 S.O2    1  UNL1        0.2390
     27  O         24.1570  -21.4670  -16.1040 O.2     1  UNL1       -0.2060
     28  O         25.1410  -19.5060  -14.8610 O.2     1  UNL1       -0.2060
     29  N         22.7780  -20.2290  -14.4500 N.3     1  UNL1       -0.2250
     30  H         22.7310  -20.1100  -13.4380 H       1  UNL1        0.1360
     31  H         22.5210  -19.3920  -14.9760 H       1  UNL1        0.1360
@<TRIPOS>BOND
     1    27    26    2
     2    31    29    1
     3    26    28    2
     4    26    29    1
     5    26    24    1
     6    23    22    1
     7    29    30    1
     8    24    22    2
     9    24    25    1
    10    22    21    1
    11    25    19    2
    12    21    20    2
    13    19    20    1
    14    19     3    1
    15     3     4    1
    16     3     1   am
    17     7     8    1
    18     7     6    2
    19     8     9    1
    20     1     2    2
    21     1     5    1
    22     6     5    1
    23     6    11    1
    24     9    10    2
    25     9    11    1
    26    10    12    1
    27    11    15    2
    28    12    13    1
    29    12    14    2
    30    15    14    1
    31    14    16    1
    32    16    18    1
    33    16    17    1
