@<TRIPOS>MOLECULE
11720_out_ligand_01.pdbqt
 33 36 0 0 0
SMALL
GASTEIGER

@<TRIPOS>ATOM
      1  C         20.9960  -22.9370  -10.1540 C.2     1  UNL1        0.0800
      2  C         20.1710  -22.1620  -10.9730 C.2     1  UNL1        0.0260
      3  C         20.7070  -21.5500  -12.1050 C.2     1  UNL1        0.0090
      4  C         22.0580  -21.7270  -12.4450 C.2     1  UNL1       -0.0460
      5  C         22.6100  -21.0540  -13.6660 C.3     1  UNL1        0.0490
      6  C         22.8660  -22.5290  -11.6230 C.2     1  UNL1        0.0390
      7  C         22.3390  -23.1350  -10.4760 C.2     1  UNL1        0.0420
      8  C         24.2940  -22.7700  -11.9510 C.2     1  UNL1        0.2520
      9  O         25.1680  -22.0660  -11.4700 O.2     1  UNL1       -0.2680
     10  N         24.5080  -23.8160  -12.8260 N.am    1  UNL1       -0.3500
     11  H         23.7040  -24.2750  -13.2370 H       1  UNL1        0.1630
     12  C         25.8100  -24.0480  -13.4180 C.3     1  UNL1        0.2030
     13  C         25.7710  -23.6010  -14.8330 C.ar    1  UNL1        0.1520
     14  N         25.5000  -24.3610  -15.8820 N.ar    1  UNL1       -0.1320
     15  N         25.6080  -23.5820  -17.0120 N.ar    1  UNL1       -0.1300
     16  C         25.9480  -22.3680  -16.6410 C.ar    1  UNL1        0.1570
     17  C         26.2150  -21.1760  -17.3690 C.2     1  UNL1        0.0530
     18  N         26.0390  -22.3150  -15.2580 N.ar    1  UNL1       -0.2900
     19  C         26.5220  -20.0460  -16.7030 C.2     1  UNL1        0.0050
     20  C         26.5920  -20.0170  -15.2510 C.2     1  UNL1        0.0180
     21  C         26.3550  -21.1460  -14.5610 C.2     1  UNL1        0.1000
     22  S         20.3240  -23.7250   -8.7110 S.O2    1  UNL1        0.2630
     23  O         20.5500  -22.8240   -7.5970 O.2     1  UNL1       -0.2000
     24  O         20.7960  -25.0910   -8.6630 O.2     1  UNL1       -0.2000
     25  N         18.6620  -23.6940   -9.0140 N.pl3   1  UNL1       -0.2810
     26  H         18.4520  -23.1850   -9.8720 H       1  UNL1        0.1790
     27  C         17.7910  -23.4950   -7.9080 C.2     1  UNL1        0.0420
     28  C         17.7530  -24.4290   -6.8730 C.2     1  UNL1        0.0300
     29  C         16.8550  -24.2590   -5.8170 C.2     1  UNL1        0.0090
     30  C         15.9920  -23.1540   -5.7880 C.2     1  UNL1       -0.0620
     31  C         14.9920  -22.9960   -4.6790 C.3     1  UNL1        0.0480
     32  C         16.0320  -22.2290   -6.8390 C.2     1  UNL1        0.0090
     33  C         16.9320  -22.3960   -7.8940 C.2     1  UNL1        0.0300
@<TRIPOS>BOND
     1    17    19    2
     2    17    16    1
     3    15    16   ar
     4    15    14   ar
     5    19    20    1
     6    16    18   ar
     7    14    13   ar
     8    18    13   ar
     9    18    21    1
    10    20    21    2
    11    13    12    1
    12     5     4    1
    13    12    10    1
    14    11    10    1
    15    10     8   am
    16     4     3    2
    17     4     6    1
    18     3     2    1
    19     8     6    1
    20     8     9    2
    21     6     7    2
    22     2     1    2
    23     7     1    1
    24     1    22    1
    25    26    25    1
    26    25    22    1
    27    25    27    1
    28    22    24    2
    29    22    23    2
    30    27    33    2
    31    27    28    1
    32    33    32    1
    33    28    29    2
    34    32    30    2
    35    29    30    1
    36    30    31    1
