@<TRIPOS>MOLECULE
11724_out_ligand_01.pdbqt
 28 30 0 0 0
SMALL
GASTEIGER

@<TRIPOS>ATOM
      1  C         18.4830  -22.6430   -9.6400 C.2     1  UNL1        0.0350
      2  C         17.3200  -22.6420  -10.4230 C.2     1  UNL1        0.0290
      3  C         16.0570  -22.6720   -9.8270 C.2     1  UNL1        0.0030
      4  C         15.9410  -22.7090   -8.4380 C.2     1  UNL1        0.0150
      5  C         17.0960  -22.7220   -7.6480 C.2     1  UNL1        0.0120
      6  C         18.3630  -22.6740   -8.2490 C.2     1  UNL1        0.0440
      7  N         19.7120  -22.6000  -10.3290 N.am    1  UNL1       -0.3230
      8  C         20.1940  -21.5950  -11.1480 C.2     1  UNL1        0.2590
      9  O         19.6540  -20.5130  -11.3590 O.2     1  UNL1       -0.2670
     10  H         20.3150  -23.4140  -10.2260 H       1  UNL1        0.1690
     11  C         21.5140  -21.8660  -11.8000 C.2     1  UNL1        0.0650
     12  C         21.7790  -21.2190  -13.0180 C.2     1  UNL1        0.0200
     13  C         23.0000  -21.3980  -13.6740 C.2     1  UNL1        0.0010
     14  C         23.9750  -22.2230  -13.1170 C.2     1  UNL1        0.0030
     15  C         23.7230  -22.8820  -11.9150 C.2     1  UNL1        0.0380
     16  C         22.4900  -22.7260  -11.2730 C.2     1  UNL1        0.0840
     17  O         22.3120  -23.4080  -10.0960 O.2     1  UNL1       -0.3500
     18  C         23.2890  -22.9950   -9.1260 C.3     1  UNL1        0.1710
     19  C         22.6850  -21.8620   -8.3170 C.3     1  UNL1        0.0340
     20  C         17.0080  -22.7760   -6.1670 C.2     1  UNL1        0.1410
     21  N         17.8030  -22.0730   -5.4250 N.2     1  UNL1       -0.2350
     22  C         17.6740  -22.1790   -4.0590 C.2     1  UNL1        0.0380
     23  C         18.6000  -21.3070   -3.2640 C.3     1  UNL1        0.0700
     24  C         16.7920  -22.9830   -3.4530 C.2     1  UNL1        0.1010
     25  C         15.9100  -23.7980   -4.2990 C.2     1  UNL1        0.2480
     26  O         15.1040  -24.5830   -3.8180 O.2     1  UNL1       -0.2680
     27  N         16.0600  -23.6190   -5.6410 N.am    1  UNL1       -0.3070
     28  H         15.4790  -24.1990   -6.2290 H       1  UNL1        0.1700
@<TRIPOS>BOND
     1    13    14    2
     2    13    12    1
     3    14    15    1
     4    12    11    2
     5    15    16    2
     6    11    16    1
     7    11     8    1
     8     9     8    2
     9    16    17    1
    10     8     7   am
    11     2     3    1
    12     2     1    2
    13     7    10    1
    14     7     1    1
    15    17    18    1
    16     3     4    2
    17     1     6    1
    18    18    19    1
    19     4     5    1
    20     6     5    2
    21     5    20    1
    22    28    27    1
    23    20    27    1
    24    20    21    2
    25    27    25   am
    26    21    22    1
    27    25    26    2
    28    25    24    1
    29    22    24    2
    30    22    23    1
