@<TRIPOS>MOLECULE
11787_out_ligand_01.pdbqt
 31 33 0 0 0
SMALL
GASTEIGER

@<TRIPOS>ATOM
      1  C         17.4990  -22.1910   -5.3520 C.2     1  UNL1        0.0650
      2  C         17.4600  -22.2350   -3.9480 C.2     1  UNL1        0.0200
      3  C         16.2630  -22.4860   -3.2730 C.2     1  UNL1        0.0010
      4  C         15.0900  -22.6880   -3.9940 C.2     1  UNL1        0.0030
      5  C         15.1120  -22.6570   -5.3870 C.2     1  UNL1        0.0380
      6  C         16.3150  -22.4390   -6.0710 C.2     1  UNL1        0.0840
      7  C         18.8340  -21.9110   -5.9880 C.2     1  UNL1        0.2590
      8  N         19.2700  -22.8390   -6.9150 N.am    1  UNL1       -0.3230
      9  H         18.6330  -23.6130   -7.0980 H       1  UNL1        0.1690
     10  O         19.4340  -20.8920   -5.6600 O.2     1  UNL1       -0.2670
     11  C         20.4760  -22.8480   -7.6390 C.2     1  UNL1        0.0350
     12  C         20.7700  -24.0060   -8.3710 C.2     1  UNL1        0.0300
     13  C         21.9510  -24.0990   -9.1140 C.2     1  UNL1        0.0190
     14  C         22.8590  -23.0360   -9.1340 C.2     1  UNL1        0.0320
     15  C         22.5620  -21.8720   -8.4170 C.2     1  UNL1        0.0190
     16  C         21.3800  -21.7840   -7.6700 C.2     1  UNL1        0.0300
     17  C         24.1000  -23.1830   -9.9400 C.2     1  UNL1        0.2490
     18  N         25.1070  -23.9550   -9.4250 N.am    1  UNL1       -0.3660
     19  H         24.9420  -24.6240   -8.6890 H       1  UNL1        0.1590
     20  H         25.8780  -24.1460  -10.0540 H       1  UNL1        0.1590
     21  O         24.2140  -22.6680  -11.0450 O.2     1  UNL1       -0.2680
     22  O         16.3440  -22.4040   -7.4410 O.2     1  UNL1       -0.3480
     23  C         15.8220  -23.5690   -8.0960 C.3     1  UNL1        0.2020
     24  C         15.8440  -23.4500   -9.6250 C.3     1  UNL1        0.2020
     25  O         16.0770  -22.1020  -10.0300 O.2     1  UNL1       -0.3490
     26  C         17.2760  -21.7960  -10.6110 C.2     1  UNL1        0.0680
     27  C         17.6330  -20.5800  -11.1940 C.2     1  UNL1        0.0370
     28  C         18.9030  -20.4150  -11.7560 C.2     1  UNL1        0.0030
     29  C         19.8200  -21.4610  -11.7380 C.2     1  UNL1        0.0000
     30  C         19.4720  -22.6760  -11.1530 C.2     1  UNL1        0.0030
     31  C         18.2050  -22.8390  -10.5900 C.2     1  UNL1        0.0370
@<TRIPOS>BOND
     1    28    29    2
     2    28    27    1
     3    29    30    1
     4    27    26    2
     5    30    31    2
     6    21    17    2
     7    26    31    1
     8    26    25    1
     9    20    18    1
    10    25    24    1
    11    17    18   am
    12    17    14    1
    13    24    23    1
    14    18    19    1
    15    14    13    2
    16    14    15    1
    17    13    12    1
    18    15    16    2
    19    12    11    2
    20    23    22    1
    21    16    11    1
    22    11     8    1
    23    22     6    1
    24     9     8    1
    25     8     7   am
    26     6     5    1
    27     6     1    2
    28     7    10    2
    29     7     1    1
    30     5     4    2
    31     1     2    1
    32     4     3    1
    33     2     3    2
