@<TRIPOS>MOLECULE
11819_out_ligand_01.pdbqt
 27 30 0 0 0
SMALL
GASTEIGER

@<TRIPOS>ATOM
      1  C         17.8920  -22.3290  -10.3220 C.2     1  UNL1       -0.0400
      2  C         18.9220  -23.1090   -9.7830 C.2     1  UNL1        0.0100
      3  C         20.2400  -22.9410  -10.2200 C.2     1  UNL1        0.0160
      4  C         20.5580  -21.9990  -11.2090 C.2     1  UNL1        0.0170
      5  C         19.5210  -21.2270  -11.7530 C.2     1  UNL1        0.0160
      6  C         18.2020  -21.3930  -11.3170 C.2     1  UNL1        0.0100
      7  C         16.4640  -22.5180   -9.8760 C.3     1  UNL1        0.1610
      8  N         16.3560  -22.3860   -8.4420 N.am    1  UNL1       -0.3530
      9  C         16.0520  -23.4540   -7.6280 C.2     1  UNL1        0.2550
     10  O         15.7530  -24.5610   -8.0680 O.2     1  UNL1       -0.2680
     11  H         16.7000  -21.5280   -8.0250 H       1  UNL1        0.1630
     12  C         16.1020  -23.2320   -6.1550 C.2     1  UNL1        0.0700
     13  C         17.1780  -23.7790   -5.4370 C.2     1  UNL1        0.0200
     14  C         17.2740  -23.5990   -4.0530 C.2     1  UNL1        0.0010
     15  C         16.2970  -22.8730   -3.3740 C.2     1  UNL1        0.0030
     16  C         15.2250  -22.3260   -4.0770 C.2     1  UNL1        0.0430
     17  C         15.1330  -22.5070   -5.4580 C.2     1  UNL1        0.1320
     18  F         14.0850  -21.9590   -6.0920 F       1  UNL1       -0.2050
     19  C         21.9450  -21.8500  -11.6440 C.2     1  UNL1        0.1820
     20  N         22.4130  -21.6790  -12.8690 N.2     1  UNL1       -0.2010
     21  C         23.7620  -21.6040  -12.6870 C.2     1  UNL1        0.1860
     22  N         24.6970  -21.4300  -13.6500 N.2     1  UNL1       -0.2390
     23  C         24.0730  -21.7340  -11.3450 C.2     1  UNL1        0.1250
     24  C         25.9650  -21.3940  -13.1760 C.2     1  UNL1        0.1190
     25  C         26.3430  -21.5170  -11.8380 C.3     1  UNL1        0.0220
     26  C         25.3670  -21.6970  -10.8550 C.2     1  UNL1        0.0430
     27  O         22.9070  -21.8930  -10.6590 O.2     1  UNL1       -0.2870
@<TRIPOS>BOND
     1    22    24    2
     2    22    21    1
     3    24    25    1
     4    20    21    2
     5    20    19    2
     6    21    23    1
     7    25    26    1
     8     5     6    1
     9     5     4    2
    10    19     4    1
    11    19    27    1
    12    23    26    2
    13    23    27    1
    14     6     1    2
    15     4     3    1
    16     1     7    1
    17     1     2    1
    18     3     2    2
    19     7     8    1
    20     8    11    1
    21     8     9   am
    22    10     9    2
    23     9    12    1
    24    12    17    2
    25    12    13    1
    26    18    17    1
    27    17    16    1
    28    13    14    2
    29    16    15    2
    30    14    15    1
