@<TRIPOS>MOLECULE
11825_out_ligand_01.pdbqt
 30 33 0 0 0
SMALL
GASTEIGER

@<TRIPOS>ATOM
      1  C         22.4170  -23.2600   -9.1000 C.2     1  UNL1        0.0340
      2  C         22.2450  -22.1710   -8.2470 C.2     1  UNL1        0.0300
      3  C         21.0410  -21.9910   -7.5490 C.2     1  UNL1        0.0170
      4  C         19.9830  -22.8970   -7.6920 C.2     1  UNL1        0.0100
      5  C         20.1640  -23.9860   -8.5550 C.2     1  UNL1        0.0170
      6  C         21.3640  -24.1660   -9.2510 C.2     1  UNL1        0.0300
      7  N         23.5890  -23.5070   -9.8340 N.am    1  UNL1       -0.3250
      8  C         24.5030  -22.5870  -10.3210 C.2     1  UNL1        0.2510
      9  O         24.4500  -21.3650  -10.2000 O.2     1  UNL1       -0.2700
     10  H         23.8470  -24.4820   -9.9660 H       1  UNL1        0.1690
     11  C         25.6430  -23.2500  -11.1160 C.3     1  UNL1        0.2170
     12  C         26.6540  -23.8210  -10.1240 C.3     1  UNL1        0.0500
     13  O         26.3500  -22.3240  -11.9390 O.2     1  UNL1       -0.3360
     14  C         25.7690  -21.8740  -13.0950 C.2     1  UNL1        0.0870
     15  C         25.0750  -22.6750  -14.0080 C.2     1  UNL1        0.0380
     16  C         24.5100  -22.1130  -15.1580 C.2     1  UNL1        0.0030
     17  C         24.6310  -20.7490  -15.4090 C.2     1  UNL1        0.0020
     18  C         25.3160  -19.9380  -14.5090 C.2     1  UNL1        0.0220
     19  C         25.8800  -20.4980  -13.3580 C.2     1  UNL1        0.0440
     20 BR         26.7860  -19.3310  -12.1600 Br      1  UNL1       -0.0480
     21  C         18.7060  -22.7520   -6.9820 C.ar    1  UNL1        0.1390
     22  N         17.5120  -22.6880   -7.5480 N.ar    1  UNL1       -0.2280
     23  C         16.6050  -22.5570   -6.5270 C.ar    1  UNL1        0.0860
     24  C         15.2090  -22.4450   -6.5720 C.2     1  UNL1        0.0340
     25  C         17.2480  -22.5400   -5.2970 C.ar    1  UNL1        0.0620
     26  C         14.5060  -22.3200   -5.3670 C.2     1  UNL1        0.0020
     27  C         15.1800  -22.3080   -4.1430 C.2     1  UNL1        0.0020
     28  C         16.5760  -22.4180   -4.0790 C.2     1  UNL1        0.0320
     29  N         18.5750  -22.6660   -5.6130 N.ar    1  UNL1       -0.3380
     30  H         19.3310  -22.6950   -4.9470 H       1  UNL1        0.1670
@<TRIPOS>BOND
     1    17    16    2
     2    17    18    1
     3    16    15    1
     4    18    19    2
     5    15    14    2
     6    19    14    1
     7    19    20    1
     8    14    13    1
     9    13    11    1
    10    11     8    1
    11    11    12    1
    12     8     9    2
    13     8     7   am
    14    10     7    1
    15     7     1    1
    16     6     1    2
    17     6     5    1
    18     1     2    1
    19     5     4    2
    20     2     3    2
    21     4     3    1
    22     4    21    1
    23    22    21   ar
    24    22    23   ar
    25    21    29   ar
    26    24    23    2
    27    24    26    1
    28    23    25   ar
    29    29    25   ar
    30    29    30    1
    31    26    27    2
    32    25    28    2
    33    27    28    1
