@<TRIPOS>MOLECULE
11849_out_ligand_01.pdbqt
 37 40 0 0 0
SMALL
GASTEIGER

@<TRIPOS>ATOM
      1  C         22.7470  -23.4550   -9.4800 C.3     1  UNL1        0.1640
      2  C         23.7180  -22.3030   -9.2700 C.3     1  UNL1        0.1250
      3  C         24.4810  -21.9960  -10.5430 C.2     1  UNL1        0.2230
      4  N         24.2580  -22.9340  -11.5370 N.am    1  UNL1       -0.3270
      5  H         23.6050  -23.6720  -11.3070 H       1  UNL1        0.1690
      6  O         25.2010  -21.0040  -10.6200 O.2     1  UNL1       -0.2730
      7  C         24.7200  -22.9060  -12.8680 C.2     1  UNL1        0.0350
      8  C         25.0560  -24.1350  -13.4480 C.2     1  UNL1        0.0320
      9  C         25.4690  -24.2000  -14.7790 C.2     1  UNL1        0.0400
     10  C         25.5610  -23.0350  -15.5430 C.2     1  UNL1        0.0840
     11  C         25.2200  -21.7990  -14.9830 C.2     1  UNL1        0.0670
     12  C         24.8260  -21.7440  -13.6320 C.2     1  UNL1        0.0490
     13  O         25.8870  -23.1780  -16.8650 O.2     1  UNL1       -0.3550
     14  C         24.7120  -23.4130  -17.6460 C.3     1  UNL1        0.2100
     15  C         25.2710  -20.5450  -15.7890 C.2     1  UNL1        0.2520
     16  N         24.1980  -20.2800  -16.5960 N.am    1  UNL1       -0.3660
     17  H         23.4630  -20.9480  -16.7820 H       1  UNL1        0.1590
     18  H         24.2630  -19.4670  -17.1970 H       1  UNL1        0.1590
     19  O         26.2110  -19.7640  -15.7530 O.2     1  UNL1       -0.2680
     20  N         21.3470  -23.0350   -9.5180 N.ar    1  UNL1       -0.2330
     21  N         20.6770  -23.1050   -8.3260 N.ar    1  UNL1       -0.1680
     22  C         19.4280  -22.7530   -8.2720 C.ar    1  UNL1        0.0980
     23  C         18.6750  -22.2630   -9.4440 C.ar    1  UNL1        0.0110
     24  C         17.3300  -21.8700   -9.3840 C.2     1  UNL1        0.0150
     25  C         19.3650  -22.1830  -10.6500 C.ar    1  UNL1        0.0460
     26  C         16.6840  -21.4120  -10.5360 C.2     1  UNL1        0.0010
     27  C         17.3760  -21.3390  -11.7440 C.2     1  UNL1        0.0010
     28  C         18.7170  -21.7200  -11.8030 C.2     1  UNL1        0.0180
     29  C         20.7880  -22.5700  -10.7030 C.ar    1  UNL1        0.2740
     30  O         21.4160  -22.4430  -11.7510 O.2     1  UNL1       -0.2660
     31  C         18.7590  -22.8590   -6.9590 C.2     1  UNL1       -0.0050
     32  C         18.0660  -24.0260   -6.6370 C.2     1  UNL1        0.0140
     33  C         17.4300  -24.1290   -5.4000 C.2     1  UNL1        0.0070
     34  C         17.4680  -23.0620   -4.4930 C.2     1  UNL1       -0.0620
     35  C         16.8000  -23.1860   -3.1540 C.3     1  UNL1        0.0480
     36  C         18.1740  -21.8970   -4.8290 C.2     1  UNL1        0.0070
     37  C         18.8140  -21.7880   -6.0640 C.2     1  UNL1        0.0140
@<TRIPOS>BOND
     1    14    13    1
     2    18    16    1
     3    13    10    1
     4    17    16    1
     5    16    15   am
     6    15    19    2
     7    15    11    1
     8    10    11    2
     9    10     9    1
    10    11    12    1
    11     9     8    2
    12    12     7    2
    13     8     7    1
    14     7     4    1
    15    28    27    2
    16    28    25    1
    17    30    29    2
    18    27    26    1
    19     4     5    1
    20     4     3   am
    21    29    25   ar
    22    29    20   ar
    23    25    23   ar
    24     6     3    2
    25     3     2    1
    26    26    24    2
    27    20     1    1
    28    20    21   ar
    29     1     2    1
    30    23    24    1
    31    23    22   ar
    32    21    22   ar
    33    22    31    1
    34    31    32    2
    35    31    37    1
    36    32    33    1
    37    37    36    2
    38    33    34    2
    39    36    34    1
    40    34    35    1
