@<TRIPOS>MOLECULE
1187_out_ligand_01.pdbqt
 32 35 0 0 0
SMALL
GASTEIGER

@<TRIPOS>ATOM
      1  C         18.7120  -22.5460   -9.5950 C.2     1  UNL1        0.0340
      2  C         17.9590  -21.7700  -10.4860 C.2     1  UNL1        0.0170
      3  C         18.5590  -21.2660  -11.6380 C.2     1  UNL1        0.0030
      4  C         19.9040  -21.5350  -11.8960 C.2     1  UNL1        0.0290
      5  C         20.6680  -22.3080  -11.0090 C.2     1  UNL1        0.0350
      6  C         20.0660  -22.8030   -9.8510 C.2     1  UNL1        0.0460
      7  N         22.0180  -22.5220  -11.3490 N.am    1  UNL1       -0.3230
      8  C         23.1300  -21.9090  -10.8030 C.2     1  UNL1        0.2570
      9  O         23.1670  -21.1250   -9.8660 O.2     1  UNL1       -0.2670
     10  H         22.1970  -23.2300  -12.0520 H       1  UNL1        0.1690
     11  C         24.4110  -22.3440  -11.4130 C.2     1  UNL1        0.0430
     12  C         25.2990  -23.0210  -10.5650 C.2     1  UNL1        0.0180
     13  C         26.4930  -23.5210  -11.0680 C.2     1  UNL1        0.0020
     14  C         26.8010  -23.3450  -12.4170 C.2     1  UNL1        0.0120
     15  C         25.9350  -22.6490  -13.2780 C.2     1  UNL1       -0.0250
     16  C         26.2760  -22.4680  -14.6290 C.2     1  UNL1        0.0120
     17  C         24.7190  -22.1200  -12.7810 C.2     1  UNL1       -0.0100
     18  C         25.4440  -21.7570  -15.4910 C.2     1  UNL1        0.0010
     19  C         24.2610  -21.2100  -15.0140 C.2     1  UNL1        0.0010
     20  C         23.9030  -21.3830  -13.6760 C.2     1  UNL1        0.0130
     21  C         18.1030  -23.0790   -8.3470 C.2     1  UNL1        0.2560
     22  N         17.3210  -22.1710   -7.6640 N.am    1  UNL1       -0.3210
     23  H         17.1440  -21.2670   -8.0900 H       1  UNL1        0.1690
     24  O         18.3220  -24.2440   -8.0400 O.2     1  UNL1       -0.2670
     25  C         16.6350  -22.3520   -6.4420 C.2     1  UNL1        0.0680
     26  C         15.2880  -22.7110   -6.3600 C.2     1  UNL1        0.0320
     27  C         14.6780  -22.8740   -5.1140 C.2     1  UNL1        0.0020
     28  C         15.4110  -22.6830   -3.9460 C.2     1  UNL1        0.0030
     29  C         16.7590  -22.3260   -4.0150 C.2     1  UNL1        0.0390
     30  C         17.3790  -22.1590   -5.2580 C.2     1  UNL1        0.0950
     31  O         18.7000  -21.8130   -5.4390 O.2     1  UNL1       -0.3540
     32  C         19.0870  -20.5100   -5.0230 C.3     1  UNL1        0.2100
@<TRIPOS>BOND
     1    18    19    1
     2    18    16    2
     3    19    20    2
     4    16    15    1
     5    20    17    1
     6    15    17    1
     7    15    14    2
     8    17    11    2
     9    14    13    1
    10    10     7    1
    11     4     3    2
    12     4     5    1
    13     3     2    1
    14    11     8    1
    15    11    12    1
    16     7     5    1
    17     7     8   am
    18    13    12    2
    19     5     6    2
    20     8     9    2
    21     2     1    2
    22     6     1    1
    23     1    21    1
    24    21    24    2
    25    21    22   am
    26    23    22    1
    27    22    25    1
    28    25    26    2
    29    25    30    1
    30    26    27    1
    31    31    30    1
    32    31    32    1
    33    30    29    2
    34    27    28    2
    35    29    28    1
