@<TRIPOS>MOLECULE
11883_out_ligand_01.pdbqt
 33 37 0 0 0
SMALL
GASTEIGER

@<TRIPOS>ATOM
      1  C         20.8980  -21.6910  -10.9930 C.3     1  UNL1        0.1600
      2  N         20.8540  -22.8830  -10.1870 N.ar    1  UNL1       -0.3140
      3  C         21.9290  -23.5550   -9.6480 C.ar    1  UNL1        0.1480
      4  N         21.4840  -24.5790   -8.9450 N.ar    1  UNL1       -0.1320
      5  N         20.1140  -24.5910   -9.0280 N.ar    1  UNL1       -0.1230
      6  C         19.7510  -23.5840   -9.7860 C.ar    1  UNL1        0.1910
      7  C         23.3490  -23.1530   -9.8070 C.3     1  UNL1        0.2030
      8  N         23.7400  -23.4260  -11.1720 N.am    1  UNL1       -0.3500
      9  C         24.4050  -22.4930  -11.9290 C.2     1  UNL1        0.2520
     10  O         24.7660  -21.4070  -11.4900 O.2     1  UNL1       -0.2680
     11  H         23.2860  -24.2110  -11.6190 H       1  UNL1        0.1630
     12  C         24.6760  -22.8560  -13.3470 C.2     1  UNL1        0.0340
     13  C         25.2780  -24.0870  -13.6990 C.2     1  UNL1        0.0200
     14  C         25.5360  -24.3930  -15.0410 C.2     1  UNL1        0.0410
     15  C         25.1940  -23.4570  -15.9910 C.2     1  UNL1        0.1050
     16  C         24.6190  -22.2530  -15.6510 C.2     1  UNL1        0.1060
     17  O         25.3780  -23.5830  -17.3320 O.2     1  UNL1       -0.3230
     18  C         24.3520  -21.9190  -14.3410 C.2     1  UNL1        0.0560
     19  O         24.3650  -21.4770  -16.7370 O.2     1  UNL1       -0.3230
     20  C         24.8630  -22.3180  -17.7990 C.3     1  UNL1        0.3520
     21  S         18.1350  -23.1890  -10.2470 S.3     1  UNL1       -0.0810
     22  C         17.6060  -22.2520   -8.7790 C.3     1  UNL1        0.1850
     23  C         16.5600  -23.0360   -8.0200 C.2     1  UNL1        0.2340
     24  O         15.7260  -23.6870   -8.6670 O.2     1  UNL1       -0.2720
     25  N         16.5250  -23.0420   -6.6370 N.am    1  UNL1       -0.3170
     26  C         15.4790  -23.8350   -5.9740 C.2     1  UNL1        0.1370
     27  C         17.2890  -22.3930   -5.6450 C.2     1  UNL1        0.0430
     28  C         15.7540  -23.8150   -4.4710 C.2     1  UNL1        0.0610
     29  C         16.8440  -22.7990   -4.3780 C.2     1  UNL1       -0.0300
     30  C         17.4110  -22.3170   -3.2040 C.2     1  UNL1        0.0090
     31  C         18.4490  -21.3970   -3.3000 C.2     1  UNL1        0.0010
     32  C         18.9040  -20.9820   -4.5560 C.2     1  UNL1        0.0020
     33  C         18.3260  -21.4810   -5.7340 C.2     1  UNL1        0.0300
@<TRIPOS>BOND
     1    20    17    1
     2    20    19    1
     3    17    15    1
     4    19    16    1
     5    15    16    2
     6    15    14    1
     7    16    18    1
     8    14    13    2
     9    18    12    2
    10    13    12    1
    11    12     9    1
    12     9    10    2
    13     9     8   am
    14    11     8    1
    15     8     7    1
    16     1     2    1
    17    21     6    1
    18    21    22    1
    19     2     6   ar
    20     2     3   ar
    21     7     3    1
    22     6     5   ar
    23     3     4   ar
    24     5     4   ar
    25    22    23    1
    26    24    23    2
    27    23    25   am
    28    25    26    1
    29    25    27    1
    30    26    28    2
    31    33    27    2
    32    33    32    1
    33    27    29    1
    34    32    31    2
    35    28    29    1
    36    29    30    2
    37    31    30    1
