@<TRIPOS>MOLECULE
11933_out_ligand_01.pdbqt
 33 35 0 0 0
SMALL
GASTEIGER

@<TRIPOS>ATOM
      1  C         22.5210  -23.3480   -8.8340 C.2     1  UNL1        0.0340
      2  C         21.6730  -24.4450   -9.0420 C.2     1  UNL1        0.0310
      3  C         20.3620  -24.4390   -8.5550 C.2     1  UNL1        0.0270
      4  C         19.8940  -23.3230   -7.8630 C.2     1  UNL1        0.0750
      5  C         20.7280  -22.2260   -7.6410 C.2     1  UNL1        0.0270
      6  C         22.0380  -22.2410   -8.1320 C.2     1  UNL1        0.0310
      7  S         18.2370  -23.2960   -7.2240 S.O2    1  UNL1        0.2450
      8  O         18.0620  -24.4650   -6.3870 O.2     1  UNL1       -0.2060
      9  O         17.9770  -21.9580   -6.7440 O.2     1  UNL1       -0.2060
     10  N         17.3460  -23.5940   -8.6520 N.pl3   1  UNL1       -0.1810
     11  H         16.3580  -23.5690   -8.3900 H       1  UNL1        0.1460
     12  C         17.6120  -22.6510   -9.6980 C.2     1  UNL1        0.0230
     13  C         16.6070  -21.7940  -10.1470 C.2     1  UNL1        0.0240
     14  C         16.8920  -20.8500  -11.1340 C.2     1  UNL1        0.0030
     15  C         18.1820  -20.7540  -11.6560 C.2     1  UNL1        0.0160
     16  C         19.2070  -21.5920  -11.1880 C.2     1  UNL1        0.0490
     17  C         18.9080  -22.5440  -10.2020 C.2     1  UNL1        0.0400
     18  C         20.5960  -21.4880  -11.7660 C.3     1  UNL1        0.4170
     19  F         20.5870  -21.0000  -13.0380 F       1  UNL1       -0.1660
     20  F         21.2520  -22.6800  -11.8290 F       1  UNL1       -0.1660
     21  F         21.4050  -20.6550  -11.0540 F       1  UNL1       -0.1660
     22  N         23.8240  -23.4350   -9.3680 N.am    1  UNL1       -0.3270
     23  C         24.5430  -22.4360  -10.0040 C.2     1  UNL1        0.2220
     24  O         24.1980  -21.2670  -10.1380 O.2     1  UNL1       -0.2730
     25  H         24.2970  -24.3200   -9.2350 H       1  UNL1        0.1690
     26  C         25.8890  -22.9120  -10.5220 C.3     1  UNL1        0.1080
     27  C         25.8580  -23.3450  -11.9860 C.3     1  UNL1        0.0470
     28  C         25.3760  -22.2590  -12.9150 C.2     1  UNL1       -0.0580
     29  C         24.1220  -22.3520  -13.5340 C.2     1  UNL1        0.0070
     30  C         23.6720  -21.3340  -14.3760 C.2     1  UNL1        0.0010
     31  C         24.4700  -20.2150  -14.6070 C.2     1  UNL1        0.0000
     32  C         25.7160  -20.1110  -13.9950 C.2     1  UNL1        0.0010
     33  C         26.1670  -21.1280  -13.1500 C.2     1  UNL1        0.0070
@<TRIPOS>BOND
     1    31    30    2
     2    31    32    1
     3    30    29    1
     4    32    33    2
     5    29    28    2
     6    33    28    1
     7    19    18    1
     8    28    27    1
     9    27    26    1
    10    20    18    1
    11    18    16    1
    12    18    21    1
    13    15    16    2
    14    15    14    1
    15    16    17    1
    16    14    13    2
    17    26    23    1
    18    17    12    2
    19    13    12    1
    20    24    23    2
    21    23    22   am
    22    12    10    1
    23    22    25    1
    24    22     1    1
    25     2     1    2
    26     2     3    1
    27     1     6    1
    28    10    11    1
    29    10     7    1
    30     3     4    2
    31     6     5    2
    32     4     5    1
    33     4     7    1
    34     7     9    2
    35     7     8    2
