@<TRIPOS>MOLECULE
11930_out_ligand_01.pdbqt
 28 31 0 0 0
SMALL
GASTEIGER

@<TRIPOS>ATOM
      1  C         19.9580  -21.9580  -11.1100 C.2     1  UNL1        0.0330
      2  C         18.8180  -21.3550  -11.6980 C.2     1  UNL1        0.0180
      3  C         17.5350  -21.6070  -11.1950 C.2     1  UNL1        0.0190
      4  C         17.4370  -22.4540  -10.1070 C.2     1  UNL1        0.0480
      5  C         18.5500  -23.0300   -9.5230 C.2     1  UNL1        0.0490
      6  C         19.8280  -22.8000   -9.9940 C.2     1  UNL1        0.0350
      7  C         18.0850  -23.8510   -8.4060 C.2     1  UNL1        0.2620
      8  O         18.8160  -24.4940   -7.6790 O.2     1  UNL1       -0.2670
      9  N         16.7230  -23.7300   -8.3780 N.am    1  UNL1       -0.2740
     10  C         16.2620  -22.9010   -9.3600 C.2     1  UNL1        0.2620
     11  O         15.1280  -22.5440   -9.6120 O.2     1  UNL1       -0.2670
     12  C         21.3290  -21.6850  -11.6270 C.2     1  UNL1        0.2560
     13  N         22.3470  -22.2990  -10.9230 N.am    1  UNL1       -0.3230
     14  H         22.0970  -22.7840  -10.0710 H       1  UNL1        0.1690
     15  O         21.4360  -20.9370  -12.5890 O.2     1  UNL1       -0.2670
     16  C         23.7290  -22.2550  -11.2070 C.2     1  UNL1        0.0350
     17  C         24.6260  -21.3900  -10.5800 C.2     1  UNL1        0.0290
     18  C         25.9820  -21.4100  -10.9200 C.2     1  UNL1        0.0030
     19  C         26.4520  -22.2890  -11.8930 C.2     1  UNL1        0.0070
     20  C         25.5670  -23.1510  -12.5450 C.2     1  UNL1       -0.0600
     21  C         26.0710  -24.1240  -13.5690 C.3     1  UNL1        0.0480
     22  C         24.2100  -23.1350  -12.1880 C.2     1  UNL1        0.0360
     23  C         15.8750  -24.4210   -7.4350 C.3     1  UNL1        0.2000
     24  C         15.8250  -23.6500   -6.1640 C.2     1  UNL1        0.0700
     25  C         15.1310  -22.5240   -5.7680 C.2     1  UNL1        0.0360
     26  C         15.5130  -22.2700   -4.4290 C.2     1  UNL1        0.0270
     27  C         16.4120  -23.2550   -4.0950 C.2     1  UNL1        0.1420
     28  O         16.6080  -24.0970   -5.1410 O.2     1  UNL1       -0.3250
@<TRIPOS>BOND
     1    21    20    1
     2    15    12    2
     3    20    22    1
     4    20    19    2
     5    22    16    2
     6    19    18    1
     7     2     3    1
     8     2     1    2
     9    12     1    1
    10    12    13   am
    11    16    13    1
    12    16    17    1
    13     3     4    2
    14     1     6    1
    15    13    14    1
    16    18    17    2
    17     4     5    1
    18     4    10    1
    19     6     5    2
    20    11    10    2
    21     5     7    1
    22    10     9   am
    23     7     9   am
    24     7     8    2
    25     9    23    1
    26    23    24    1
    27    24    25    2
    28    24    28    1
    29    25    26    1
    30    28    27    1
    31    26    27    2
