@<TRIPOS>MOLECULE
1194_out_ligand_01.pdbqt
 30 33 0 0 0
SMALL
GASTEIGER

@<TRIPOS>ATOM
      1  C         20.2740  -22.2370   -7.4800 C.3     1  UNL1        0.0500
      2  C         21.1470  -22.3510   -8.7020 C.2     1  UNL1       -0.0350
      3  C         22.5330  -22.4790   -8.5160 C.2     1  UNL1        0.0100
      4  C         23.3940  -22.5980   -9.6070 C.2     1  UNL1        0.0160
      5  C         22.8880  -22.5950  -10.9110 C.2     1  UNL1        0.0120
      6  C         21.5000  -22.4680  -11.0980 C.2     1  UNL1        0.0450
      7  C         20.6210  -22.3380  -10.0130 C.2     1  UNL1        0.0410
      8  N         19.2220  -22.2160  -10.1790 N.am    1  UNL1       -0.3270
      9  C         18.5270  -21.3080  -10.9600 C.2     1  UNL1        0.2220
     10  O         18.9980  -20.3690  -11.5900 O.2     1  UNL1       -0.2730
     11  H         18.6560  -22.8850   -9.6740 H       1  UNL1        0.1690
     12  C         17.0300  -21.5680  -10.9580 C.3     1  UNL1        0.1030
     13  C         16.6700  -22.8420  -10.1880 C.3     1  UNL1        0.0140
     14  C         15.7980  -22.6050   -8.9460 C.3     1  UNL1        0.0390
     15  C         16.4470  -23.0300   -7.6490 C.2     1  UNL1       -0.0580
     16  C         17.0650  -24.2840   -7.5450 C.2     1  UNL1        0.0070
     17  C         17.6830  -24.6730   -6.3550 C.2     1  UNL1        0.0010
     18  C         17.6870  -23.8160   -5.2560 C.2     1  UNL1        0.0000
     19  C         17.0680  -22.5700   -5.3450 C.2     1  UNL1        0.0010
     20  C         16.4480  -22.1790   -6.5350 C.2     1  UNL1        0.0070
     21  C         23.7640  -22.7470  -12.0760 C.ar    1  UNL1        0.1390
     22  N         23.8570  -21.9100  -13.0950 N.ar    1  UNL1       -0.2280
     23  C         24.7870  -22.4470  -13.9490 C.ar    1  UNL1        0.0860
     24  C         25.2540  -21.9730  -15.1840 C.2     1  UNL1        0.0340
     25  C         25.2940  -23.6370  -13.4430 C.ar    1  UNL1        0.0620
     26  C         26.2210  -22.7200  -15.8680 C.2     1  UNL1        0.0020
     27  C         26.7140  -23.9140  -15.3320 C.2     1  UNL1        0.0020
     28  C         26.2610  -24.4020  -14.1000 C.2     1  UNL1        0.0320
     29  N         24.6370  -23.7980  -12.2510 N.ar    1  UNL1       -0.3380
     30  H         24.7840  -24.5500  -11.5960 H       1  UNL1        0.1670
@<TRIPOS>BOND
     1    26    27    2
     2    26    24    1
     3    27    28    1
     4    24    23    2
     5    28    25    2
     6    23    25   ar
     7    23    22   ar
     8    25    29   ar
     9    22    21   ar
    10    29    21   ar
    11    29    30    1
    12    21     5    1
    13    10     9    2
    14     6     5    2
    15     6     7    1
    16     9    12    1
    17     9     8   am
    18    12    13    1
    19     5     4    1
    20    13    14    1
    21     8     7    1
    22     8    11    1
    23     7     2    2
    24     4     3    2
    25    14    15    1
    26     2     3    1
    27     2     1    1
    28    15    16    2
    29    15    20    1
    30    16    17    1
    31    20    19    2
    32    17    18    2
    33    19    18    1
