@<TRIPOS>MOLECULE
11_out_ligand_01.pdbqt
 30 33 0 0 0
SMALL
GASTEIGER

@<TRIPOS>ATOM
      1  C         22.7730  -21.8730  -10.7320 C.2     1  UNL1       -0.0270
      2  C         22.6380  -22.3580   -9.4300 C.2     1  UNL1        0.0120
      3  C         21.3720  -22.5970   -8.8800 C.2     1  UNL1        0.0310
      4  C         20.1960  -22.3820   -9.6120 C.2     1  UNL1        0.0430
      5  C         20.3300  -21.8510  -10.9120 C.2     1  UNL1       -0.0300
      6  C         21.6070  -21.6280  -11.4660 C.2     1  UNL1        0.0190
      7  C         19.1280  -21.5340  -11.7610 C.3     1  UNL1        0.0420
      8  C         17.9510  -21.1880  -10.8730 C.3     1  UNL1        0.0250
      9  C         17.7230  -22.3220   -9.8930 C.3     1  UNL1        0.1330
     10  N         18.8890  -22.6340   -9.0500 N.am    1  UNL1       -0.3130
     11  C         18.7210  -23.4550   -7.9170 C.2     1  UNL1        0.2580
     12  O         19.5580  -24.2060   -7.4190 O.2     1  UNL1       -0.2670
     13  C         24.1310  -21.6490  -11.3690 C.3     1  UNL1        0.1790
     14  C         24.6630  -22.9580  -12.0250 C.3     1  UNL1        0.3080
     15  N         24.4990  -23.0320  -13.4940 N.3     1  UNL1        0.0910
     16  C         25.5650  -23.8200  -14.1170 C.3     1  UNL1        0.2730
     17  C         25.2090  -24.1600  -15.5710 C.3     1  UNL1        0.0340
     18  C         24.3890  -23.0610  -16.2710 C.3     1  UNL1       -0.0150
     19  C         24.6500  -23.0490  -17.7730 C.3     1  UNL1        0.0100
     20  C         24.6850  -21.7040  -15.6320 C.3     1  UNL1        0.0340
     21  C         24.3620  -21.7100  -14.1290 C.3     1  UNL1        0.2730
     22  O         25.0230  -21.1280  -10.3760 O.3     1  UNL1       -0.3890
     23  H         24.5450  -21.1240   -9.5300 H       1  UNL1        0.2100
     24  C         17.4050  -23.4480   -7.2400 C.2     1  UNL1        0.0350
     25  C         16.4290  -24.3740   -7.6300 C.2     1  UNL1        0.0170
     26  C         15.1970  -24.3970   -6.9750 C.2     1  UNL1        0.0040
     27  C         14.9540  -23.5130   -5.9230 C.2     1  UNL1        0.0420
     28  C         15.9460  -22.6170   -5.5290 C.2     1  UNL1        0.1170
     29  F         15.7110  -21.7840   -4.5070 F       1  UNL1       -0.2060
     30  C         17.1750  -22.5770   -6.1720 C.2     1  UNL1        0.0590
@<TRIPOS>BOND
     1    19    18    1
     2    18    20    1
     3    18    17    1
     4    20    21    1
     5    17    16    1
     6    21    15    1
     7    16    15    1
     8    15    14    1
     9    14    13    1
    10     7     5    1
    11     7     8    1
    12     6     5    1
    13     6     1    2
    14    13     1    1
    15    13    22    1
    16     5     4    2
    17     8     9    1
    18     1     2    1
    19    22    23    1
    20     9    10    1
    21     4    10    1
    22     4     3    1
    23     2     3    2
    24    10    11   am
    25    11    12    2
    26    11    24    1
    27    25    24    2
    28    25    26    1
    29    24    30    1
    30    26    27    2
    31    30    28    2
    32    27    28    1
    33    28    29    1
