@<TRIPOS>MOLECULE
120_out_ligand_01.pdbqt
 33 35 0 0 0
SMALL
GASTEIGER

@<TRIPOS>ATOM
      1  C         19.3750  -22.0900  -10.7070 C.2     1  UNL1        0.0360
      2  C         18.7690  -21.0410  -11.4030 C.2     1  UNL1        0.0290
      3  C         17.3930  -20.8100  -11.2950 C.2     1  UNL1        0.0040
      4  C         16.6060  -21.6240  -10.4860 C.2     1  UNL1        0.0250
      5  C         17.2100  -22.6670   -9.7820 C.2     1  UNL1        0.0770
      6  C         18.5850  -22.9090   -9.8920 C.2     1  UNL1        0.0540
      7  S         16.2020  -23.7220   -8.7730 S.O2    1  UNL1        0.2450
      8  O         15.3060  -24.4370   -9.6560 O.2     1  UNL1       -0.2060
      9  O         17.0680  -24.4060   -7.8340 O.2     1  UNL1       -0.2060
     10  N         15.3370  -22.5600   -7.8680 N.pl3   1  UNL1       -0.1810
     11  H         15.4600  -21.6620   -8.3400 H       1  UNL1        0.1460
     12  C         15.7460  -22.4780   -6.4970 C.2     1  UNL1        0.0230
     13  C         14.9840  -23.1200   -5.5230 C.2     1  UNL1        0.0240
     14  C         15.3980  -23.1020   -4.1920 C.2     1  UNL1        0.0030
     15  C         16.5820  -22.4520   -3.8390 C.2     1  UNL1        0.0160
     16  C         17.3660  -21.8140   -4.8150 C.2     1  UNL1        0.0490
     17  C         16.9420  -21.8430   -6.1540 C.2     1  UNL1        0.0400
     18  C         18.6640  -21.1490   -4.4290 C.3     1  UNL1        0.4170
     19  F         18.5870  -19.7870   -4.4070 F       1  UNL1       -0.1660
     20  F         19.0930  -21.5130   -3.1860 F       1  UNL1       -0.1660
     21  F         19.6800  -21.4550   -5.2810 F       1  UNL1       -0.1660
     22  N         20.7530  -22.3860  -10.7680 N.am    1  UNL1       -0.3230
     23  C         21.6670  -21.9570  -11.7090 C.2     1  UNL1        0.2570
     24  O         21.4330  -21.2670  -12.6950 O.2     1  UNL1       -0.2670
     25  H         21.1140  -22.9560  -10.0100 H       1  UNL1        0.1690
     26  C         23.0660  -22.4390  -11.5270 C.2     1  UNL1        0.0550
     27  C         23.7060  -22.9280  -12.6800 C.2     1  UNL1        0.0380
     28  C         25.0180  -23.3930  -12.6100 C.2     1  UNL1        0.0120
     29 BR         25.8640  -24.0580  -14.1630 Br      1  UNL1       -0.0510
     30  C         25.7100  -23.3710  -11.4000 C.2     1  UNL1        0.0210
     31  C         25.0840  -22.8790  -10.2550 C.2     1  UNL1        0.0260
     32  C         23.7640  -22.4110  -10.3130 C.2     1  UNL1        0.0490
     33 CL         23.0930  -21.7930   -8.8420 Cl      1  UNL1       -0.0830
@<TRIPOS>BOND
     1    29    28    1
     2    24    23    2
     3    27    28    1
     4    27    26    2
     5    28    30    2
     6    23    26    1
     7    23    22   am
     8    26    32    1
     9     2     3    1
    10     2     1    2
    11    30    31    1
    12     3     4    2
    13    22     1    1
    14    22    25    1
    15     1     6    1
    16     4     5    1
    17    32    31    2
    18    32    33    1
    19     6     5    2
    20     5     7    1
    21     8     7    2
    22     7    10    1
    23     7     9    2
    24    11    10    1
    25    10    12    1
    26    12    17    2
    27    12    13    1
    28    17    16    1
    29    13    14    2
    30    21    18    1
    31    16    18    1
    32    16    15    2
    33    18    19    1
    34    18    20    1
    35    14    15    1
