@<TRIPOS>MOLECULE
12182_out_ligand_01.pdbqt
 36 39 0 0 0
SMALL
GASTEIGER

@<TRIPOS>ATOM
      1  C         20.5750  -22.4970  -10.4980 C.2     1  UNL1        0.0330
      2  C         19.9690  -21.5650  -11.3800 C.2     1  UNL1        0.0180
      3  C         20.6780  -21.0370  -12.4670 C.2     1  UNL1        0.0190
      4  C         21.9840  -21.4540  -12.6330 C.2     1  UNL1        0.0480
      5  C         22.5840  -22.3510  -11.7680 C.2     1  UNL1        0.0490
      6  C         21.9120  -22.8880  -10.6880 C.2     1  UNL1        0.0350
      7  C         23.9560  -22.5600  -12.2300 C.2     1  UNL1        0.2620
      8  O         24.7550  -23.3000  -11.6920 O.2     1  UNL1       -0.2670
      9  N         24.1100  -21.7800  -13.3430 N.am    1  UNL1       -0.2760
     10  C         22.9730  -21.0890  -13.6470 C.2     1  UNL1        0.2620
     11  O         22.7630  -20.3170  -14.5630 O.2     1  UNL1       -0.2670
     12  C         19.8420  -23.0640   -9.3270 C.2     1  UNL1        0.2560
     13  N         18.8800  -22.2400   -8.7790 N.am    1  UNL1       -0.3220
     14  H         18.6880  -21.3640   -9.2660 H       1  UNL1        0.1690
     15  O         20.1240  -24.2020   -8.9710 O.2     1  UNL1       -0.2670
     16  C         18.0470  -22.4790   -7.6520 C.2     1  UNL1        0.0540
     17  C         18.5280  -22.3940   -6.3390 C.2     1  UNL1        0.0700
     18  C         17.6920  -22.6360   -5.2390 C.2     1  UNL1        0.1030
     19  C         16.3410  -22.9660   -5.4460 C.2     1  UNL1        0.1020
     20  C         15.8470  -23.0470   -6.7490 C.2     1  UNL1        0.0600
     21  C         16.6870  -22.8060   -7.8510 C.2     1  UNL1        0.0670
     22  O         18.1000  -22.5720   -3.9280 O.2     1  UNL1       -0.3530
     23  C         18.4810  -21.3030   -3.4150 C.3     1  UNL1        0.2100
     24  O         15.5930  -23.1840   -4.3170 O.2     1  UNL1       -0.3530
     25  C         14.7110  -24.2980   -4.3060 C.3     1  UNL1        0.2100
     26  C         16.1280  -22.8910   -9.2310 C.2     1  UNL1        0.1780
     27  O         15.4890  -23.8300   -9.6760 O.2     1  UNL1       -0.6460
     28  O         16.3880  -21.8100   -9.9860 O.3     1  UNL1       -0.7730
     29  H         16.0950  -21.0470   -9.4470 H       1  UNL1        0.1670
     30  C         25.3450  -21.6670  -14.0860 C.3     1  UNL1        0.1750
     31  C         25.1680  -22.0850  -15.5190 C.2     1  UNL1       -0.0220
     32  C         25.2890  -21.1670  -16.5670 C.2     1  UNL1        0.0120
     33  C         25.0950  -21.5880  -17.8790 C.2     1  UNL1        0.0200
     34  C         24.7790  -22.9180  -18.1010 C.2     1  UNL1        0.1160
     35  N         24.6430  -23.8300  -17.1160 N.2     1  UNL1       -0.2730
     36  C         24.8330  -23.3940  -15.8500 C.2     1  UNL1        0.1240
@<TRIPOS>BOND
     1    34    33    2
     2    34    35    1
     3    33    32    1
     4    35    36    2
     5    32    31    2
     6    36    31    1
     7    31    30    1
     8    11    10    2
     9    30     9    1
    10    10     9   am
    11    10     4    1
    12     9     7   am
    13     4     3    2
    14     4     5    1
    15     3     2    1
    16     7     5    1
    17     7     8    2
    18     5     6    2
    19     2     1    2
    20     6     1    1
    21     1    12    1
    22    28    29    1
    23    28    26    1
    24    27    26    2
    25    12    15    2
    26    12    13   am
    27    14    13    1
    28    26    21    1
    29    13    16    1
    30    21    16    2
    31    21    20    1
    32    16    17    1
    33    20    19    2
    34    17    18    2
    35    19    18    1
    36    19    24    1
    37    18    22    1
    38    24    25    1
    39    22    23    1
