@<TRIPOS>MOLECULE
12180_out_ligand_01.pdbqt
 34 37 0 0 0
SMALL
GASTEIGER

@<TRIPOS>ATOM
      1  C         21.7320  -23.4290   -9.6920 C.3     1  UNL1        0.1800
      2  C         20.7130  -24.0420   -8.7000 C.2     1  UNL1        0.2400
      3  N         19.9090  -23.0820   -8.0870 N.am    1  UNL1       -0.3260
      4  H         20.1450  -22.1120   -8.2680 H       1  UNL1        0.1690
      5  O         20.6020  -25.2560   -8.5220 O.2     1  UNL1       -0.2720
      6  C         18.8580  -23.2880   -7.1700 C.2     1  UNL1        0.0340
      7  C         17.9150  -24.3150   -7.2720 C.2     1  UNL1        0.0310
      8  C         16.9010  -24.4470   -6.3170 C.2     1  UNL1        0.0270
      9  C         16.8320  -23.5510   -5.2500 C.2     1  UNL1        0.0740
     10  C         17.7550  -22.5110   -5.1410 C.2     1  UNL1        0.0270
     11  C         18.7660  -22.3860   -6.0990 C.2     1  UNL1        0.0310
     12  S         15.5300  -23.6980   -4.0620 S.O2    1  UNL1        0.2390
     13  O         15.8380  -24.7770   -3.1530 O.2     1  UNL1       -0.2060
     14  O         15.1530  -22.3820   -3.6040 O.2     1  UNL1       -0.2060
     15  N         14.2570  -24.2420   -5.0100 N.3     1  UNL1       -0.2250
     16  H         14.1690  -25.2550   -4.9240 H       1  UNL1        0.1360
     17  H         13.4050  -23.7350   -4.7690 H       1  UNL1        0.1360
     18  S         23.2290  -22.7760   -8.8720 S.3     1  UNL1       -0.0730
     19  C         24.2980  -22.4970  -10.1930 C.ar    1  UNL1        0.1680
     20  N         24.7490  -21.3400  -10.6060 N.ar    1  UNL1       -0.2230
     21  C         25.5550  -21.6400  -11.6780 C.ar    1  UNL1        0.0860
     22  C         26.3110  -20.7890  -12.4970 C.2     1  UNL1        0.0340
     23  C         25.5810  -23.0120  -11.9180 C.ar    1  UNL1        0.0630
     24  C         27.0710  -21.3520  -13.5300 C.2     1  UNL1        0.0020
     25  C         27.0790  -22.7330  -13.7430 C.2     1  UNL1        0.0020
     26  C         26.3310  -23.6000  -12.9370 C.2     1  UNL1        0.0320
     27  N         24.7480  -23.5320  -10.9620 N.ar    1  UNL1       -0.3330
     28  H         24.5520  -24.5090  -10.7830 H       1  UNL1        0.1680
     29  C         21.1360  -22.4540  -10.6990 C.2     1  UNL1       -0.0350
     30  C         19.8790  -21.8760  -10.4450 C.2     1  UNL1        0.0090
     31  C         19.3200  -20.9640  -11.3420 C.2     1  UNL1        0.0010
     32  C         20.0010  -20.6240  -12.5070 C.2     1  UNL1        0.0000
     33  C         21.2380  -21.1990  -12.7810 C.2     1  UNL1        0.0010
     34  C         21.8030  -22.1090  -11.8860 C.2     1  UNL1        0.0090
@<TRIPOS>BOND
     1    25    24    2
     2    25    26    1
     3    24    22    1
     4    26    23    2
     5    33    32    2
     6    33    34    1
     7    32    31    1
     8    22    21    2
     9    23    21   ar
    10    23    27   ar
    11    34    29    2
    12    21    20   ar
    13    31    30    2
    14    27    28    1
    15    27    19   ar
    16    29    30    1
    17    29     1    1
    18    20    19   ar
    19    19    18    1
    20     1    18    1
    21     1     2    1
    22     2     5    2
    23     2     3   am
    24     4     3    1
    25     3     6    1
    26     7     6    2
    27     7     8    1
    28     6    11    1
    29     8     9    2
    30    11    10    2
    31     9    10    1
    32     9    12    1
    33    15    16    1
    34    15    17    1
    35    15    12    1
    36    12    14    2
    37    12    13    2
