@<TRIPOS>MOLECULE
12224_out_ligand_01.pdbqt
 33 36 0 0 0
SMALL
GASTEIGER

@<TRIPOS>ATOM
      1  C         17.9820  -22.9040   -9.9640 C.ar    1  UNL1        0.1390
      2  N         18.8960  -23.5560   -9.2710 N.ar    1  UNL1       -0.1330
      3  N         20.1300  -23.1720   -9.7270 N.ar    1  UNL1       -0.1230
      4  C         19.9500  -22.2810  -10.6730 C.ar    1  UNL1        0.1910
      5  N         18.6110  -22.0850  -10.8740 N.ar    1  UNL1       -0.3150
      6  C         17.9900  -21.2010  -11.8300 C.3     1  UNL1        0.1600
      7  S         21.1850  -21.4530  -11.5540 S.3     1  UNL1       -0.0780
      8  C         22.6830  -22.3540  -11.0030 C.3     1  UNL1        0.1210
      9  C         23.3930  -21.6160   -9.8720 C.3     1  UNL1        0.0300
     10  C         23.6110  -22.5200  -12.2040 C.ar    1  UNL1        0.1210
     11  N         23.5740  -21.6640  -13.1770 N.ar    1  UNL1       -0.2330
     12  C         24.4300  -21.8650  -14.2730 C.ar    1  UNL1        0.0740
     13  C         24.3940  -20.9570  -15.3330 C.2     1  UNL1        0.0320
     14  C         25.3170  -22.9430  -14.3460 C.ar    1  UNL1        0.0610
     15  C         25.2280  -21.1260  -16.4430 C.2     1  UNL1        0.0020
     16  C         26.1070  -22.2090  -16.5030 C.2     1  UNL1        0.0010
     17  C         26.1560  -23.1220  -15.4510 C.2     1  UNL1        0.0190
     18  C         25.3390  -23.8810  -13.2120 C.ar    1  UNL1        0.2590
     19  O         26.1010  -24.8400  -13.1650 O.2     1  UNL1       -0.2670
     20  N         24.4500  -23.6090  -12.2040 N.ar    1  UNL1       -0.3100
     21  H         24.4960  -24.2240  -11.4030 H       1  UNL1        0.1700
     22  C         16.5170  -23.0080   -9.7520 C.3     1  UNL1        0.1830
     23  C         16.2480  -23.3840   -8.3060 C.2     1  UNL1        0.2290
     24  N         16.5510  -22.3630   -7.4190 N.am    1  UNL1       -0.3260
     25  H         16.7800  -21.4680   -7.8420 H       1  UNL1        0.1690
     26  O         15.7940  -24.4910   -8.0320 O.2     1  UNL1       -0.2730
     27  C         16.4660  -22.3830   -6.0070 C.2     1  UNL1        0.0400
     28  C         15.2750  -22.6850   -5.3330 C.2     1  UNL1        0.0300
     29  C         15.2250  -22.7090   -3.9360 C.2     1  UNL1        0.0020
     30  C         16.3660  -22.4300   -3.1920 C.2     1  UNL1        0.0010
     31  C         17.5590  -22.1320   -3.8450 C.2     1  UNL1        0.0090
     32  C         17.6270  -22.1060   -5.2510 C.2     1  UNL1       -0.0350
     33  C         18.9480  -21.7700   -5.8940 C.3     1  UNL1        0.0500
@<TRIPOS>BOND
     1    16    15    2
     2    16    17    1
     3    15    13    1
     4    17    14    2
     5    13    12    2
     6    14    12   ar
     7    14    18   ar
     8    12    11   ar
     9    18    19    2
    10    18    20   ar
    11    11    10   ar
    12    10    20   ar
    13    10     8    1
    14    20    21    1
    15     6     5    1
    16     7     8    1
    17     7     4    1
    18     8     9    1
    19     5     4   ar
    20     5     1   ar
    21     4     3   ar
    22     1    22    1
    23     1     2   ar
    24    22    23    1
    25     3     2   ar
    26    23    26    2
    27    23    24   am
    28    25    24    1
    29    24    27    1
    30    27    28    2
    31    27    32    1
    32    33    32    1
    33    28    29    1
    34    32    31    2
    35    29    30    2
    36    31    30    1
