@<TRIPOS>MOLECULE
12249_out_ligand_01.pdbqt
 35 40 0 0 0
SMALL
GASTEIGER

@<TRIPOS>ATOM
      1  C         21.9780  -22.2450  -11.2710 C.ar    1  UNL1        0.0620
      2  C         23.1640  -22.7550  -10.7660 C.ar    1  UNL1        0.1010
      3  S         22.9540  -23.3200   -9.1660 S.2     1  UNL1       -0.0620
      4  C         21.3140  -22.8820   -9.1470 C.ar    1  UNL1        0.1120
      5  N         20.5940  -23.1170   -8.0340 N.ar    1  UNL1       -0.2390
      6  C         19.3080  -22.7300   -8.0980 C.ar    1  UNL1        0.0820
      7  C         18.7250  -22.1120   -9.2030 C.ar    1  UNL1       -0.0210
      8  C         19.5220  -21.8540  -10.3480 C.ar    1  UNL1       -0.0340
      9  C         20.8800  -22.2860  -10.3300 C.ar    1  UNL1        0.0340
     10  C         18.8470  -21.0730  -11.4570 C.3     1  UNL1        0.0400
     11  C         17.4820  -21.6670  -11.7980 C.3     1  UNL1        0.0050
     12  C         16.6260  -22.0010  -10.5710 C.3     1  UNL1        0.0050
     13  C         17.2840  -21.6540   -9.2340 C.3     1  UNL1        0.0420
     14  C         24.4500  -22.8700  -11.4480 C.2     1  UNL1        0.2610
     15  O         25.4040  -22.1340  -11.1960 O.2     1  UNL1       -0.2670
     16  N         24.5390  -23.8500  -12.4140 N.am    1  UNL1       -0.3520
     17  H         23.6920  -24.3460  -12.6620 H       1  UNL1        0.1630
     18  C         25.6870  -23.9860  -13.2780 C.3     1  UNL1        0.1610
     19  C         25.4370  -23.3160  -14.6060 C.2     1  UNL1       -0.0380
     20  C         24.8720  -24.0430  -15.6790 C.2     1  UNL1        0.0120
     21  C         24.6150  -23.4260  -16.9080 C.2     1  UNL1        0.0400
     22  C         24.9220  -22.0880  -17.0310 C.2     1  UNL1        0.1050
     23  C         25.4610  -21.3710  -15.9910 C.2     1  UNL1        0.1050
     24  O         24.7370  -21.3310  -18.1450 O.2     1  UNL1       -0.3230
     25  C         25.7290  -21.9510  -14.7690 C.2     1  UNL1        0.0480
     26  O         25.6810  -20.0690  -16.3170 O.2     1  UNL1       -0.3230
     27  C         25.2170  -20.0500  -17.6830 C.3     1  UNL1        0.3520
     28  N         21.8910  -21.7650  -12.5390 N.pl3   1  UNL1       -0.3970
     29  H         20.9790  -21.5580  -12.9340 H       1  UNL1        0.1560
     30  H         22.4860  -22.2060  -13.2500 H       1  UNL1        0.1560
     31  C         18.5790  -22.9830   -6.8560 C.2     1  UNL1        0.0340
     32  C         17.9060  -24.1240   -6.4620 C.2     1  UNL1        0.0220
     33  C         17.3250  -23.9910   -5.1680 C.2     1  UNL1        0.0080
     34  C         17.5670  -22.7500   -4.6210 C.2     1  UNL1        0.0500
     35  S         18.4920  -21.7560   -5.6630 S.3     1  UNL1       -0.1000
@<TRIPOS>BOND
     1    24    27    1
     2    24    22    1
     3    27    26    1
     4    22    21    2
     5    22    23    1
     6    21    20    1
     7    26    23    1
     8    23    25    2
     9    20    19    2
    10    25    19    1
    11    19    18    1
    12    18    16    1
    13    30    28    1
    14    29    28    1
    15    17    16    1
    16    28     1    1
    17    16    14   am
    18    11    10    1
    19    11    12    1
    20    10     8    1
    21    14    15    2
    22    14     2    1
    23     1     2   ar
    24     1     9   ar
    25     2     3   ar
    26    12    13    1
    27     8     9   ar
    28     8     7   ar
    29     9     4   ar
    30    13     7    1
    31     7     6   ar
    32     3     4   ar
    33     4     5   ar
    34     6     5   ar
    35     6    31    1
    36    31    32    2
    37    31    35    1
    38    32    33    1
    39    35    34    1
    40    33    34    2
