@<TRIPOS>MOLECULE
12252_out_ligand_01.pdbqt
 31 34 0 0 0
SMALL
GASTEIGER

@<TRIPOS>ATOM
      1  C         21.1960  -23.3080   -8.4720 C.2     1  UNL1        0.0320
      2  C         20.7440  -22.2160   -7.7230 C.2     1  UNL1        0.0190
      3  C         19.5670  -22.3040   -6.9650 C.2     1  UNL1        0.0320
      4  C         18.8220  -23.4870   -6.9490 C.2     1  UNL1        0.0570
      5  C         19.2650  -24.5720   -7.7330 C.2     1  UNL1        0.0320
      6  C         20.4420  -24.4850   -8.4880 C.2     1  UNL1        0.0190
      7  N         17.6210  -23.6380   -6.1940 N.ar    1  UNL1       -0.2170
      8  N         17.6570  -24.3030   -5.0040 N.ar    1  UNL1        0.0030
      9  N         16.4140  -24.3430   -4.5520 N.ar    1  UNL1        0.0190
     10  N         15.5660  -23.6800   -5.3890 N.ar    1  UNL1       -0.1350
     11  C         16.3020  -23.2380   -6.3860 C.ar    1  UNL1        0.2030
     12  S         15.6910  -22.1950   -7.6260 S.3     1  UNL1       -0.0850
     13  C         16.0740  -23.1680   -9.1150 C.3     1  UNL1        0.1210
     14  C         16.9920  -22.4390  -10.0630 C.2     1  UNL1       -0.0490
     15  C         18.1840  -23.0330  -10.5020 C.2     1  UNL1        0.0080
     16  C         19.0350  -22.3510  -11.3760 C.2     1  UNL1        0.0010
     17  C         18.6980  -21.0790  -11.8310 C.2     1  UNL1        0.0000
     18  C         17.5110  -20.4840  -11.4130 C.2     1  UNL1        0.0010
     19  C         16.6620  -21.1580  -10.5320 C.2     1  UNL1        0.0080
     20  C         22.4470  -23.1620   -9.2690 C.2     1  UNL1        0.2560
     21  O         23.3970  -23.8910   -9.0040 O.2     1  UNL1       -0.2670
     22  N         22.3910  -22.2210  -10.2780 N.am    1  UNL1       -0.3200
     23  H         21.4890  -21.8030  -10.4910 H       1  UNL1        0.1690
     24  C         23.4390  -21.8300  -11.1410 C.2     1  UNL1        0.0760
     25  C         24.7200  -21.4800  -10.7160 C.2     1  UNL1        0.0740
     26  C         25.6740  -21.0920  -11.6570 C.2     1  UNL1        0.1180
     27  F         26.8980  -20.7420  -11.2400 F       1  UNL1       -0.2060
     28  C         25.3800  -21.0470  -13.0170 C.2     1  UNL1        0.0450
     29  C         24.1040  -21.3900  -13.4510 C.2     1  UNL1        0.0470
     30  C         23.1480  -21.7730  -12.5130 C.2     1  UNL1        0.1430
     31  F         21.9160  -22.0960  -12.9390 F       1  UNL1       -0.2040
@<TRIPOS>BOND
     1    29    28    2
     2    29    30    1
     3    28    26    1
     4    31    30    1
     5    30    24    2
     6    17    18    2
     7    17    16    1
     8    26    27    1
     9    26    25    2
    10    18    19    1
    11    16    15    2
    12    24    25    1
    13    24    22    1
    14    19    14    2
    15    15    14    1
    16    23    22    1
    17    22    20   am
    18    14    13    1
    19    20    21    2
    20    20     1    1
    21    13    12    1
    22     6     1    2
    23     6     5    1
    24     1     2    1
    25     5     4    2
    26     2     3    2
    27    12    11    1
    28     3     4    1
    29     4     7    1
    30    11     7   ar
    31    11    10   ar
    32     7     8   ar
    33    10     9   ar
    34     8     9   ar
