@<TRIPOS>MOLECULE
12261_out_ligand_01.pdbqt
 35 39 0 0 0
SMALL
GASTEIGER

@<TRIPOS>ATOM
      1  C         23.2170  -22.6060  -10.9610 C.2     1  UNL1        0.2110
      2  N         22.8570  -21.8100  -12.0020 N.2     1  UNL1       -0.1220
      3  N         21.5900  -21.4300  -12.1650 N.pl3   1  UNL1       -0.1430
      4  C         20.6990  -21.8980  -11.2550 C.ar    1  UNL1        0.1370
      5  C         19.2990  -21.7270  -11.1270 C.ar    1  UNL1        0.0250
      6  C         18.3270  -21.0210  -11.8660 C.2     1  UNL1        0.0160
      7  C         16.9910  -21.0550  -11.4570 C.2     1  UNL1        0.0010
      8  C         16.6160  -21.7750  -10.3290 C.2     1  UNL1        0.0020
      9  C         17.5590  -22.4890   -9.5830 C.2     1  UNL1        0.0300
     10  C         18.8980  -22.4570   -9.9980 C.ar    1  UNL1        0.0490
     11  N         20.0330  -23.0550   -9.4750 N.ar    1  UNL1       -0.3290
     12  C         21.1310  -22.7030  -10.2170 C.ar    1  UNL1        0.1650
     13  N         22.4030  -23.0840  -10.0010 N.pl3   1  UNL1       -0.2010
     14  S         24.9230  -23.1270  -10.9350 S.3     1  UNL1       -0.0790
     15  C         25.1210  -23.6310  -12.6770 C.3     1  UNL1        0.1850
     16  C         25.9030  -22.6280  -13.5210 C.2     1  UNL1        0.2310
     17  O         27.1200  -22.7450  -13.6460 O.2     1  UNL1       -0.2720
     18  N         25.1330  -21.5950  -14.0350 N.am    1  UNL1       -0.3260
     19  H         24.1380  -21.6420  -13.8290 H       1  UNL1        0.1690
     20  C         25.5460  -20.5440  -14.8800 C.2     1  UNL1        0.0370
     21  C         25.5110  -20.7900  -16.2620 C.2     1  UNL1        0.0320
     22  C         25.9140  -19.8090  -17.1750 C.2     1  UNL1        0.0480
     23  C         26.3510  -18.5790  -16.7020 C.2     1  UNL1        0.1540
     24  F         26.7390  -17.6410  -17.5770 F       1  UNL1       -0.2030
     25  C         26.3870  -18.3270  -15.3380 C.2     1  UNL1        0.1570
     26  F         26.8100  -17.1370  -14.8870 F       1  UNL1       -0.2030
     27  C         25.9860  -19.3000  -14.4220 C.2     1  UNL1        0.0750
     28  C         20.0840  -23.9760   -8.3480 C.3     1  UNL1        0.1350
     29  C         18.7960  -24.0060   -7.5220 C.3     1  UNL1        0.0580
     30  C         18.7360  -22.9120   -6.4840 C.2     1  UNL1       -0.0570
     31  C         19.6070  -21.8140   -6.5610 C.2     1  UNL1        0.0070
     32  C         19.5780  -20.8190   -5.5830 C.2     1  UNL1        0.0010
     33  C         18.6790  -20.9100   -4.5200 C.2     1  UNL1        0.0000
     34  C         17.8070  -21.9960   -4.4370 C.2     1  UNL1        0.0010
     35  C         17.8340  -22.9930   -5.4130 C.2     1  UNL1        0.0070
@<TRIPOS>BOND
     1    24    23    1
     2    22    23    2
     3    22    21    1
     4    23    25    1
     5    21    20    2
     6    25    26    1
     7    25    27    2
     8    20    27    1
     9    20    18    1
    10    18    19    1
    11    18    16   am
    12    17    16    2
    13    16    15    1
    14    15    14    1
    15     3     2    1
    16     3     4    1
    17     2     1    2
    18     6     7    1
    19     6     5    2
    20     7     8    2
    21     4     5   ar
    22     4    12   ar
    23     5    10   ar
    24     1    14    1
    25     1    13    1
    26     8     9    1
    27    12    13    1
    28    12    11   ar
    29    10     9    2
    30    10    11   ar
    31    11    28    1
    32    28    29    1
    33    29    30    1
    34    31    30    2
    35    31    32    1
    36    30    35    1
    37    32    33    2
    38    35    34    2
    39    33    34    1
