@<TRIPOS>MOLECULE
12276_out_ligand_01.pdbqt
 28 32 0 0 0
SMALL
GASTEIGER

@<TRIPOS>ATOM
      1  C         19.9480  -21.8180  -11.0950 C.2     1  UNL1        0.0340
      2  C         18.7490  -21.6020  -11.7750 C.2     1  UNL1        0.0190
      3  C         17.5380  -21.7560  -11.0970 C.2     1  UNL1        0.0350
      4  C         17.4940  -22.1130   -9.7570 C.ar    1  UNL1        0.0880
      5  N         16.2860  -22.2440   -9.1780 N.ar    1  UNL1       -0.2270
      6  C         16.3800  -22.5880   -7.8800 C.ar    1  UNL1        0.1580
      7  N         15.3310  -22.7920   -7.0300 N.ar    1  UNL1       -0.3380
      8  C         15.7940  -23.1320   -5.7760 C.ar    1  UNL1        0.0460
      9  C         15.0900  -23.4290   -4.6020 C.2     1  UNL1        0.0300
     10  C         15.8380  -23.7430   -3.4620 C.2     1  UNL1        0.0020
     11  C         17.2310  -23.7590   -3.4950 C.2     1  UNL1        0.0010
     12  C         17.9200  -23.4600   -4.6760 C.2     1  UNL1        0.0160
     13  C         17.1920  -23.1410   -5.8390 C.ar    1  UNL1        0.0230
     14  C         17.5520  -22.7960   -7.1710 C.ar    1  UNL1        0.1160
     15  N         18.7670  -22.6620   -7.7610 N.ar    1  UNL1       -0.2420
     16  C         18.7180  -22.3180   -9.0580 C.ar    1  UNL1        0.0870
     17  C         19.9160  -22.1600   -9.7390 C.2     1  UNL1        0.0510
     18  H         14.3640  -22.7030   -7.2960 H       1  UNL1        0.1670
     19  C         21.2710  -21.6640  -11.7550 C.2     1  UNL1        0.2520
     20  O         21.3320  -21.2420  -12.9020 O.2     1  UNL1       -0.2680
     21  N         22.3760  -21.9970  -11.0000 N.am    1  UNL1       -0.3520
     22  H         22.2630  -22.3080  -10.0460 H       1  UNL1        0.1630
     23  C         23.7220  -21.9580  -11.5560 C.3     1  UNL1        0.0840
     24  C         24.1180  -23.3350  -12.1060 C.3     1  UNL1        0.0250
     25  C         25.5510  -23.3400  -12.6320 C.3     1  UNL1        0.0020
     26  C         26.5410  -22.8570  -11.5780 C.3     1  UNL1        0.0000
     27  C         26.1530  -21.4880  -11.0270 C.3     1  UNL1        0.0020
     28  C         24.7220  -21.4820  -10.4950 C.3     1  UNL1        0.0250
@<TRIPOS>BOND
     1    20    19    2
     2    25    24    1
     3    25    26    1
     4    24    23    1
     5     2     3    1
     6     2     1    2
     7    19     1    1
     8    19    21   am
     9    26    27    1
    10    23    21    1
    11    23    28    1
    12     3     4    2
    13     1    17    1
    14    27    28    1
    15    21    22    1
    16     4     5   ar
    17     4    16   ar
    18    17    16    2
    19     5     6   ar
    20    16    15   ar
    21     6    14   ar
    22     6     7   ar
    23    15    14   ar
    24    18     7    1
    25    14    13   ar
    26     7     8   ar
    27    13     8   ar
    28    13    12    1
    29     8     9    1
    30    12    11    2
    31     9    10    2
    32    11    10    1
