@<TRIPOS>MOLECULE
12273_out_ligand_01.pdbqt
 33 35 0 0 0
SMALL
GASTEIGER

@<TRIPOS>ATOM
      1  C         23.4810  -21.9450  -12.7910 C.2     1  UNL1        0.0670
      2  C         24.2980  -22.3580  -13.8530 C.2     1  UNL1        0.0210
      3  C         25.3960  -23.1710  -13.5940 C.2     1  UNL1        0.0200
      4  C         25.6410  -23.5400  -12.2830 C.2     1  UNL1        0.1180
      5  N         24.8760  -23.1520  -11.2380 N.2     1  UNL1       -0.2530
      6  C         23.8050  -22.3510  -11.4990 C.2     1  UNL1        0.1090
      7  S         22.8660  -21.9750  -10.0350 S.3     1  UNL1       -0.1000
      8  C         22.7460  -23.6430   -9.3230 C.3     1  UNL1        0.1840
      9  C         21.4000  -24.0190   -8.7090 C.2     1  UNL1        0.2310
     10  O         20.9090  -25.1130   -8.9910 O.2     1  UNL1       -0.2720
     11  N         20.8180  -23.0740   -7.8920 N.am    1  UNL1       -0.3270
     12  H         21.4190  -22.2940   -7.6290 H       1  UNL1        0.1690
     13  C         19.5670  -23.1240   -7.2490 C.2     1  UNL1        0.0340
     14  C         18.7820  -24.2700   -7.1470 C.2     1  UNL1        0.0300
     15  C         17.5420  -24.2270   -6.4990 C.2     1  UNL1        0.0100
     16  C         17.0610  -23.0340   -5.9390 C.2     1  UNL1       -0.0550
     17  C         17.8540  -21.8860   -6.0460 C.2     1  UNL1        0.0100
     18  C         19.0920  -21.9300   -6.6940 C.2     1  UNL1        0.0300
     19  C         15.7180  -22.9650   -5.2370 C.3     1  UNL1        0.0100
     20  C         14.7000  -22.1560   -6.0430 C.3     1  UNL1        0.0150
     21  C         15.8520  -22.4100   -3.8170 C.3     1  UNL1        0.0150
     22  C         22.3190  -21.0860  -13.0850 C.2     1  UNL1        0.2540
     23  N         21.2830  -21.1880  -12.1820 N.am    1  UNL1       -0.3530
     24  H         21.3330  -21.8580  -11.4280 H       1  UNL1        0.1630
     25  O         22.3090  -20.3700  -14.0750 O.2     1  UNL1       -0.2680
     26  C         19.9960  -20.5750  -12.4330 C.3     1  UNL1        0.1610
     27  C         18.9310  -21.2630  -11.6180 C.2     1  UNL1       -0.0410
     28  C         17.6840  -20.6500  -11.4280 C.2     1  UNL1        0.0090
     29  C         16.6770  -21.2950  -10.7080 C.2     1  UNL1        0.0070
     30  C         16.8930  -22.5720  -10.1770 C.2     1  UNL1       -0.0620
     31  C         15.8270  -23.2660   -9.3840 C.3     1  UNL1        0.0480
     32  C         18.1400  -23.1830  -10.3580 C.2     1  UNL1        0.0070
     33  C         19.1480  -22.5380  -11.0800 C.2     1  UNL1        0.0090
@<TRIPOS>BOND
     1    25    22    2
     2     2     3    1
     3     2     1    2
     4     3     4    2
     5    22     1    1
     6    22    23   am
     7     1     6    1
     8    26    23    1
     9    26    27    1
    10     4     5    1
    11    23    24    1
    12    27    28    2
    13    27    33    1
    14     6     5    2
    15     6     7    1
    16    28    29    1
    17    33    32    2
    18    29    30    2
    19    32    30    1
    20    30    31    1
    21     7     8    1
    22     8     9    1
    23    10     9    2
    24     9    11   am
    25    11    12    1
    26    11    13    1
    27    13    14    2
    28    13    18    1
    29    14    15    1
    30    18    17    2
    31    15    16    2
    32    17    16    1
    33    20    19    1
    34    16    19    1
    35    19    21    1
