@<TRIPOS>MOLECULE
12281_out_ligand_01.pdbqt
 38 41 0 0 0
SMALL
GASTEIGER

@<TRIPOS>ATOM
      1  C         22.2630  -22.6500  -10.5240 C.ar    1  UNL1        0.1000
      2  N         22.5080  -23.6310   -9.6260 N.ar    1  UNL1       -0.1470
      3  N         21.4790  -24.2270   -8.9580 N.ar    1  UNL1       -0.1310
      4  C         20.2000  -23.8540   -9.1750 C.ar    1  UNL1        0.1610
      5  C         19.8890  -22.8480  -10.1180 C.ar    1  UNL1        0.0240
      6  C         18.5600  -22.4470  -10.4130 C.2     1  UNL1        0.0160
      7  C         18.2800  -21.4580  -11.3570 C.2     1  UNL1        0.0010
      8  C         19.3220  -20.8500  -12.0400 C.2     1  UNL1        0.0010
      9  C         20.6380  -21.2330  -11.7800 C.2     1  UNL1        0.0150
     10  C         20.9510  -22.2270  -10.8170 C.ar    1  UNL1        0.0090
     11  N         19.1530  -24.4540   -8.4200 N.pl3   1  UNL1       -0.3390
     12  H         18.5740  -24.9880   -9.0590 H       1  UNL1        0.1670
     13  C         18.3930  -23.8310   -7.4050 C.2     1  UNL1        0.0340
     14  C         17.1250  -24.3250   -7.0890 C.2     1  UNL1        0.0320
     15  C         16.3660  -23.7580   -6.0580 C.2     1  UNL1        0.0400
     16  C         16.8670  -22.6980   -5.2930 C.2     1  UNL1        0.0840
     17  C         18.1600  -22.2120   -5.5750 C.2     1  UNL1        0.0670
     18  C         18.9060  -22.7920   -6.6210 C.2     1  UNL1        0.0490
     19  O         16.1680  -22.1150   -4.2650 O.2     1  UNL1       -0.3550
     20  C         14.7460  -22.2230   -4.2800 C.3     1  UNL1        0.2100
     21  C         18.8360  -21.0980   -4.8320 C.2     1  UNL1        0.2520
     22  N         18.6730  -21.0280   -3.4800 N.am    1  UNL1       -0.3660
     23  H         19.1620  -20.3000   -2.9770 H       1  UNL1        0.1590
     24  H         18.1920  -21.7590   -2.9690 H       1  UNL1        0.1590
     25  O         19.5200  -20.2550   -5.4020 O.2     1  UNL1       -0.2680
     26  C         23.4830  -22.1060  -11.1400 C.2     1  UNL1       -0.0030
     27  C         23.6500  -22.0650  -12.5310 C.2     1  UNL1        0.0390
     28  C         24.8100  -21.5170  -13.1100 C.2     1  UNL1        0.0810
     29  C         25.8320  -20.9870  -12.3010 C.2     1  UNL1       -0.0390
     30  C         25.6580  -21.0300  -10.9090 C.2     1  UNL1        0.0090
     31  C         27.1030  -20.3900  -12.8370 C.3     1  UNL1        0.0500
     32  C         24.5030  -21.5720  -10.3400 C.2     1  UNL1        0.0140
     33  S         24.9170  -21.5660  -14.8920 S.O2    1  UNL1        0.2410
     34  O         26.1940  -22.1120  -15.2890 O.2     1  UNL1       -0.2060
     35  O         23.6790  -22.1130  -15.4060 O.2     1  UNL1       -0.2060
     36  N         24.9520  -19.9090  -15.2610 N.3     1  UNL1       -0.2200
     37  C         25.9940  -19.5320  -16.2340 C.3     1  UNL1        0.1260
     38  H         25.0380  -19.3700  -14.3990 H       1  UNL1        0.1390
@<TRIPOS>BOND
     1    37    36    1
     2    35    33    2
     3    34    33    2
     4    36    33    1
     5    36    38    1
     6    33    28    1
     7    28    27    1
     8    28    29    2
     9    31    29    1
    10    27    26    2
    11    29    30    1
    12     8     9    2
    13     8     7    1
    14     9    10    1
    15     7     6    2
    16    26     1    1
    17    26    32    1
    18    30    32    2
    19    10     1   ar
    20    10     5   ar
    21     1     2   ar
    22     6     5    1
    23     5     4   ar
    24     2     3   ar
    25     4     3   ar
    26     4    11    1
    27    12    11    1
    28    11    13    1
    29    13    14    2
    30    13    18    1
    31    14    15    1
    32    18    17    2
    33    15    16    2
    34    17    16    1
    35    17    21    1
    36    25    21    2
    37    16    19    1
    38    21    22   am
    39    20    19    1
    40    22    23    1
    41    22    24    1
