@<TRIPOS>MOLECULE
12288_out_ligand_01.pdbqt
 33 36 0 0 0
SMALL
GASTEIGER

@<TRIPOS>ATOM
      1  C         21.4600  -22.8800  -10.3510 C.2     1  UNL1       -0.0380
      2  C         22.2840  -23.3950   -9.3260 C.2     1  UNL1        0.0090
      3  C         23.6740  -23.3770   -9.4460 C.2     1  UNL1        0.0100
      4  C         24.2290  -22.8460  -10.6000 C.2     1  UNL1       -0.0290
      5  C         23.4290  -22.3370  -11.6260 C.2     1  UNL1        0.0440
      6  C         22.0490  -22.3410  -11.5100 C.2     1  UNL1        0.0390
      7  N         24.2330  -21.8380  -12.6760 N.am    1  UNL1       -0.3090
      8  C         23.7410  -21.2500  -13.8380 C.2     1  UNL1        0.2580
      9  O         22.5660  -21.2380  -14.1940 O.2     1  UNL1       -0.2670
     10  C         25.6440  -22.2190  -12.3870 C.3     1  UNL1        0.0930
     11  C         26.1040  -23.3660  -13.2970 C.3     1  UNL1        0.0330
     12  C         25.6800  -22.6490  -10.9010 C.3     1  UNL1        0.0660
     13  C         19.9600  -22.8870  -10.2000 C.3     1  UNL1        0.1630
     14  N         19.5550  -23.3910   -8.9040 N.am    1  UNL1       -0.3390
     15  C         18.3990  -22.9490   -8.2920 C.2     1  UNL1        0.3210
     16  N         18.2350  -23.5520   -7.0640 N.am    1  UNL1       -0.3080
     17  O         17.6500  -22.1410   -8.8280 O.2     1  UNL1       -0.2470
     18  H         18.8790  -24.3030   -6.8810 H       1  UNL1        0.1700
     19  H         20.3020  -23.7020   -8.3010 H       1  UNL1        0.1640
     20  C         17.2090  -23.3380   -6.1130 C.2     1  UNL1        0.0430
     21  C         16.0140  -24.0690   -6.1260 C.2     1  UNL1        0.0540
     22  C         15.0230  -23.8300   -5.1730 C.2     1  UNL1        0.0360
     23  C         15.2000  -22.8540   -4.1970 C.2     1  UNL1        0.0240
     24 CL         13.5650  -24.7470   -5.1960 Cl      1  UNL1       -0.0840
     25  C         16.3820  -22.1150   -4.1730 C.2     1  UNL1        0.0110
     26  C         17.3950  -22.3440   -5.1230 C.2     1  UNL1       -0.0350
     27  C         18.6500  -21.5120   -5.0370 C.3     1  UNL1        0.0500
     28  C         24.7050  -20.5820  -14.7450 C.2     1  UNL1        0.0320
     29  C         25.4560  -19.4810  -14.3190 C.2     1  UNL1        0.0170
     30  C         26.3250  -18.8480  -15.2100 C.2     1  UNL1        0.0010
     31  C         26.4350  -19.3070  -16.5260 C.2     1  UNL1        0.0000
     32  C         25.6740  -20.3970  -16.9550 C.2     1  UNL1        0.0010
     33  C         24.7990  -21.0280  -16.0690 C.2     1  UNL1        0.0170
@<TRIPOS>BOND
     1    32    31    2
     2    32    33    1
     3    31    30    1
     4    33    28    2
     5    30    29    2
     6    28    29    1
     7    28     8    1
     8     9     8    2
     9     8     7   am
    10    11    10    1
    11     7    10    1
    12     7     5    1
    13    10    12    1
    14     5     6    1
    15     5     4    2
    16     6     1    2
    17    12     4    1
    18     4     3    1
    19     1    13    1
    20     1     2    1
    21    13    14    1
    22     3     2    2
    23    14    19    1
    24    14    15   am
    25    17    15    2
    26    15    16   am
    27    16    18    1
    28    16    20    1
    29    21    20    2
    30    21    22    1
    31    20    26    1
    32    24    22    1
    33    22    23    2
    34    26    27    1
    35    26    25    2
    36    23    25    1
