@<TRIPOS>MOLECULE
12292_out_ligand_01.pdbqt
 32 35 0 0 0
SMALL
GASTEIGER

@<TRIPOS>ATOM
      1  C         21.0130  -21.7650  -11.5790 C.2     1  UNL1       -0.0380
      2  C         20.0540  -21.2770  -12.4910 C.2     1  UNL1        0.0090
      3  C         18.7090  -21.1840  -12.1360 C.2     1  UNL1        0.0100
      4  C         18.3350  -21.5770  -10.8620 C.2     1  UNL1       -0.0290
      5  C         19.2710  -22.0520   -9.9440 C.2     1  UNL1        0.0440
      6  C         20.6100  -22.1520  -10.2910 C.2     1  UNL1        0.0390
      7  N         18.6450  -22.3350   -8.7090 N.am    1  UNL1       -0.3090
      8  C         19.3140  -22.7260   -7.5520 C.2     1  UNL1        0.2580
      9  O         20.5020  -23.0320   -7.4710 O.2     1  UNL1       -0.2670
     10  C         17.1730  -22.2040   -8.8990 C.3     1  UNL1        0.0930
     11  C         16.4840  -23.5730   -8.9010 C.3     1  UNL1        0.0330
     12  C         16.9730  -21.4840  -10.2560 C.3     1  UNL1        0.0660
     13  C         22.4610  -21.8730  -11.9900 C.3     1  UNL1        0.1630
     14  N         22.6320  -21.5510  -13.3930 N.am    1  UNL1       -0.3390
     15  C         23.8480  -21.7470  -14.0180 C.2     1  UNL1        0.3210
     16  N         23.8170  -21.2520  -15.3040 N.am    1  UNL1       -0.3080
     17  O         24.7880  -22.2930  -13.4590 O.2     1  UNL1       -0.2470
     18  H         22.8990  -21.0060  -15.6390 H       1  UNL1        0.1700
     19  H         22.0830  -20.7740  -13.7230 H       1  UNL1        0.1640
     20  C         24.8760  -21.1710  -16.2400 C.2     1  UNL1        0.0420
     21  C         25.7570  -20.0830  -16.2820 C.2     1  UNL1        0.0300
     22  C         26.7850  -20.0190  -17.2260 C.2     1  UNL1        0.0020
     23  C         26.9420  -21.0420  -18.1520 C.2     1  UNL1        0.0010
     24  C         26.0760  -22.1310  -18.1310 C.2     1  UNL1        0.0090
     25  C         25.0420  -22.2150  -17.1780 C.2     1  UNL1       -0.0350
     26  C         24.1400  -23.4230  -17.2160 C.3     1  UNL1        0.0500
     27  C         18.5420  -22.7630   -6.2910 C.2     1  UNL1        0.0320
     28  C         18.4800  -21.6330   -5.4660 C.2     1  UNL1        0.0170
     29  C         17.7650  -21.6910   -4.2690 C.2     1  UNL1        0.0010
     30  C         17.1350  -22.8780   -3.8890 C.2     1  UNL1        0.0000
     31  C         17.2300  -24.0150   -4.6950 C.2     1  UNL1        0.0010
     32  C         17.9430  -23.9610   -5.8930 C.2     1  UNL1        0.0170
@<TRIPOS>BOND
     1    23    24    2
     2    23    22    1
     3    24    25    1
     4    22    21    2
     5    26    25    1
     6    25    20    2
     7    21    20    1
     8    20    16    1
     9    18    16    1
    10    16    15   am
    11    15    17    2
    12    15    14   am
    13    19    14    1
    14    14    13    1
    15     2     3    1
    16     2     1    2
    17     3     4    2
    18    13     1    1
    19     1     6    1
    20     4    12    1
    21     4     5    1
    22     6     5    2
    23    12    10    1
    24     5     7    1
    25    11    10    1
    26    10     7    1
    27     7     8   am
    28     8     9    2
    29     8    27    1
    30    27    32    2
    31    27    28    1
    32    32    31    1
    33    28    29    2
    34    31    30    2
    35    29    30    1
