@<TRIPOS>MOLECULE
12297_out_ligand_01.pdbqt
 31 34 0 0 0
SMALL
GASTEIGER

@<TRIPOS>ATOM
      1  C         16.5010  -23.6030   -8.9290 C.3     1  UNL1        0.0330
      2  C         17.1540  -22.2160   -8.8920 C.3     1  UNL1        0.0930
      3  C         16.9490  -21.4880  -10.2400 C.3     1  UNL1        0.0660
      4  C         18.3080  -21.5880  -10.8540 C.2     1  UNL1       -0.0290
      5  C         18.6750  -21.2300  -12.1400 C.2     1  UNL1        0.0100
      6  C         20.0170  -21.3400  -12.5020 C.2     1  UNL1        0.0090
      7  C         20.9810  -21.8040  -11.5830 C.2     1  UNL1       -0.0380
      8  C         20.5850  -22.1540  -10.2800 C.2     1  UNL1        0.0390
      9  C         19.2490  -22.0460   -9.9310 C.2     1  UNL1        0.0440
     10  N         18.6260  -22.3230   -8.6930 N.am    1  UNL1       -0.3090
     11  C         19.2930  -22.7360   -7.5470 C.2     1  UNL1        0.2580
     12  O         20.4740  -23.0650   -7.4770 O.2     1  UNL1       -0.2670
     13  C         22.4270  -21.9330  -11.9990 C.3     1  UNL1        0.1630
     14  N         22.6570  -21.3020  -13.2830 N.am    1  UNL1       -0.3390
     15  C         23.7610  -21.6260  -14.0450 C.2     1  UNL1        0.3200
     16  O         24.5390  -22.5180  -13.7300 O.2     1  UNL1       -0.2470
     17  N         23.8330  -20.8300  -15.1690 N.am    1  UNL1       -0.3090
     18  H         23.0180  -20.2670  -15.3570 H       1  UNL1        0.1700
     19  H         22.2900  -20.3680  -13.3790 H       1  UNL1        0.1640
     20  C         24.8460  -20.8150  -16.1500 C.2     1  UNL1        0.0360
     21  C         24.9160  -21.7210  -17.2120 C.2     1  UNL1        0.0290
     22  C         25.9550  -21.6440  -18.1450 C.2     1  UNL1        0.0020
     23  C         26.9370  -20.6630  -18.0210 C.2     1  UNL1        0.0000
     24  C         26.8800  -19.7580  -16.9650 C.2     1  UNL1        0.0020
     25  C         25.8420  -19.8360  -16.0320 C.2     1  UNL1        0.0290
     26  C         18.5270  -22.7820   -6.2820 C.2     1  UNL1        0.0320
     27  C         18.4540  -21.6580   -5.4530 C.2     1  UNL1        0.0170
     28  C         17.7330  -21.7240   -4.2610 C.2     1  UNL1        0.0010
     29  C         17.1160  -22.9180   -3.8840 C.2     1  UNL1        0.0000
     30  C         17.2220  -24.0510   -4.6930 C.2     1  UNL1        0.0010
     31  C         17.9330  -23.9870   -5.8920 C.2     1  UNL1        0.0170
@<TRIPOS>BOND
     1    22    23    2
     2    22    21    1
     3    23    24    1
     4    21    20    2
     5    24    25    2
     6    20    25    1
     7    20    17    1
     8    18    17    1
     9    17    15   am
    10    15    16    2
    11    15    14   am
    12    19    14    1
    13    14    13    1
    14     6     5    1
    15     6     7    2
    16     5     4    2
    17    13     7    1
    18     7     8    1
    19     4     3    1
    20     4     9    1
    21     8     9    2
    22     3     2    1
    23     9    10    1
    24     1     2    1
    25     2    10    1
    26    10    11   am
    27    11    12    2
    28    11    26    1
    29    26    31    2
    30    26    27    1
    31    31    30    1
    32    27    28    2
    33    30    29    2
    34    28    29    1
