@<TRIPOS>MOLECULE
12301_out_ligand_01.pdbqt
 36 40 0 0 0
SMALL
GASTEIGER

@<TRIPOS>ATOM
      1  C         19.5690  -22.2080   -8.2660 C.3     1  UNL1        0.1230
      2  N         20.9300  -22.7760   -8.1570 N.pl3   1  UNL1       -0.3800
      3  C         21.8300  -22.6400   -9.2240 C.2     1  UNL1        0.0350
      4  C         23.1260  -23.1500   -9.0810 C.2     1  UNL1        0.0310
      5  C         24.0270  -23.1370  -10.1490 C.2     1  UNL1        0.0270
      6  C         23.6220  -22.6190  -11.3800 C.2     1  UNL1        0.0750
      7  C         22.3390  -22.0910  -11.5460 C.2     1  UNL1        0.0350
      8  C         21.4280  -22.1380  -10.4860 C.2     1  UNL1       -0.0220
      9  C         20.0480  -21.5520  -10.5920 C.3     1  UNL1        0.0500
     10  C         19.2700  -21.5610  -11.8710 C.3     1  UNL1       -0.0210
     11  C         17.9600  -21.7130  -11.6100 C.3     1  UNL1       -0.0290
     12  C         17.7170  -21.9100  -10.1350 C.3     1  UNL1        0.0350
     13  C         19.1050  -22.3740   -9.7090 C.3     1  UNL1        0.0280
     14  H         21.3520  -22.6590   -7.2420 H       1  UNL1        0.1600
     15  S         24.7580  -22.6140  -12.7500 S.O2    1  UNL1        0.2460
     16  O         24.9480  -23.9880  -13.1660 O.2     1  UNL1       -0.2060
     17  O         25.8850  -21.7790  -12.3940 O.2     1  UNL1       -0.2060
     18  N         23.8740  -21.8620  -13.9850 N.pl3   1  UNL1       -0.1780
     19  H         23.3590  -21.0620  -13.6140 H       1  UNL1        0.1460
     20  C         24.5380  -21.6280  -15.2310 C.2     1  UNL1        0.0610
     21  C         24.5840  -22.6120  -16.2180 C.2     1  UNL1        0.0270
     22  C         25.3000  -22.3790  -17.3960 C.2     1  UNL1        0.0020
     23  C         25.9690  -21.1670  -17.5870 C.2     1  UNL1        0.0030
     24  C         25.9190  -20.1790  -16.6040 C.2     1  UNL1        0.0440
     25  C         25.2040  -20.4160  -15.4350 C.2     1  UNL1        0.1380
     26  F         25.1660  -19.4690  -14.4840 F       1  UNL1       -0.2040
     27  C         18.6410  -22.9180   -7.2940 C.2     1  UNL1        0.0010
     28  C         18.3220  -24.2750   -7.4720 C.2     1  UNL1        0.0120
     29  C         17.4400  -24.9200   -6.6090 C.2     1  UNL1        0.0030
     30  C         16.8390  -24.2160   -5.5650 C.2     1  UNL1        0.0390
     31  C         17.1200  -22.8600   -5.3690 C.2     1  UNL1        0.1020
     32  C         18.0460  -22.2250   -6.2220 C.2     1  UNL1        0.1090
     33  O         16.5420  -22.0850   -4.3980 O.2     1  UNL1       -0.3530
     34  C         15.1510  -22.2600   -4.1590 C.3     1  UNL1        0.2100
     35  O         18.3450  -20.8850   -6.1050 O.2     1  UNL1       -0.3520
     36  C         19.3470  -20.6360   -5.1180 C.3     1  UNL1        0.2100
@<TRIPOS>BOND
     1    23    22    2
     2    23    24    1
     3    22    21    1
     4    24    25    2
     5    21    20    2
     6    25    20    1
     7    25    26    1
     8    20    18    1
     9    18    19    1
    10    18    15    1
    11    16    15    2
    12    15    17    2
    13    15     6    1
    14    10    11    1
    15    10     9    1
    16    11    12    1
    17     7     6    2
    18     7     8    1
    19     6     5    1
    20     9     8    1
    21     9    13    1
    22     8     3    2
    23     5     4    2
    24    12    13    1
    25    13     1    1
    26     3     4    1
    27     3     2    1
    28     1     2    1
    29     1    27    1
    30     2    14    1
    31    28    27    2
    32    28    29    1
    33    27    32    1
    34    29    30    2
    35    32    35    1
    36    32    31    2
    37    35    36    1
    38    30    31    1
    39    31    33    1
    40    33    34    1
