@<TRIPOS>MOLECULE
12309_out_ligand_01.pdbqt
 37 41 0 0 0
SMALL
GASTEIGER

@<TRIPOS>ATOM
      1  C         20.0320  -22.4050   -9.9240 C.2     1  UNL1        0.0800
      2  C         19.0230  -21.6360  -10.5110 C.2     1  UNL1        0.0250
      3  C         19.2720  -20.9780  -11.7160 C.2     1  UNL1        0.0030
      4  C         20.5170  -21.1030  -12.3380 C.2     1  UNL1        0.0170
      5  C         21.5150  -21.9000  -11.7600 C.2     1  UNL1        0.0330
      6  C         21.2750  -22.5520  -10.5450 C.2     1  UNL1        0.0420
      7  S         19.7210  -23.2620   -8.4020 S.O2    1  UNL1        0.2590
      8  O         20.3710  -22.5120   -7.3500 O.2     1  UNL1       -0.2010
      9  O         20.0010  -24.6640   -8.6160 O.2     1  UNL1       -0.2010
     10  N         18.0750  -23.0530   -8.1820 N.3     1  UNL1       -0.3100
     11  H         17.7580  -22.0870   -8.2300 H       1  UNL1        0.1720
     12  C         17.2220  -24.0730   -7.5450 C.3     1  UNL1        0.1010
     13  C         15.9520  -24.2360   -8.4140 C.3     1  UNL1        0.0220
     14  C         15.7180  -23.0850   -9.3840 C.3     1  UNL1        0.0070
     15  C         16.9020  -23.6710   -6.0530 C.3     1  UNL1       -0.0180
     16  C         17.8780  -24.3960   -5.0770 C.3     1  UNL1        0.0160
     17  C         17.6090  -24.0030   -3.6130 C.3     1  UNL1       -0.0130
     18  C         17.7970  -22.4880   -3.4500 C.3     1  UNL1        0.0090
     19  C         16.1660  -24.3790   -3.2470 C.3     1  UNL1        0.0090
     20  C         16.8200  -21.7430   -4.3680 C.3     1  UNL1       -0.0130
     21  C         15.3780  -22.1240   -4.0020 C.3     1  UNL1        0.0090
     22  C         17.0930  -22.1420   -5.8280 C.3     1  UNL1        0.0160
     23  C         15.1820  -23.6380   -4.1650 C.3     1  UNL1       -0.0130
     24  C         15.4510  -24.0360   -5.6280 C.3     1  UNL1        0.0160
     25  C         22.8580  -22.0430  -12.3860 C.2     1  UNL1        0.2560
     26  O         23.6950  -22.7230  -11.8080 O.2     1  UNL1       -0.2670
     27  N         23.0040  -21.3970  -13.6000 N.am    1  UNL1       -0.3230
     28  H         22.1690  -20.9920  -14.0030 H       1  UNL1        0.1690
     29  C         24.1700  -21.3180  -14.3910 C.2     1  UNL1        0.0370
     30  C         25.1420  -20.3890  -13.9940 C.2     1  UNL1        0.0290
     31  C         26.3360  -20.2450  -14.7070 C.2     1  UNL1        0.0050
     32  C         26.5740  -21.0330  -15.8290 C.2     1  UNL1        0.0360
     33  C         25.6080  -21.9650  -16.2300 C.2     1  UNL1        0.1050
     34  C         24.4080  -22.1120  -15.5160 C.2     1  UNL1        0.0650
     35  N         25.8630  -22.8030  -17.4090 N.pl3   1  UNL1       -0.1160
     36  O         26.9860  -22.7320  -17.9310 O.2     1  UNL1       -0.5320
     37  O         24.9480  -23.5330  -17.8150 O.2     1  UNL1       -0.5320
@<TRIPOS>BOND
     1    36    35    2
     2    37    35    2
     3    35    33    1
     4    33    32    2
     5    33    34    1
     6    32    31    1
     7    34    29    2
     8    31    30    2
     9    29    30    1
    10    29    27    1
    11    28    27    1
    12    27    25   am
    13    25    26    2
    14    25     5    1
    15     4     5    2
    16     4     3    1
    17     5     6    1
    18     3     2    2
    19     6     1    2
    20     2     1    1
    21     1     7    1
    22    14    13    1
    23     9     7    2
    24    13    12    1
    25     7    10    1
    26     7     8    2
    27    11    10    1
    28    10    12    1
    29    12    15    1
    30    15    22    1
    31    15    24    1
    32    15    16    1
    33    22    20    1
    34    24    23    1
    35    16    17    1
    36    20    21    1
    37    20    18    1
    38    23    21    1
    39    23    19    1
    40    17    18    1
    41    17    19    1
