@<TRIPOS>MOLECULE
12317_out_ligand_01.pdbqt
 33 36 0 0 0
SMALL
GASTEIGER

@<TRIPOS>ATOM
      1  C         20.9560  -22.2610  -11.1930 C.2     1  UNL1        0.0370
      2  C         20.1470  -21.3100  -11.8310 C.2     1  UNL1        0.0290
      3  C         18.8160  -21.1320  -11.4490 C.2     1  UNL1        0.0030
      4  C         18.2800  -21.9010  -10.4190 C.2     1  UNL1        0.0170
      5  C         19.0800  -22.8510   -9.7720 C.2     1  UNL1        0.0340
      6  C         20.4190  -23.0200  -10.1520 C.2     1  UNL1        0.0460
      7  N         22.2920  -22.3630  -11.6300 N.am    1  UNL1       -0.3090
      8  C         23.4110  -21.7970  -11.0540 C.2     1  UNL1        0.3270
      9  N         24.6010  -22.0030  -11.7740 N.am    1  UNL1       -0.2960
     10  O         23.4220  -21.2460   -9.9550 O.2     1  UNL1       -0.2460
     11  C         25.8020  -22.0920  -10.9360 C.3     1  UNL1        0.1440
     12  C         24.6820  -22.3020  -13.1790 C.2     1  UNL1        0.0800
     13  C         27.1060  -22.4640  -11.6230 C.3     1  UNL1        0.1010
     14  S         26.8560  -23.9550  -12.6080 S.3     1  UNL1       -0.1060
     15  C         25.6100  -23.2450  -13.6640 C.2     1  UNL1        0.1210
     16  N         25.6690  -23.6620  -14.9510 N.2     1  UNL1       -0.2440
     17  C         24.8150  -23.1090  -15.8340 C.2     1  UNL1        0.0320
     18  C         24.8890  -23.5820  -17.2550 C.3     1  UNL1        0.0700
     19  C         23.9230  -22.1090  -15.4720 C.2     1  UNL1        0.0350
     20  C         23.8690  -21.6660  -14.1400 C.2     1  UNL1       -0.0300
     21  C         22.9910  -20.4740  -13.8610 C.3     1  UNL1        0.0500
     22  H         22.4830  -23.0570  -12.3380 H       1  UNL1        0.1700
     23  C         18.5490  -23.6690   -8.6510 C.2     1  UNL1        0.2520
     24  O         19.2890  -24.4110   -8.0180 O.2     1  UNL1       -0.2680
     25  N         17.1970  -23.5460   -8.4040 N.am    1  UNL1       -0.3530
     26  H         16.6170  -23.1060   -9.1050 H       1  UNL1        0.1630
     27  C         16.5360  -24.3870   -7.4310 C.3     1  UNL1        0.1620
     28  C         16.2960  -23.6470   -6.1480 C.2     1  UNL1       -0.0230
     29  C         15.0970  -22.9730   -5.9010 C.2     1  UNL1        0.0120
     30  C         14.9160  -22.3100   -4.6900 C.2     1  UNL1        0.0200
     31  C         15.9410  -22.3470   -3.7610 C.2     1  UNL1        0.1160
     32  N         17.1080  -22.9940   -3.9590 N.2     1  UNL1       -0.2730
     33  C         17.2590  -23.6340   -5.1430 C.2     1  UNL1        0.1240
@<TRIPOS>BOND
     1    18    17    1
     2    17    19    2
     3    17    16    1
     4    19    20    1
     5    16    15    2
     6    20    21    1
     7    20    12    2
     8    15    12    1
     9    15    14    1
    10    12     9    1
    11    14    13    1
    12    22     7    1
    13     2     3    1
    14     2     1    2
    15     9     8   am
    16     9    11    1
    17     7     1    1
    18     7     8   am
    19    13    11    1
    20     3     4    2
    21     1     6    1
    22     8    10    2
    23     4     5    1
    24     6     5    2
    25     5    23    1
    26    26    25    1
    27    23    25   am
    28    23    24    2
    29    25    27    1
    30    27    28    1
    31    28    29    2
    32    28    33    1
    33    29    30    1
    34    33    32    2
    35    30    31    2
    36    32    31    1
