@<TRIPOS>MOLECULE
12327_out_ligand_01.pdbqt
 35 38 0 0 0
SMALL
GASTEIGER

@<TRIPOS>ATOM
      1  N         21.2780  -23.2890   -9.7690 N.pl3   1  UNL1       -0.3310
      2  C         22.6140  -23.1230  -10.0950 C.2     1  UNL1        0.1210
      3  C         23.0850  -22.2870  -11.0300 C.2     1  UNL1        0.1300
      4  C         22.1080  -21.5100  -11.8130 C.2     1  UNL1        0.2090
      5  O         22.4400  -20.7450  -12.7100 O.2     1  UNL1       -0.2860
      6  C         20.6740  -21.6770  -11.4780 C.2     1  UNL1        0.0620
      7  C         19.7010  -20.9520  -12.1700 C.2     1  UNL1        0.0210
      8  C         18.3630  -21.1260  -11.8380 C.2     1  UNL1        0.0280
      9  C         18.0370  -22.0200  -10.8250 C.2     1  UNL1        0.0330
     10  C         16.5990  -22.2380  -10.4550 C.3     1  UNL1        0.0700
     11  N         18.9730  -22.7470  -10.1570 N.2     1  UNL1       -0.2350
     12  C         20.2860  -22.5670  -10.4680 C.2     1  UNL1        0.1440
     13  C         20.8120  -24.2760   -8.7810 C.3     1  UNL1        0.2330
     14  C         19.8410  -23.6410   -7.7790 C.2     1  UNL1        0.2400
     15  N         18.6500  -24.3390   -7.6700 N.am    1  UNL1       -0.3260
     16  H         18.6120  -25.2170   -8.1950 H       1  UNL1        0.1690
     17  O         20.1450  -22.6190   -7.1680 O.2     1  UNL1       -0.2710
     18  C         17.5240  -24.0270   -6.8850 C.2     1  UNL1        0.0360
     19  C         16.2070  -24.2480   -7.2880 C.2     1  UNL1        0.0290
     20  C         15.1480  -23.9320   -6.4320 C.2     1  UNL1        0.0040
     21  C         15.3970  -23.3940   -5.1660 C.2     1  UNL1        0.0180
     22  C         16.7070  -23.1410   -4.7570 C.2     1  UNL1        0.0020
     23  C         17.7630  -23.4710   -5.6200 C.2     1  UNL1        0.0480
     24  S         17.1210  -22.4610   -3.1530 S.3     1  UNL1       -0.1340
     25  C         18.5020  -21.3610   -3.5710 C.3     1  UNL1        0.0950
     26  S         24.7790  -22.1720  -11.3070 S.O2    1  UNL1        0.2120
     27  O         25.4610  -23.2660  -10.6380 O.2     1  UNL1       -0.2170
     28  O         25.2220  -20.8060  -11.0560 O.2     1  UNL1       -0.2170
     29  C         24.9630  -22.4000  -13.0650 C.2     1  UNL1        0.0640
     30  C         25.1600  -21.2800  -13.8800 C.2     1  UNL1        0.0240
     31  C         25.3190  -21.4520  -15.2560 C.2     1  UNL1        0.0080
     32  C         25.3050  -22.7370  -15.8180 C.2     1  UNL1       -0.0620
     33  C         25.4430  -22.9200  -17.3010 C.3     1  UNL1        0.0480
     34  C         25.1100  -23.8490  -14.9870 C.2     1  UNL1        0.0080
     35  C         24.9500  -23.6860  -13.6090 C.2     1  UNL1        0.0240
@<TRIPOS>BOND
     1    33    32    1
     2    32    31    2
     3    32    34    1
     4    31    30    1
     5    34    35    2
     6    30    29    2
     7    35    29    1
     8    29    26    1
     9     5     4    2
    10     7     8    1
    11     7     6    2
    12     8     9    2
    13     4     6    1
    14     4     3    1
    15     6    12    1
    16    26    28    2
    17    26     3    1
    18    26    27    2
    19     3     2    2
    20     9    10    1
    21     9    11    1
    22    12    11    2
    23    12     1    1
    24     2     1    1
    25     1    13    1
    26    13    14    1
    27    16    15    1
    28    14    15   am
    29    14    17    2
    30    15    18    1
    31    19    18    2
    32    19    20    1
    33    18    23    1
    34    20    21    2
    35    23    22    2
    36    21    22    1
    37    22    24    1
    38    25    24    1
