@<TRIPOS>MOLECULE
12332_out_ligand_01.pdbqt
 32 35 0 0 0
SMALL
GASTEIGER

@<TRIPOS>ATOM
      1  C         21.7550  -22.7790   -8.8320 C.2     1  UNL1        0.0320
      2  C         20.9940  -21.9990   -7.9500 C.2     1  UNL1        0.0200
      3  C         19.8460  -22.5330   -7.3530 C.2     1  UNL1        0.0380
      4  C         19.4450  -23.8410   -7.6480 C.2     1  UNL1        0.0780
      5  C         20.2070  -24.6160   -8.5290 C.2     1  UNL1        0.0380
      6  C         21.3510  -24.0850   -9.1280 C.2     1  UNL1        0.0200
      7  O         18.3380  -24.4700   -7.1250 O.2     1  UNL1       -0.2900
      8  C         17.3210  -23.6710   -6.6540 C.2     1  UNL1        0.2060
      9  N         17.4640  -23.2280   -5.3750 N.2     1  UNL1       -0.2330
     10  C         16.4380  -22.4870   -4.9050 C.2     1  UNL1        0.1380
     11  C         15.3190  -22.2000   -5.6660 C.2     1  UNL1        0.1370
     12  N         15.1670  -22.6450   -6.9350 N.2     1  UNL1       -0.2480
     13  C         16.1840  -23.4030   -7.4280 C.2     1  UNL1        0.1510
     14  S         15.9620  -23.9890   -9.0960 S.3     1  UNL1       -0.0660
     15  C         16.8760  -22.7600  -10.0080 C.2     1  UNL1        0.0070
     16  C         16.3280  -21.4840  -10.1860 C.2     1  UNL1        0.0190
     17  C         17.0320  -20.5090  -10.8930 C.2     1  UNL1        0.0010
     18  C         18.2820  -20.8050  -11.4360 C.2     1  UNL1        0.0000
     19  C         18.8270  -22.0780  -11.2780 C.2     1  UNL1        0.0010
     20  C         18.1250  -23.0540  -10.5670 C.2     1  UNL1        0.0190
     21  C         22.9810  -22.2430   -9.4880 C.2     1  UNL1        0.2560
     22  N         23.5300  -23.0790  -10.4440 N.am    1  UNL1       -0.3220
     23  H         22.9770  -23.8820  -10.6970 H       1  UNL1        0.1690
     24  O         23.3620  -21.1230   -9.1670 O.2     1  UNL1       -0.2670
     25  C         24.7190  -22.8820  -11.1900 C.2     1  UNL1        0.0410
     26  C         25.9640  -23.3020  -10.7120 C.2     1  UNL1        0.0300
     27  C         27.1210  -23.1170  -11.4640 C.2     1  UNL1        0.0030
     28  C         27.0510  -22.5120  -12.7130 C.2     1  UNL1        0.0070
     29  C         25.8210  -22.0830  -13.2310 C.2     1  UNL1       -0.0540
     30  C         25.8130  -21.4340  -14.5910 C.3     1  UNL1        0.0490
     31  C         24.6390  -22.2640  -12.4690 C.2     1  UNL1       -0.0290
     32  C         23.3050  -21.8040  -13.0060 C.3     1  UNL1        0.0510
@<TRIPOS>BOND
     1    30    29    1
     2    29    28    2
     3    29    31    1
     4    32    31    1
     5    28    27    1
     6    31    25    2
     7    27    26    2
     8    18    19    2
     9    18    17    1
    10    19    20    1
    11    25    26    1
    12    25    22    1
    13    17    16    2
    14    23    22    1
    15    20    15    2
    16    22    21   am
    17    16    15    1
    18    15    14    1
    19    21    24    2
    20    21     1    1
    21     6     1    2
    22     6     5    1
    23    14    13    1
    24     1     2    1
    25     5     4    2
    26     2     3    2
    27     4     3    1
    28     4     7    1
    29    13    12    2
    30    13     8    1
    31     7     8    1
    32    12    11    1
    33     8     9    2
    34    11    10    2
    35     9    10    1
