@<TRIPOS>MOLECULE
12338_out_ligand_01.pdbqt
 35 38 0 0 0
SMALL
GASTEIGER

@<TRIPOS>ATOM
      1  C         26.4190  -23.3110  -13.5690 C.3     1  UNL1        0.0330
      2  C         25.9880  -22.1680  -12.6440 C.3     1  UNL1        0.0930
      3  C         26.0690  -22.6050  -11.1650 C.3     1  UNL1        0.0660
      4  C         24.6290  -22.8190  -10.8270 C.2     1  UNL1       -0.0290
      5  C         24.1130  -23.3520   -9.6560 C.2     1  UNL1        0.0100
      6  C         22.7280  -23.3860   -9.4990 C.2     1  UNL1        0.0090
      7  C         21.8680  -22.8930  -10.5050 C.2     1  UNL1       -0.0380
      8  C         22.4160  -22.3470  -11.6780 C.2     1  UNL1        0.0390
      9  C         23.7940  -22.3170  -11.8270 C.2     1  UNL1        0.0440
     10  N         24.5660  -21.7940  -12.8890 N.am    1  UNL1       -0.3090
     11  C         24.0450  -21.1700  -14.0150 C.2     1  UNL1        0.2580
     12  O         22.8600  -21.1270  -14.3360 O.2     1  UNL1       -0.2670
     13  C         20.3710  -22.9330  -10.3120 C.3     1  UNL1        0.1630
     14  N         19.9640  -22.1670   -9.1510 N.am    1  UNL1       -0.3390
     15  C         19.2880  -22.7640   -8.1070 C.2     1  UNL1        0.3200
     16  O         19.0660  -23.9670   -8.0690 O.2     1  UNL1       -0.2470
     17  N         18.9290  -21.8300   -7.1570 N.am    1  UNL1       -0.3090
     18  H         19.3590  -20.9250   -7.2620 H       1  UNL1        0.1700
     19  H         19.7750  -21.1920   -9.3190 H       1  UNL1        0.1640
     20  C         18.1470  -22.0360   -6.0020 C.2     1  UNL1        0.0370
     21  C         18.5460  -21.6670   -4.7170 C.2     1  UNL1        0.0290
     22  C         17.7260  -21.9290   -3.6140 C.2     1  UNL1        0.0030
     23  C         16.4960  -22.5610   -3.7880 C.2     1  UNL1        0.0160
     24  C         16.0700  -22.9330   -5.0700 C.2     1  UNL1        0.0500
     25  C         16.9090  -22.6730   -6.1690 C.2     1  UNL1        0.0450
     26  C         14.7540  -23.6450   -5.2650 C.3     1  UNL1        0.4170
     27  F         14.7530  -24.4340   -6.3730 F       1  UNL1       -0.1660
     28  F         14.4240  -24.4590   -4.2230 F       1  UNL1       -0.1660
     29  F         13.7050  -22.7880   -5.4170 F       1  UNL1       -0.1660
     30  C         24.9980  -20.4800  -14.9160 C.2     1  UNL1        0.0320
     31  C         25.6600  -19.3240  -14.4920 C.2     1  UNL1        0.0170
     32  C         26.5410  -18.6770  -15.3580 C.2     1  UNL1        0.0010
     33  C         26.7420  -19.1750  -16.6480 C.2     1  UNL1        0.0000
     34  C         26.0550  -20.3100  -17.0800 C.2     1  UNL1        0.0010
     35  C         25.1740  -20.9610  -16.2170 C.2     1  UNL1        0.0170
@<TRIPOS>BOND
     1    34    33    2
     2    34    35    1
     3    33    32    1
     4    35    30    2
     5    32    31    2
     6    30    31    1
     7    30    11    1
     8    12    11    2
     9    11    10   am
    10     1     2    1
    11    10     2    1
    12    10     9    1
    13     2     3    1
    14     9     8    1
    15     9     4    2
    16     8     7    2
    17     3     4    1
    18     4     5    1
    19     7    13    1
    20     7     6    1
    21    13    14    1
    22     5     6    2
    23    19    14    1
    24    14    15   am
    25    15    16    2
    26    15    17   am
    27    18    17    1
    28    17    20    1
    29    27    26    1
    30    25    20    2
    31    25    24    1
    32    20    21    1
    33    29    26    1
    34    26    24    1
    35    26    28    1
    36    24    23    2
    37    21    22    2
    38    23    22    1
