@<TRIPOS>MOLECULE
12330_out_ligand_01.pdbqt
 31 34 0 0 0
SMALL
GASTEIGER

@<TRIPOS>ATOM
      1  C         26.6450  -22.9300  -13.0400 C.3     1  UNL1        0.0480
      2  C         25.2370  -22.4110  -13.1000 C.2     1  UNL1       -0.0610
      3  C         24.8780  -21.4600  -14.0620 C.2     1  UNL1        0.0090
      4  C         23.5850  -20.9320  -14.1190 C.2     1  UNL1        0.0310
      5  C         22.6600  -21.3790  -13.1690 C.ar    1  UNL1        0.0430
      6  N         21.3420  -21.0340  -12.9900 N.ar    1  UNL1       -0.3520
      7  C         20.8050  -21.7070  -11.9200 C.ar    1  UNL1        0.0950
      8  C         19.4480  -21.5030  -11.5160 C.2     1  UNL1        0.2230
      9  N         18.8630  -22.1360  -10.5230 N.2     1  UNL1       -0.2030
     10  C         17.6020  -21.6020  -10.5220 C.2     1  UNL1        0.1580
     11  N         17.3820  -20.6690  -11.4550 N.4     1  UNL1       -0.1110
     12  O         18.6050  -20.6050  -12.1260 O.2     1  UNL1       -0.1890
     13  C         21.7970  -22.5240  -11.3950 C.ar    1  UNL1       -0.0180
     14  C         21.6640  -23.4410  -10.2260 C.3     1  UNL1        0.0520
     15  C         22.9750  -22.3150  -12.1860 C.ar    1  UNL1       -0.0010
     16  C         24.2880  -22.8310  -12.1510 C.2     1  UNL1        0.0210
     17  H         20.8450  -20.3680  -13.5650 H       1  UNL1        0.1660
     18  C         16.5670  -22.0110   -9.5420 C.3     1  UNL1        0.1030
     19  C         16.3960  -23.5300   -9.4410 C.3     1  UNL1        0.1330
     20  N         16.3180  -24.0550   -8.0690 N.am    1  UNL1       -0.3560
     21  C         14.9870  -24.3680   -7.5640 C.3     1  UNL1        0.1520
     22  C         17.4070  -24.2800   -7.2290 C.2     1  UNL1        0.2230
     23  O         17.2750  -24.7750   -6.1020 O.2     1  UNL1       -0.2730
     24  C         18.8080  -23.9260   -7.7140 C.3     1  UNL1        0.1410
     25  C         19.4230  -22.7210   -7.0350 C.2     1  UNL1       -0.0460
     26  C         20.6940  -22.2680   -7.4260 C.2     1  UNL1        0.0080
     27  C         21.2700  -21.1410   -6.8290 C.2     1  UNL1        0.0040
     28  C         20.5740  -20.4450   -5.8430 C.2     1  UNL1        0.0420
     29  C         19.3060  -20.8770   -5.4690 C.2     1  UNL1        0.1160
     30  F         18.6340  -20.2000   -4.5290 F       1  UNL1       -0.2060
     31  C         18.7230  -21.9970   -6.0590 C.2     1  UNL1        0.0490
@<TRIPOS>BOND
     1     4     3    1
     2     4     5    2
     3     3     2    2
     4    17     6    1
     5     5     6   ar
     6     5    15   ar
     7     2     1    1
     8     2    16    1
     9     6     7   ar
    10    15    16    2
    11    15    13   ar
    12    12     8    1
    13    12    11    1
    14     7     8    1
    15     7    13   ar
    16     8     9    2
    17    11    10    1
    18    13    14    1
    19     9    10    2
    20    10    18    1
    21    18    19    1
    22    19    20    1
    23    20    21    1
    24    20    22   am
    25    24    22    1
    26    24    25    1
    27    26    25    2
    28    26    27    1
    29    22    23    2
    30    25    31    1
    31    27    28    2
    32    31    29    2
    33    28    29    1
    34    29    30    1
