@<TRIPOS>MOLECULE
12354_out_ligand_01.pdbqt
 36 40 0 0 0
SMALL
GASTEIGER

@<TRIPOS>ATOM
      1  C         23.2520  -22.5820  -11.2800 C.2     1  UNL1        0.2110
      2  N         22.8490  -21.7520  -12.2800 N.2     1  UNL1       -0.1220
      3  N         21.5740  -21.3840  -12.3850 N.pl3   1  UNL1       -0.1430
      4  C         20.7250  -21.8700  -11.4450 C.ar    1  UNL1        0.1370
      5  C         19.3340  -21.6930  -11.2470 C.ar    1  UNL1        0.0250
      6  C         18.3320  -20.9710  -11.9280 C.2     1  UNL1        0.0160
      7  C         17.0140  -21.0150  -11.4640 C.2     1  UNL1        0.0010
      8  C         16.6860  -21.7660  -10.3390 C.2     1  UNL1        0.0020
      9  C         17.6600  -22.4880   -9.6420 C.2     1  UNL1        0.0300
     10  C         18.9850  -22.4370  -10.1090 C.ar    1  UNL1        0.0490
     11  N         20.1430  -23.0350   -9.6410 N.ar    1  UNL1       -0.3290
     12  C         21.2010  -22.7070  -10.4510 C.ar    1  UNL1        0.1650
     13  N         22.4770  -23.1140  -10.3150 N.pl3   1  UNL1       -0.2010
     14  S         24.9970  -22.9310  -11.2160 S.3     1  UNL1       -0.0790
     15  C         25.1640  -23.8490  -12.7810 C.3     1  UNL1        0.1850
     16  C         25.8090  -23.0400  -13.9040 C.2     1  UNL1        0.2310
     17  N         24.9260  -22.2270  -14.5960 N.am    1  UNL1       -0.3270
     18  H         23.9830  -22.1820  -14.2220 H       1  UNL1        0.1690
     19  O         27.0020  -23.1880  -14.1580 O.2     1  UNL1       -0.2720
     20  C         25.2050  -21.3700  -15.6800 C.2     1  UNL1        0.0350
     21  C         24.9800  -21.7050  -17.0160 C.2     1  UNL1        0.0290
     22  C         25.2700  -20.7950  -18.0360 C.2     1  UNL1        0.0030
     23  C         25.7980  -19.5420  -17.7270 C.2     1  UNL1        0.0150
     24  C         26.0440  -19.1950  -16.3950 C.2     1  UNL1        0.0110
     25  C         25.7380  -20.1070  -15.3750 C.2     1  UNL1        0.0440
     26  C         26.6270  -17.8540  -16.1090 C.2     1  UNL1        0.1550
     27  C         26.9800  -16.9500  -17.2610 C.3     1  UNL1        0.0960
     28  O         26.8120  -17.5030  -14.9440 O.2     1  UNL1       -0.2930
     29  C         20.2660  -23.8600   -8.4500 C.3     1  UNL1        0.1350
     30  C         18.9680  -23.9780   -7.6450 C.3     1  UNL1        0.0580
     31  C         18.8380  -22.9270   -6.5690 C.2     1  UNL1       -0.0570
     32  C         17.9190  -23.0900   -5.5240 C.2     1  UNL1        0.0070
     33  C         17.8220  -22.1290   -4.5160 C.2     1  UNL1        0.0010
     34  C         18.6410  -21.0000   -4.5410 C.2     1  UNL1        0.0000
     35  C         19.5580  -20.8340   -5.5730 C.2     1  UNL1        0.0010
     36  C         19.6550  -21.7900   -6.5850 C.2     1  UNL1        0.0070
@<TRIPOS>BOND
     1    22    23    2
     2    22    21    1
     3    23    24    1
     4    27    26    1
     5    21    20    2
     6    24    26    1
     7    24    25    2
     8    26    28    2
     9    20    25    1
    10    20    17    1
    11    17    18    1
    12    17    16   am
    13    19    16    2
    14    16    15    1
    15    15    14    1
    16     3     2    1
    17     3     4    1
    18     2     1    2
    19     6     7    1
    20     6     5    2
    21     7     8    2
    22     4     5   ar
    23     4    12   ar
    24     1    14    1
    25     1    13    1
    26     5    10   ar
    27    12    13    1
    28    12    11   ar
    29     8     9    1
    30    10     9    2
    31    10    11   ar
    32    11    29    1
    33    29    30    1
    34    30    31    1
    35    36    31    2
    36    36    35    1
    37    31    32    1
    38    35    34    2
    39    32    33    2
    40    34    33    1
