@<TRIPOS>MOLECULE
12358_out_ligand_01.pdbqt
 30 33 0 0 0
SMALL
GASTEIGER

@<TRIPOS>ATOM
      1  C         20.2650  -23.4510   -8.0430 C.2     1  UNL1        0.0320
      2  C         20.7070  -24.3420   -9.0260 C.2     1  UNL1        0.0170
      3  C         21.9270  -24.1190   -9.6710 C.2     1  UNL1        0.0110
      4  C         22.7190  -23.0000   -9.3550 C.2     1  UNL1       -0.0210
      5  C         22.2580  -22.1060   -8.3760 C.2     1  UNL1        0.0110
      6  C         21.0380  -22.3260   -7.7300 C.2     1  UNL1        0.0170
      7  C         24.0500  -22.7710  -10.0500 C.3     1  UNL1        0.2040
      8  N         24.2750  -21.3430  -10.1880 N.pl3   1  UNL1       -0.2660
      9  C         25.2360  -20.9020  -11.0940 C.2     1  UNL1        0.0330
     10  H         24.3360  -20.8920   -9.2790 H       1  UNL1        0.1300
     11  C         26.0350  -19.7920  -10.8120 C.2     1  UNL1        0.0250
     12  C         25.3610  -21.4800  -12.3540 C.2     1  UNL1        0.1000
     13  C         26.9790  -19.3350  -11.7400 C.2     1  UNL1        0.0020
     14  C         27.1210  -19.9700  -12.9740 C.2     1  UNL1        0.0020
     15  C         26.3020  -21.0500  -13.2920 C.2     1  UNL1        0.0270
     16  S         24.2640  -22.7910  -12.7150 S.O2    1  UNL1        0.2620
     17  O         24.9510  -23.7310  -13.5770 O.2     1  UNL1       -0.2000
     18  O         22.9780  -22.2390  -13.0730 O.2     1  UNL1       -0.2000
     19  N         24.1530  -23.5560  -11.2520 N.3     1  UNL1       -0.2930
     20  H         24.7090  -24.4020  -11.2020 H       1  UNL1        0.1740
     21  C         18.9720  -23.6470   -7.3280 C.2     1  UNL1        0.2560
     22  O         18.3340  -24.6660   -7.5620 O.2     1  UNL1       -0.2670
     23  N         18.6070  -22.6100   -6.4900 N.am    1  UNL1       -0.3230
     24  H         19.1850  -21.7780   -6.5100 H       1  UNL1        0.1690
     25  C         17.4660  -22.5340   -5.6640 C.2     1  UNL1        0.0350
     26  C         17.5120  -22.5090   -4.2690 C.2     1  UNL1        0.0290
     27  C         16.3320  -22.4270   -3.5230 C.2     1  UNL1        0.0020
     28  C         15.0970  -22.3670   -4.1640 C.2     1  UNL1        0.0000
     29  C         15.0400  -22.3890   -5.5540 C.2     1  UNL1        0.0020
     30  C         16.2190  -22.4700   -6.3000 C.2     1  UNL1        0.0290
@<TRIPOS>BOND
     1    17    16    2
     2    15    14    2
     3    15    12    1
     4    18    16    2
     5    14    13    1
     6    16    12    1
     7    16    19    1
     8    12     9    2
     9    13    11    2
    10    19    20    1
    11    19     7    1
    12     9    11    1
    13     9     8    1
    14     8     7    1
    15     8    10    1
    16     7     4    1
    17     3     4    2
    18     3     2    1
    19     4     5    1
    20     2     1    2
    21     5     6    2
    22     1     6    1
    23     1    21    1
    24    22    21    2
    25    21    23   am
    26    24    23    1
    27    23    25    1
    28    30    25    2
    29    30    29    1
    30    25    26    1
    31    29    28    2
    32    26    27    2
    33    28    27    1
