@<TRIPOS>MOLECULE
12357_out_ligand_01.pdbqt
 31 34 0 0 0
SMALL
GASTEIGER

@<TRIPOS>ATOM
      1  C         20.8120  -22.5790   -8.5120 C.2     1  UNL1        0.0320
      2  C         20.7690  -22.7530   -9.9000 C.2     1  UNL1        0.0170
      3  C         21.8720  -22.3990  -10.6820 C.2     1  UNL1        0.0100
      4  C         23.0250  -21.8570  -10.0930 C.2     1  UNL1       -0.0300
      5  C         23.0530  -21.6780   -8.7030 C.2     1  UNL1        0.0100
      6  C         21.9530  -22.0300   -7.9180 C.2     1  UNL1        0.0170
      7  C         19.6590  -22.9420   -7.6390 C.2     1  UNL1        0.2560
      8  O         19.0600  -23.9840   -7.8730 O.2     1  UNL1       -0.2670
      9  N         19.3620  -22.0150   -6.6560 N.am    1  UNL1       -0.3230
     10  H         19.8690  -21.1410   -6.6870 H       1  UNL1        0.1690
     11  C         18.3590  -22.1090   -5.6680 C.2     1  UNL1        0.0350
     12  C         18.4940  -21.6160   -4.3700 C.2     1  UNL1        0.0290
     13  C         17.4490  -21.7400   -3.4500 C.2     1  UNL1        0.0030
     14  C         16.2560  -22.3580   -3.8200 C.2     1  UNL1        0.0160
     15  C         16.0990  -22.8650   -5.1160 C.2     1  UNL1        0.0500
     16  C         17.1550  -22.7250   -6.0350 C.2     1  UNL1        0.0450
     17  C         14.8040  -23.5150   -5.5370 C.3     1  UNL1        0.4170
     18  F         13.8090  -22.6200   -5.7880 F       1  UNL1       -0.1660
     19  F         14.9420  -24.2530   -6.6730 F       1  UNL1       -0.1660
     20  F         14.3090  -24.3680   -4.5960 F       1  UNL1       -0.1660
     21  C         24.2180  -21.4710  -10.9450 C.3     1  UNL1        0.3110
     22  N         24.3420  -22.1200  -12.2550 N.3     1  UNL1        0.0970
     23  C         25.2500  -23.2690  -12.2740 C.3     1  UNL1        0.2770
     24  C         25.0350  -24.0960  -13.5510 C.3     1  UNL1        0.0690
     25  C         24.9890  -23.2480  -14.7970 C.2     1  UNL1       -0.0490
     26  C         25.1090  -23.8460  -16.0600 C.2     1  UNL1        0.0070
     27  C         24.7620  -21.8640  -14.6970 C.2     1  UNL1       -0.0240
     28  C         25.0300  -23.0690  -17.2150 C.2     1  UNL1        0.0010
     29  C         24.8250  -21.6950  -17.1200 C.2     1  UNL1        0.0010
     30  C         24.6960  -21.0930  -15.8680 C.2     1  UNL1        0.0090
     31  C         24.6680  -21.1900  -13.3440 C.3     1  UNL1        0.3110
@<TRIPOS>BOND
     1    28    29    2
     2    28    26    1
     3    29    30    1
     4    26    25    2
     5    30    27    2
     6    25    27    1
     7    25    24    1
     8    27    31    1
     9    24    23    1
    10    31    22    1
    11    23    22    1
    12    22    21    1
    13    21     4    1
    14     3     4    2
    15     3     2    1
    16     4     5    1
    17     2     1    2
    18     5     6    2
    19     1     6    1
    20     1     7    1
    21     8     7    2
    22     7     9   am
    23    10     9    1
    24    19    17    1
    25     9    11    1
    26    16    11    2
    27    16    15    1
    28    18    17    1
    29    11    12    1
    30    17    15    1
    31    17    20    1
    32    15    14    2
    33    12    13    2
    34    14    13    1
