@<TRIPOS>MOLECULE
12362_out_ligand_01.pdbqt
 31 34 0 0 0
SMALL
GASTEIGER

@<TRIPOS>ATOM
      1  C         17.3710  -21.4600  -11.3110 C.3     1  UNL1        0.0500
      2  C         18.8540  -21.5660  -11.0590 C.2     1  UNL1       -0.0350
      3  C         19.7270  -21.1810  -12.0920 C.2     1  UNL1        0.0100
      4  C         21.1080  -21.2560  -11.9250 C.2     1  UNL1        0.0170
      5  C         21.6340  -21.7160  -10.7170 C.2     1  UNL1        0.0340
      6  C         20.7740  -22.1170   -9.6850 C.2     1  UNL1        0.0470
      7  C         19.3840  -22.0430   -9.8380 C.2     1  UNL1        0.0420
      8  N         18.4810  -22.4220   -8.8160 N.am    1  UNL1       -0.3210
      9  C         18.4970  -23.5700   -8.0330 C.2     1  UNL1        0.2760
     10  O         19.3050  -24.4890   -8.1090 O.2     1  UNL1       -0.2660
     11  H         17.6930  -21.8090   -8.6620 H       1  UNL1        0.1690
     12  C         17.3980  -23.5900   -7.0480 C.ar    1  UNL1        0.1440
     13  N         16.2550  -24.2090   -7.3650 N.ar    1  UNL1       -0.2050
     14  S         15.1850  -24.0600   -6.1210 S.2     1  UNL1        0.0120
     15  C         16.2070  -23.1450   -5.0900 C.ar    1  UNL1        0.0360
     16  C         15.9480  -22.6350   -3.8070 C.2     1  UNL1        0.0210
     17  C         17.4330  -22.9630   -5.7360 C.ar    1  UNL1        0.0170
     18  C         16.9610  -21.9250   -3.1570 C.2     1  UNL1        0.0010
     19  C         18.1960  -21.7360   -3.7650 C.2     1  UNL1        0.0010
     20  C         18.4450  -22.2490   -5.0430 C.2     1  UNL1        0.0150
     21  C         23.1040  -21.8200  -10.5040 C.2     1  UNL1        0.2520
     22  O         23.6170  -21.3600   -9.4910 O.2     1  UNL1       -0.2680
     23  N         23.8200  -22.4280  -11.5140 N.am    1  UNL1       -0.3530
     24  H         23.3720  -22.5830  -12.4070 H       1  UNL1        0.1630
     25  C         25.2660  -22.4930  -11.4800 C.3     1  UNL1        0.1620
     26  C         25.8820  -21.2570  -12.0680 C.2     1  UNL1       -0.0230
     27  C         26.3790  -20.2320  -11.2560 C.2     1  UNL1        0.0120
     28  C         26.9460  -19.1010  -11.8380 C.2     1  UNL1        0.0200
     29  C         26.9990  -19.0330  -13.2210 C.2     1  UNL1        0.1160
     30  N         26.5260  -19.9960  -14.0400 N.2     1  UNL1       -0.2730
     31  C         25.9820  -21.0850  -13.4450 C.2     1  UNL1        0.1240
@<TRIPOS>BOND
     1    30    31    1
     2    30    29    2
     3    31    26    2
     4    29    28    1
     5    24    23    1
     6     3     4    1
     7     3     2    2
     8    26    25    1
     9    26    27    1
    10     4     5    2
    11    28    27    2
    12    23    25    1
    13    23    21   am
    14     1     2    1
    15     2     7    1
    16     5    21    1
    17     5     6    1
    18    21    22    2
    19     7     6    2
    20     7     8    1
    21     8    11    1
    22     8     9   am
    23    10     9    2
    24     9    12    1
    25    13    12   ar
    26    13    14   ar
    27    12    17   ar
    28    14    15   ar
    29    17    15   ar
    30    17    20    1
    31    15    16    1
    32    20    19    2
    33    16    18    2
    34    19    18    1
