@<TRIPOS>MOLECULE
12374_out_ligand_01.pdbqt
 31 34 0 0 0
SMALL
GASTEIGER

@<TRIPOS>ATOM
      1  C         19.8360  -21.7790  -10.8000 C.2     1  UNL1        0.0720
      2  C         19.3100  -22.5550   -9.7540 C.2     1  UNL1        0.0450
      3  C         17.9320  -22.5520   -9.5070 C.2     1  UNL1        0.0760
      4  C         17.0630  -21.8010  -10.3040 C.2     1  UNL1        0.0280
      5  C         17.5810  -21.0370  -11.3470 C.2     1  UNL1        0.0450
      6  C         18.9560  -21.0290  -11.5860 C.2     1  UNL1        0.1320
      7  F         19.4080  -20.2740  -12.6000 F       1  UNL1       -0.2050
      8  C         21.3170  -21.7830  -11.0080 C.2     1  UNL1        0.2590
      9  N         21.7590  -21.8790  -12.3140 N.am    1  UNL1       -0.3230
     10  H         21.0510  -21.9270  -13.0390 H       1  UNL1        0.1690
     11  O         22.0290  -21.6950  -10.0120 O.2     1  UNL1       -0.2670
     12  C         23.0920  -21.9090  -12.7760 C.2     1  UNL1        0.0350
     13  C         24.1560  -22.4570  -12.0650 C.2     1  UNL1        0.0300
     14  C         25.4480  -22.4440  -12.6000 C.2     1  UNL1        0.0090
     15  C         25.7030  -21.8840  -13.8600 C.2     1  UNL1       -0.0560
     16  C         27.1070  -21.8930  -14.3990 C.3     1  UNL1        0.0490
     17  C         24.6370  -21.3300  -14.5890 C.2     1  UNL1       -0.0540
     18  C         23.3430  -21.3490  -14.0360 C.2     1  UNL1        0.0370
     19  C         24.8500  -20.7160  -15.9450 C.3     1  UNL1        0.0490
     20  S         17.2480  -23.5470   -8.1920 S.O2    1  UNL1        0.2480
     21  O         18.2890  -24.4360   -7.7200 O.2     1  UNL1       -0.2050
     22  O         15.9920  -24.0610   -8.6960 O.2     1  UNL1       -0.2050
     23  N         16.9590  -22.3660   -6.9920 N.pl3   1  UNL1       -0.1710
     24  C         18.1350  -21.4890   -6.6450 C.3     1  UNL1        0.1180
     25  C         18.5090  -21.7880   -5.1850 C.3     1  UNL1        0.0560
     26  C         17.3050  -22.5150   -4.6900 C.2     1  UNL1       -0.0350
     27  C         17.0110  -22.8840   -3.3870 C.2     1  UNL1        0.0090
     28  C         16.4730  -22.8780   -5.7440 C.2     1  UNL1        0.0310
     29  C         15.8410  -23.6120   -3.1530 C.2     1  UNL1        0.0010
     30  C         14.9950  -23.9630   -4.2150 C.2     1  UNL1        0.0020
     31  C         15.3080  -23.5920   -5.5260 C.2     1  UNL1        0.0250
@<TRIPOS>BOND
     1    19    17    1
     2    17    18    1
     3    17    15    2
     4    16    15    1
     5    18    12    2
     6    15    14    1
     7    10     9    1
     8    12     9    1
     9    12    13    1
    10     7     6    1
    11    14    13    2
    12     9     8   am
    13     6     5    1
    14     6     1    2
    15     5     4    2
    16     8     1    1
    17     8    11    2
    18     1     2    1
    19     4     3    1
    20     2     3    2
    21     3    20    1
    22    22    20    2
    23    20    21    2
    24    20    23    1
    25    23    24    1
    26    23    28    1
    27    24    25    1
    28    28    31    1
    29    28    26    2
    30    31    30    2
    31    25    26    1
    32    26    27    1
    33    30    29    1
    34    27    29    2
