@<TRIPOS>MOLECULE
12372_out_ligand_01.pdbqt
 30 33 0 0 0
SMALL
GASTEIGER

@<TRIPOS>ATOM
      1  C         18.7390  -23.1120   -9.1630 C.2     1  UNL1        0.2580
      2  O         18.4330  -23.5380  -10.2730 O.2     1  UNL1       -0.2670
      3  N         19.9670  -22.5900   -8.7910 N.am    1  UNL1       -0.3130
      4  C         20.3700  -22.1930   -7.4280 C.2     1  UNL1        0.1370
      5  C         21.8700  -21.8710   -7.4650 C.2     1  UNL1        0.0610
      6  C         22.1670  -21.9340   -8.9280 C.2     1  UNL1       -0.0290
      7  C         23.3730  -21.6480   -9.5530 C.2     1  UNL1        0.0180
      8  C         23.4650  -21.8000  -10.9450 C.2     1  UNL1       -0.0400
      9  C         22.3430  -22.2590  -11.6660 C.2     1  UNL1        0.0110
     10  C         21.1350  -22.5500  -11.0220 C.2     1  UNL1        0.0310
     11  C         21.0600  -22.3790   -9.6520 C.2     1  UNL1        0.0430
     12  C         24.7580  -21.5210  -11.6660 C.3     1  UNL1        0.1610
     13  N         24.5660  -21.5830  -13.0960 N.am    1  UNL1       -0.3530
     14  C         25.3880  -22.3220  -13.9160 C.2     1  UNL1        0.2550
     15  O         26.2650  -23.0640  -13.4850 O.2     1  UNL1       -0.2680
     16  H         23.9230  -20.9170  -13.5080 H       1  UNL1        0.1630
     17  C         25.1870  -22.1940  -15.3870 C.2     1  UNL1        0.0700
     18  C         25.2940  -20.9200  -15.9650 C.2     1  UNL1        0.0200
     19  C         25.1130  -20.7430  -17.3400 C.2     1  UNL1        0.0010
     20  C         24.8220  -21.8390  -18.1520 C.2     1  UNL1        0.0030
     21  C         24.7130  -23.1090  -17.5890 C.2     1  UNL1        0.0430
     22  C         24.8940  -23.2800  -16.2160 C.2     1  UNL1        0.1320
     23  F         24.7800  -24.5230  -15.7220 F       1  UNL1       -0.2050
     24  C         17.7020  -23.1900   -8.1150 C.2     1  UNL1        0.0320
     25  C         16.7470  -22.1770   -7.9880 C.2     1  UNL1        0.0170
     26  C         15.7700  -22.2730   -6.9970 C.2     1  UNL1        0.0070
     27  C         15.7400  -23.3770   -6.1320 C.2     1  UNL1       -0.0620
     28  C         14.6620  -23.4940   -5.0940 C.3     1  UNL1        0.0480
     29  C         16.6820  -24.4030   -6.2950 C.2     1  UNL1        0.0070
     30  C         17.6620  -24.3120   -7.2840 C.2     1  UNL1        0.0170
@<TRIPOS>BOND
     1    20    21    2
     2    20    19    1
     3    21    22    1
     4    19    18    2
     5    22    23    1
     6    22    17    2
     7    18    17    1
     8    17    14    1
     9    14    15    2
    10    14    13   am
    11    16    13    1
    12    13    12    1
    13     9    10    2
    14     9     8    1
    15    12     8    1
    16    10    11    1
    17     8     7    2
    18     2     1    2
    19    11     6    2
    20    11     3    1
    21     7     6    1
    22     1     3   am
    23     1    24    1
    24     6     5    1
    25     3     4    1
    26    24    25    2
    27    24    30    1
    28    25    26    1
    29     5     4    2
    30    30    29    2
    31    26    27    2
    32    29    27    1
    33    27    28    1
