@<TRIPOS>MOLECULE
12391_out_ligand_01.pdbqt
 31 33 0 0 0
SMALL
GASTEIGER

@<TRIPOS>ATOM
      1  C         22.6520  -22.9880   -9.1070 C.2     1  UNL1       -0.0400
      2  C         22.3900  -21.9210   -8.2340 C.2     1  UNL1        0.0100
      3  C         21.1990  -21.8770   -7.5030 C.2     1  UNL1        0.0170
      4  C         20.2560  -22.9020   -7.6400 C.2     1  UNL1        0.0320
      5  C         20.5170  -23.9790   -8.4920 C.2     1  UNL1        0.0170
      6  C         21.7020  -24.0150   -9.2290 C.2     1  UNL1        0.0100
      7  C         23.9170  -23.0130   -9.9340 C.3     1  UNL1        0.1700
      8  N         24.3590  -21.6670  -10.2800 N.3     1  UNL1       -0.3110
      9  H         23.6600  -20.9620  -10.5030 H       1  UNL1        0.1720
     10  S         25.8080  -21.4870  -11.0870 S.O2    1  UNL1        0.2590
     11  O         26.1390  -20.0800  -11.0940 O.2     1  UNL1       -0.2010
     12  O         26.7100  -22.4840  -10.5500 O.2     1  UNL1       -0.2010
     13  C         25.3650  -21.9880  -12.7280 C.2     1  UNL1        0.0790
     14  C         24.6240  -21.1160  -13.5290 C.2     1  UNL1        0.0260
     15  C         24.2820  -21.4990  -14.8270 C.2     1  UNL1        0.0080
     16  C         24.6790  -22.7470  -15.3280 C.2     1  UNL1       -0.0620
     17  C         24.2780  -23.1660  -16.7120 C.3     1  UNL1        0.0480
     18  C         25.4000  -23.6200  -14.5000 C.2     1  UNL1        0.0080
     19  C         25.7450  -23.2450  -13.2010 C.2     1  UNL1        0.0260
     20  C         18.9710  -22.8810   -6.8990 C.2     1  UNL1        0.2520
     21  O         18.4720  -21.8130   -6.5670 O.2     1  UNL1       -0.2680
     22  N         18.4430  -24.1180   -6.5920 N.am    1  UNL1       -0.3520
     23  H         18.9360  -24.9540   -6.8760 H       1  UNL1        0.1630
     24  C         17.1670  -24.2730   -5.9010 C.3     1  UNL1        0.0880
     25  C         17.2420  -23.6050   -4.5290 C.3     1  UNL1        0.0250
     26  C         15.9540  -23.7730   -3.7250 C.3     1  UNL1        0.0020
     27  C         14.7290  -24.0740   -4.5860 C.3     1  UNL1        0.0050
     28  C         14.7430  -23.3500   -5.9380 C.3     1  UNL1       -0.0130
     29  C         14.5920  -21.8360   -5.7540 C.3     1  UNL1        0.0100
     30  C         16.0160  -23.6880   -6.7610 C.3     1  UNL1        0.0080
     31  C         15.6720  -24.6700   -7.8900 C.3     1  UNL1        0.0120
@<TRIPOS>BOND
     1    17    16    1
     2    16    15    2
     3    16    18    1
     4    15    14    1
     5    18    19    2
     6    14    13    2
     7    19    13    1
     8    13    10    1
     9    11    10    2
    10    10    12    2
    11    10     8    1
    12     9     8    1
    13     8     7    1
    14     7     1    1
    15     6     1    2
    16     6     5    1
    17     1     2    1
    18     5     4    2
    19     2     3    2
    20    31    30    1
    21     4     3    1
    22     4    20    1
    23    20    22   am
    24    20    21    2
    25    23    22    1
    26    30    28    1
    27    30    24    1
    28    22    24    1
    29    28    29    1
    30    28    27    1
    31    24    25    1
    32    27    26    1
    33    25    26    1
