@<TRIPOS>MOLECULE
12408_out_ligand_01.pdbqt
 33 36 0 0 0
SMALL
GASTEIGER

@<TRIPOS>ATOM
      1  O         18.2180  -20.3080  -11.7810 O.2     1  UNL1       -0.2730
      2  C         18.7960  -21.2650  -11.2760 C.2     1  UNL1        0.2240
      3  C         18.0460  -22.4690  -10.7600 C.3     1  UNL1        0.1220
      4  C         18.8270  -23.3060   -9.7450 C.3     1  UNL1        0.1290
      5  C         20.3100  -23.2390   -9.9260 C.ar    1  UNL1        0.0700
      6  C         20.9100  -22.2770  -10.6330 C.ar    1  UNL1        0.1450
      7  N         22.2560  -22.1400  -10.7980 N.ar    1  UNL1       -0.2060
      8  C         22.9950  -23.0120  -10.2010 C.ar    1  UNL1        0.1710
      9  N         22.5150  -24.0280   -9.4410 N.ar    1  UNL1       -0.3020
     10  C         21.1800  -24.2510   -9.3000 C.ar    1  UNL1        0.2580
     11  O         20.7330  -25.2270   -8.7120 O.2     1  UNL1       -0.2670
     12  N         20.1600  -21.3080  -11.2190 N.am    1  UNL1       -0.3110
     13  H         23.1540  -24.6960   -9.0340 H       1  UNL1        0.1710
     14  H         20.6570  -20.5510  -11.6690 H       1  UNL1        0.1700
     15  C         18.4390  -22.9090   -8.3150 C.2     1  UNL1        0.2310
     16  O         19.1740  -22.1670   -7.6690 O.2     1  UNL1       -0.2720
     17  N         17.2650  -23.4860   -7.8520 N.am    1  UNL1       -0.3270
     18  H         16.7780  -24.1260   -8.4660 H       1  UNL1        0.1690
     19  C         16.6600  -23.2980   -6.5910 C.2     1  UNL1        0.0340
     20  C         17.1880  -23.7710   -5.3880 C.2     1  UNL1        0.0290
     21  C         16.5250  -23.5360   -4.1770 C.2     1  UNL1        0.0020
     22  C         15.3280  -22.8230   -4.1610 C.2     1  UNL1        0.0000
     23  C         14.7930  -22.3440   -5.3540 C.2     1  UNL1        0.0020
     24  C         15.4560  -22.5790   -6.5620 C.2     1  UNL1        0.0290
     25  S         24.7260  -23.0100  -10.2790 S.3     1  UNL1       -0.0910
     26  C         25.0470  -21.2850  -10.7410 C.3     1  UNL1        0.0870
     27  C         26.0930  -21.1560  -11.8480 C.3     1  UNL1        0.0490
     28  C         25.5480  -21.6950  -13.1500 C.2     1  UNL1       -0.0570
     29  C         26.2670  -22.6600  -13.8690 C.2     1  UNL1        0.0070
     30  C         25.7990  -23.1100  -15.1020 C.2     1  UNL1        0.0010
     31  C         24.6110  -22.6070  -15.6280 C.2     1  UNL1        0.0000
     32  C         23.8840  -21.6570  -14.9180 C.2     1  UNL1        0.0010
     33  C         24.3520  -21.1980  -13.6830 C.2     1  UNL1        0.0070
@<TRIPOS>BOND
     1    31    30    2
     2    31    32    1
     3    30    29    1
     4    32    33    2
     5    29    28    2
     6    33    28    1
     7    28    27    1
     8    27    26    1
     9     1     2    2
    10    14    12    1
    11     2    12   am
    12     2     3    1
    13    12     6    1
    14     7     6   ar
    15     7     8   ar
    16     3     4    1
    17    26    25    1
    18     6     5   ar
    19    25     8    1
    20     8     9   ar
    21     5     4    1
    22     5    10   ar
    23     4    15    1
    24     9    10   ar
    25     9    13    1
    26    10    11    2
    27    18    17    1
    28    15    17   am
    29    15    16    2
    30    17    19    1
    31    19    24    2
    32    19    20    1
    33    24    23    1
    34    20    21    2
    35    23    22    2
    36    21    22    1
