@<TRIPOS>MOLECULE
12429_out_ligand_01.pdbqt
 32 35 0 0 0
SMALL
GASTEIGER

@<TRIPOS>ATOM
      1  C         18.7120  -22.3040  -10.3970 C.2     1  UNL1        0.0320
      2  C         19.0590  -21.3100  -11.3180 C.2     1  UNL1        0.0190
      3  C         20.3880  -21.1800  -11.7390 C.2     1  UNL1        0.0300
      4  C         21.3860  -22.0290  -11.2440 C.2     1  UNL1        0.0360
      5  C         21.0340  -23.0140  -10.3190 C.2     1  UNL1        0.0300
      6  C         19.7080  -23.1460   -9.8910 C.2     1  UNL1        0.0190
      7  N         22.6910  -21.8350  -11.7320 N.am    1  UNL1       -0.3090
      8  C         23.8170  -21.4270  -11.0370 C.2     1  UNL1        0.3270
      9  O         23.8120  -21.0570   -9.8660 O.2     1  UNL1       -0.2460
     10  N         24.9840  -21.3970  -11.8260 N.am    1  UNL1       -0.2990
     11  C         26.1990  -20.8130  -11.2460 C.3     1  UNL1        0.1340
     12  C         25.1900  -22.2060  -12.9810 C.2     1  UNL1        0.0450
     13  C         26.5840  -19.4890  -11.8930 C.3     1  UNL1        0.0210
     14  C         27.1210  -19.6570  -13.3120 C.3     1  UNL1        0.0060
     15  C         26.0820  -20.1970  -14.2880 C.3     1  UNL1        0.0410
     16  C         25.7850  -21.6700  -14.1380 C.2     1  UNL1       -0.0310
     17  C         26.0080  -22.5190  -15.2370 C.2     1  UNL1        0.0090
     18  C         25.6520  -23.8670  -15.1900 C.2     1  UNL1        0.0010
     19  C         25.0580  -24.3890  -14.0470 C.2     1  UNL1        0.0020
     20  C         24.8280  -23.5630  -12.9480 C.2     1  UNL1        0.0300
     21  H         22.8120  -21.8980  -12.7320 H       1  UNL1        0.1700
     22  C         17.3150  -22.4860   -9.9180 C.2     1  UNL1        0.2510
     23  O         16.3980  -21.8480  -10.4220 O.2     1  UNL1       -0.2680
     24  N         17.1390  -23.3590   -8.8650 N.am    1  UNL1       -0.3560
     25  H         17.9470  -23.6400   -8.3250 H       1  UNL1        0.1620
     26  C         15.8440  -23.5060   -8.2190 C.3     1  UNL1        0.1290
     27  C         15.8680  -24.4610   -7.0230 C.3     1  UNL1        0.0840
     28  C         15.6500  -23.7490   -5.7360 C.2     1  UNL1        0.0540
     29  C         14.9340  -22.6220   -5.3900 C.2     1  UNL1        0.0340
     30  C         15.1200  -22.4460   -3.9980 C.2     1  UNL1        0.0270
     31  C         15.9340  -23.4760   -3.5860 C.2     1  UNL1        0.1420
     32  O         16.2630  -24.2700   -4.6360 O.2     1  UNL1       -0.3270
@<TRIPOS>BOND
     1    17    18    2
     2    17    16    1
     3    18    19    1
     4    15    16    1
     5    15    14    1
     6    16    12    2
     7    19    20    2
     8    14    13    1
     9    12    20    1
    10    12    10    1
    11    21     7    1
    12    13    11    1
    13    10    11    1
    14    10     8   am
    15     3     2    1
    16     3     4    2
    17     7     4    1
    18     7     8   am
    19     2     1    2
    20     4     5    1
    21     8     9    2
    22    23    22    2
    23     1    22    1
    24     1     6    1
    25     5     6    2
    26    22    24   am
    27    24    25    1
    28    24    26    1
    29    26    27    1
    30    27    28    1
    31    28    29    2
    32    28    32    1
    33    29    30    1
    34    32    31    1
    35    30    31    2
