@<TRIPOS>MOLECULE
12440_out_ligand_01.pdbqt
 35 39 0 0 0
SMALL
GASTEIGER

@<TRIPOS>ATOM
      1  S         16.0930  -23.2550   -9.4600 S.3     1  UNL1       -0.0870
      2  C         16.6580  -21.6000   -9.9400 C.3     1  UNL1        0.1210
      3  C         17.9930  -21.6010  -10.6480 C.2     1  UNL1       -0.0480
      4  C         18.5710  -20.3940  -11.0640 C.2     1  UNL1        0.0090
      5  C         19.8130  -20.3790  -11.6990 C.2     1  UNL1        0.0170
      6  C         20.4920  -21.5790  -11.9250 C.2     1  UNL1        0.0320
      7  C         19.9130  -22.7910  -11.5420 C.2     1  UNL1        0.0170
      8  C         18.6740  -22.8010  -10.9020 C.2     1  UNL1        0.0090
      9  C         21.8290  -21.6000  -12.5650 C.2     1  UNL1        0.2510
     10  O         22.0430  -20.9600  -13.5870 O.2     1  UNL1       -0.2680
     11  N         22.7590  -22.4190  -11.9650 N.am    1  UNL1       -0.3520
     12  H         22.4570  -23.0500  -11.2330 H       1  UNL1        0.1630
     13  C         24.0380  -22.6650  -12.5870 C.3     1  UNL1        0.1690
     14  C         24.9640  -21.5560  -12.1990 C.2     1  UNL1        0.0000
     15  C         25.4200  -21.2030  -10.9380 C.2     1  UNL1        0.0170
     16  C         26.3180  -20.0970  -10.9740 C.2     1  UNL1        0.0080
     17  C         26.5220  -19.6430  -12.2590 C.2     1  UNL1        0.0500
     18  S         25.6260  -20.5400  -13.4100 S.3     1  UNL1       -0.1050
     19  C         16.1600  -23.1770   -7.7290 C.ar    1  UNL1        0.1710
     20  N         15.3710  -22.4450   -6.9730 N.ar    1  UNL1       -0.2210
     21  C         15.7790  -22.6800   -5.6890 C.ar    1  UNL1        0.1050
     22  C         15.3060  -22.1900   -4.4660 C.2     1  UNL1        0.0370
     23  C         16.8580  -23.5600   -5.6710 C.ar    1  UNL1        0.1610
     24  C         15.9660  -22.6230   -3.3130 C.2     1  UNL1        0.0220
     25  C         17.0430  -23.4970   -3.4330 C.2     1  UNL1        0.1190
     26  N         17.5370  -24.0000   -4.5940 N.2     1  UNL1       -0.2410
     27  N         17.0770  -23.8880   -6.9880 N.ar    1  UNL1       -0.3040
     28  C         18.1410  -24.7590   -7.4500 C.3     1  UNL1        0.1710
     29  C         19.4040  -24.0020   -7.7840 C.2     1  UNL1       -0.0400
     30  C         20.4230  -24.6050   -8.5450 C.2     1  UNL1        0.0120
     31  C         21.6040  -23.9180   -8.8220 C.2     1  UNL1        0.0430
     32  C         21.7700  -22.6230   -8.3500 C.2     1  UNL1        0.1160
     33  F         22.9130  -21.9680   -8.6020 F       1  UNL1       -0.2060
     34  C         20.7740  -22.0000   -7.6100 C.2     1  UNL1        0.0430
     35  C         19.5930  -22.6880   -7.3270 C.2     1  UNL1        0.0120
@<TRIPOS>BOND
     1    10     9    2
     2    18    17    1
     3    18    14    1
     4    13    14    1
     5    13    11    1
     6     9    11   am
     7     9     6    1
     8    17    16    2
     9    14    15    2
    10    11    12    1
    11     6     5    2
    12     6     7    1
    13     5     4    1
    14     7     8    2
    15     4     3    2
    16    16    15    1
    17     8     3    1
    18     3     2    1
    19     2     1    1
    20     1    19    1
    21    31    30    1
    22    31    32    2
    23    33    32    1
    24    30    29    2
    25    32    34    1
    26    29    28    1
    27    29    35    1
    28    19    27   ar
    29    19    20   ar
    30    34    35    2
    31    28    27    1
    32    27    23   ar
    33    20    21   ar
    34    21    23   ar
    35    21    22    1
    36    23    26    1
    37    26    25    2
    38    22    24    2
    39    25    24    1
