@<TRIPOS>MOLECULE
12450_out_ligand_01.pdbqt
 31 34 0 0 0
SMALL
GASTEIGER

@<TRIPOS>ATOM
      1  C         20.3030  -23.1310   -8.2500 C.2     1  UNL1        0.0320
      2  C         21.2970  -22.2620   -7.7870 C.2     1  UNL1        0.0180
      3  C         22.4110  -21.9870   -8.5860 C.2     1  UNL1        0.0170
      4  C         22.5480  -22.5620   -9.8600 C.2     1  UNL1        0.0170
      5  C         21.5350  -23.4170  -10.3210 C.2     1  UNL1        0.0170
      6  C         20.4190  -23.6960   -9.5250 C.2     1  UNL1        0.0180
      7  C         23.7230  -22.2480  -10.6670 C.ar    1  UNL1        0.1800
      8  N         24.2080  -22.8910  -11.7120 N.ar    1  UNL1       -0.2250
      9  C         25.3410  -22.1830  -12.0570 C.ar    1  UNL1        0.0760
     10  C         25.4780  -21.1050  -11.2060 C.ar    1  UNL1        0.0770
     11  C         26.4560  -20.0130  -11.0620 C.3     1  UNL1        0.0790
     12  O         24.4470  -21.1410  -10.3110 O.2     1  UNL1       -0.2940
     13  C         26.1990  -22.6120  -13.1910 C.3     1  UNL1        0.1410
     14  S         25.4460  -23.9630  -14.1610 S.3     1  UNL1       -0.1240
     15  C         25.1970  -23.1100  -15.7070 C.2     1  UNL1        0.0000
     16  C         24.4940  -23.7320  -16.7430 C.2     1  UNL1        0.0180
     17  C         24.2870  -23.0650  -17.9520 C.2     1  UNL1        0.0010
     18  C         24.7800  -21.7730  -18.1290 C.2     1  UNL1        0.0000
     19  C         25.4740  -21.1450  -17.0960 C.2     1  UNL1        0.0010
     20  C         25.6780  -21.8100  -15.8860 C.2     1  UNL1        0.0180
     21  C         19.0990  -23.4540   -7.4320 C.2     1  UNL1        0.2560
     22  N         18.5180  -22.3650   -6.8080 N.am    1  UNL1       -0.3220
     23  H         19.0240  -21.4940   -6.8660 H       1  UNL1        0.1690
     24  O         18.7550  -24.6270   -7.3540 O.2     1  UNL1       -0.2670
     25  C         17.3470  -22.3440   -6.0110 C.2     1  UNL1        0.0410
     26  C         17.3930  -22.2450   -4.6150 C.2     1  UNL1        0.0300
     27  C         16.2200  -22.2360   -3.8550 C.2     1  UNL1        0.0020
     28  C         14.9830  -22.3260   -4.4800 C.2     1  UNL1        0.0010
     29  C         14.9180  -22.4300   -5.8670 C.2     1  UNL1        0.0090
     30  C         16.0880  -22.4410   -6.6470 C.2     1  UNL1       -0.0350
     31  C         15.9440  -22.5570   -8.1410 C.3     1  UNL1        0.0500
@<TRIPOS>BOND
     1    18    17    2
     2    18    19    1
     3    17    16    1
     4    19    20    2
     5    16    15    2
     6    20    15    1
     7    15    14    1
     8    14    13    1
     9    13     9    1
    10     9     8   ar
    11     9    10   ar
    12     8     7   ar
    13    10    11    1
    14    10    12   ar
    15     7    12   ar
    16     7     4    1
    17     5     4    2
    18     5     6    1
    19     4     3    1
    20     6     1    2
    21     3     2    2
    22     1     2    1
    23     1    21    1
    24    31    30    1
    25    21    24    2
    26    21    22   am
    27    23    22    1
    28    22    25    1
    29    30    25    2
    30    30    29    1
    31    25    26    1
    32    29    28    2
    33    26    27    2
    34    28    27    1
