@<TRIPOS>MOLECULE
12479_out_ligand_01.pdbqt
 37 39 0 0 0
SMALL
GASTEIGER

@<TRIPOS>ATOM
      1  C         24.6150  -23.2360  -17.9900 C.3     1  UNL1        0.0500
      2  C         24.8220  -22.6880  -16.6020 C.2     1  UNL1       -0.0340
      3  C         24.9370  -23.6900  -15.5590 C.2     1  UNL1        0.0330
      4  C         25.1550  -23.3600  -14.2750 C.2     1  UNL1        0.0120
      5  C         25.2830  -24.4350  -13.2260 C.3     1  UNL1        0.0680
      6  N         25.2550  -22.0130  -13.9180 N.am    1  UNL1       -0.3080
      7  C         25.1100  -20.9810  -14.8580 C.2     1  UNL1        0.2690
      8  O         25.1130  -19.7930  -14.5390 O.2     1  UNL1       -0.2660
      9  C         24.9070  -21.3800  -16.2850 C.2     1  UNL1        0.1180
     10  C         24.8040  -20.3420  -17.2520 C.1     1  UNL1        0.1050
     11  N         24.7100  -19.5350  -18.0820 N.1     1  UNL1       -0.1910
     12  C         25.5360  -21.6120  -12.5260 C.3     1  UNL1        0.2350
     13  C         24.3200  -21.5630  -11.5890 C.2     1  UNL1        0.2400
     14  O         24.4430  -21.1130  -10.4510 O.2     1  UNL1       -0.2710
     15  N         23.1380  -21.9910  -12.1670 N.am    1  UNL1       -0.3260
     16  H         23.2090  -22.2990  -13.1290 H       1  UNL1        0.1690
     17  C         21.8570  -22.0400  -11.5880 C.2     1  UNL1        0.0340
     18  C         20.7950  -21.2140  -11.9650 C.2     1  UNL1        0.0300
     19  C         19.5450  -21.3260  -11.3400 C.2     1  UNL1        0.0190
     20  C         19.3470  -22.2590  -10.3180 C.2     1  UNL1        0.0320
     21  C         20.4050  -23.0970   -9.9480 C.2     1  UNL1        0.0190
     22  C         21.6490  -22.9860  -10.5770 C.2     1  UNL1        0.0300
     23  C         18.0380  -22.4210   -9.6200 C.2     1  UNL1        0.2510
     24  O         17.1470  -21.5970   -9.7940 O.2     1  UNL1       -0.2680
     25  N         17.8950  -23.5380   -8.8240 N.am    1  UNL1       -0.3530
     26  H         18.5680  -24.2880   -8.9000 H       1  UNL1        0.1630
     27  C         16.6340  -23.8580   -8.1940 C.3     1  UNL1        0.1610
     28  C         16.5430  -23.2250   -6.8290 C.2     1  UNL1       -0.0400
     29  C         15.3800  -23.3720   -6.0600 C.2     1  UNL1        0.0090
     30  C         15.2930  -22.8040   -4.7890 C.2     1  UNL1        0.0010
     31  C         16.3700  -22.0880   -4.2680 C.2     1  UNL1        0.0160
     32  C         17.5530  -21.9420   -5.0090 C.2     1  UNL1        0.0480
     33  C         17.6260  -22.5110   -6.2930 C.2     1  UNL1        0.0250
     34  C         18.7160  -21.1580   -4.4520 C.3     1  UNL1        0.4170
     35  F         19.1460  -21.6190   -3.2440 F       1  UNL1       -0.1660
     36  F         19.8100  -21.1800   -5.2670 F       1  UNL1       -0.1660
     37  F         18.4170  -19.8420   -4.2660 F       1  UNL1       -0.1660
@<TRIPOS>BOND
     1    11    10    3
     2     1     2    1
     3    10     9    1
     4     2     9    2
     5     2     3    1
     6     9     7    1
     7     3     4    2
     8     7     8    2
     9     7     6   am
    10     4     6    1
    11     4     5    1
    12     6    12    1
    13    16    15    1
    14    12    13    1
    15    15    13   am
    16    15    17    1
    17    18    17    2
    18    18    19    1
    19    13    14    2
    20    17    22    1
    21    19    20    2
    22    22    21    2
    23    20    21    1
    24    20    23    1
    25    24    23    2
    26    23    25   am
    27    26    25    1
    28    25    27    1
    29    27    28    1
    30    28    33    2
    31    28    29    1
    32    33    32    1
    33    29    30    2
    34    36    34    1
    35    32    34    1
    36    32    31    2
    37    30    31    1
    38    34    37    1
    39    34    35    1
