@<TRIPOS>MOLECULE
12474_out_ligand_01.pdbqt
 35 38 0 0 0
SMALL
GASTEIGER

@<TRIPOS>ATOM
      1  C         19.0950  -22.1400   -7.5500 C.2     1  UNL1        0.1030
      2  C         20.4480  -22.4770   -7.6210 C.2     1  UNL1        0.0510
      3  C         20.9210  -23.2930   -8.6630 C.2     1  UNL1       -0.0320
      4  C         20.0380  -23.7750   -9.6380 C.2     1  UNL1        0.0140
      5  C         18.6850  -23.4510   -9.5740 C.2     1  UNL1        0.0410
      6  C         18.2330  -22.6290   -8.5420 C.2     1  UNL1        0.1120
      7  C         22.3460  -23.6260   -8.7480 C.3     1  UNL1        0.0320
      8  C         23.2130  -23.2880   -9.7230 C.ar    1  UNL1        0.0820
      9  C         22.8760  -22.4910  -10.9510 C.ar    1  UNL1        0.1620
     10  C         24.6480  -23.7470   -9.5440 C.ar    1  UNL1        0.2830
     11  N         21.6750  -22.0740  -11.2220 N.pl3   1  UNL1       -0.2810
     12  N         23.9370  -22.2260  -11.7970 N.ar    1  UNL1       -0.1880
     13  H         21.7210  -21.5560  -12.1090 H       1  UNL1        0.1880
     14  N         23.7940  -21.5000  -12.9710 N.ar    1  UNL1       -0.1440
     15  C         25.1960  -22.6830  -11.5040 C.ar    1  UNL1        0.2020
     16  C         24.9610  -21.4100  -13.5490 C.ar    1  UNL1        0.2150
     17  S         26.3230  -22.1880  -12.7400 S.2     1  UNL1       -0.0170
     18  N         25.5780  -23.3780  -10.4950 N.ar    1  UNL1       -0.1820
     19  O         24.9680  -24.4280   -8.5770 O.2     1  UNL1       -0.2650
     20  S         25.1470  -20.5330  -15.0710 S.O2    1  UNL1        0.1970
     21  C         26.5440  -21.2850  -15.8610 C.3     1  UNL1        0.1690
     22  O         25.5060  -19.1720  -14.7150 O.2     1  UNL1       -0.2210
     23  O         23.9600  -20.8300  -15.8510 O.2     1  UNL1       -0.2210
     24  O         18.5160  -21.3700   -6.5750 O.2     1  UNL1       -0.3490
     25  C         19.3660  -20.8890   -5.5370 C.3     1  UNL1        0.1710
     26  C         18.5990  -20.9740   -4.2290 C.3     1  UNL1        0.0340
     27  O         16.8650  -22.3420   -8.4760 O.3     1  UNL1       -0.2720
     28  C         16.1250  -23.4110   -8.0120 C.2     1  UNL1        0.2980
     29  O         15.7540  -24.3880   -8.6450 O.2     1  UNL1       -0.2590
     30  C         15.8600  -23.2390   -6.5570 C.2     1  UNL1        0.0390
     31  C         16.5170  -23.9940   -5.5750 C.2     1  UNL1        0.0170
     32  C         16.2340  -23.7840   -4.2230 C.2     1  UNL1        0.0010
     33  C         15.3000  -22.8190   -3.8440 C.2     1  UNL1        0.0000
     34  C         14.6480  -22.0600   -4.8140 C.2     1  UNL1        0.0010
     35  C         14.9260  -22.2670   -6.1670 C.2     1  UNL1        0.0170
@<TRIPOS>BOND
     1    21    20    1
     2    23    20    2
     3    20    22    2
     4    20    16    1
     5    16    14   ar
     6    16    17   ar
     7    14    12   ar
     8    17    15   ar
     9    13    11    1
    10    12    15   ar
    11    12     9   ar
    12    15    18   ar
    13    11     9    1
    14     9     8   ar
    15    18    10   ar
    16     8    10   ar
    17     8     7    1
    18     4     5    2
    19     4     3    1
    20     5     6    1
    21    10    19    2
    22     7     3    1
    23     3     2    2
    24    29    28    2
    25     6    27    1
    26     6     1    2
    27    27    28    1
    28    28    30    1
    29     2     1    1
    30     1    24    1
    31    24    25    1
    32    30    35    2
    33    30    31    1
    34    35    34    1
    35    31    32    2
    36    25    26    1
    37    34    33    2
    38    32    33    1
