@<TRIPOS>MOLECULE
12478_out_ligand_01.pdbqt
 41 45 0 0 0
SMALL
GASTEIGER

@<TRIPOS>ATOM
      1  N         23.6270  -22.2820  -10.6160 N.3     1  UNL1        0.1080
      2  C         24.9640  -22.5760  -11.1780 C.3     1  UNL1        0.2530
      3  C         25.9340  -23.3570  -10.2730 C.3     1  UNL1        0.0480
      4  C         25.5700  -21.3130  -11.7960 C.2     1  UNL1       -0.0250
      5  C         26.2720  -20.3530  -11.0510 C.2     1  UNL1        0.0090
      6  C         26.8040  -19.2150  -11.6660 C.2     1  UNL1        0.0010
      7  C         26.6450  -19.0180  -13.0340 C.2     1  UNL1        0.0000
      8  C         25.9480  -19.9550  -13.7910 C.2     1  UNL1        0.0010
      9  C         25.4120  -21.0890  -13.1770 C.2     1  UNL1        0.0090
     10  C         23.4370  -22.5020   -9.1760 C.3     1  UNL1        0.3120
     11  C         22.0900  -23.0880   -8.8060 C.2     1  UNL1       -0.0280
     12  C         21.8320  -24.4560   -8.9750 C.2     1  UNL1        0.0090
     13  C         20.5920  -24.9970   -8.6350 C.2     1  UNL1        0.0030
     14  C         19.5950  -24.1780   -8.1030 C.2     1  UNL1        0.0370
     15  C         19.8520  -22.8210   -7.8930 C.2     1  UNL1        0.0760
     16  C         21.0880  -22.2770   -8.2510 C.2     1  UNL1        0.0460
     17  O         18.9140  -21.9380   -7.4030 O.2     1  UNL1       -0.3110
     18  C         18.7890  -21.8440   -6.0380 C.2     1  UNL1        0.0760
     19  C         19.0270  -20.6460   -5.3600 C.2     1  UNL1        0.0370
     20  C         18.8460  -20.5870   -3.9780 C.2     1  UNL1        0.0030
     21  C         18.4170  -21.7170   -3.2810 C.2     1  UNL1        0.0000
     22  C         18.1600  -22.9060   -3.9650 C.2     1  UNL1        0.0030
     23  C         18.3370  -22.9680   -5.3480 C.2     1  UNL1        0.0370
     24  C         22.5290  -22.8700  -11.4100 C.3     1  UNL1        0.3590
     25  C         21.2430  -22.1000  -11.4220 C.2     1  UNL1        0.1740
     26  N         20.0050  -22.5550  -11.3590 N.2     1  UNL1       -0.2190
     27  C         19.2310  -21.4030  -11.4150 C.2     1  UNL1        0.1490
     28  C         20.0530  -20.3060  -11.5150 C.2     1  UNL1        0.1810
     29  O         21.3430  -20.7370  -11.5160 O.2     1  UNL1       -0.3030
     30  C         17.7780  -21.3930  -11.3500 C.2     1  UNL1        0.2720
     31  O         17.0800  -20.7000  -12.0810 O.2     1  UNL1       -0.2660
     32  N         17.2860  -22.2220  -10.3690 N.am    1  UNL1       -0.3510
     33  H         17.9750  -22.6520   -9.7610 H       1  UNL1        0.1630
     34  C         15.9020  -22.2080   -9.9720 C.3     1  UNL1        0.1610
     35  C         15.7360  -22.7850   -8.5880 C.2     1  UNL1       -0.0400
     36  C         15.9390  -24.1580   -8.3660 C.2     1  UNL1        0.0120
     37  C         15.7560  -24.7010   -7.0940 C.2     1  UNL1        0.0430
     38  C         15.3630  -23.8770   -6.0470 C.2     1  UNL1        0.1160
     39  F         15.1860  -24.3990   -4.8260 F       1  UNL1       -0.2060
     40  C         15.1460  -22.5180   -6.2460 C.2     1  UNL1        0.0430
     41  C         15.3290  -21.9720   -7.5180 C.2     1  UNL1        0.0120
@<TRIPOS>BOND
     1     8     9    1
     2     8     7    2
     3     9     4    2
     4     7     6    1
     5    31    30    2
     6     4     2    1
     7     4     5    1
     8     6     5    2
     9    29    28    1
    10    29    25    1
    11    28    27    2
    12    25    24    1
    13    25    26    2
    14    27    26    1
    15    27    30    1
    16    24     1    1
    17    30    32   am
    18     2     1    1
    19     2     3    1
    20     1    10    1
    21    32    34    1
    22    32    33    1
    23    34    35    1
    24    10    11    1
    25    12    11    2
    26    12    13    1
    27    11    16    1
    28    13    14    2
    29    35    36    2
    30    35    41    1
    31    36    37    1
    32    16    15    2
    33    14    15    1
    34    15    17    1
    35    41    40    2
    36    17    18    1
    37    37    38    2
    38    40    38    1
    39    38    39    1
    40    18    19    2
    41    18    23    1
    42    19    20    1
    43    23    22    2
    44    20    21    2
    45    22    21    1
