@<TRIPOS>MOLECULE
12480_out_ligand_01.pdbqt
 32 35 0 0 0
SMALL
GASTEIGER

@<TRIPOS>ATOM
      1  C         19.1640  -23.0360   -8.1870 C.2     1  UNL1        0.2580
      2  O         20.2110  -23.4460   -7.6940 O.2     1  UNL1       -0.2670
      3  N         19.0260  -22.3900   -9.4090 N.am    1  UNL1       -0.3130
      4  C         17.7810  -21.8210   -9.9600 C.2     1  UNL1        0.1370
      5  C         18.1490  -21.0660  -11.2420 C.2     1  UNL1        0.0610
      6  C         19.5720  -21.4730  -11.4440 C.2     1  UNL1       -0.0300
      7  C         20.3830  -21.1830  -12.5290 C.2     1  UNL1        0.0100
      8  C         21.7030  -21.6350  -12.5060 C.2     1  UNL1        0.0090
      9  C         22.2080  -22.3540  -11.4030 C.2     1  UNL1       -0.0380
     10  C         21.3660  -22.6330  -10.3120 C.2     1  UNL1        0.0390
     11  C         20.0530  -22.1960  -10.3520 C.2     1  UNL1        0.0440
     12  C         23.6460  -22.8140  -11.3880 C.3     1  UNL1        0.1630
     13  N         24.5340  -21.7680  -11.8580 N.am    1  UNL1       -0.3390
     14  C         24.9170  -21.7080  -13.1820 C.2     1  UNL1        0.3200
     15  O         24.6210  -22.5730  -13.9930 O.2     1  UNL1       -0.2470
     16  N         25.6590  -20.5730  -13.4240 N.am    1  UNL1       -0.3090
     17  H         25.9600  -20.0650  -12.6060 H       1  UNL1        0.1700
     18  H         24.4580  -20.8860  -11.3720 H       1  UNL1        0.1640
     19  C         26.1630  -20.1180  -14.6590 C.2     1  UNL1        0.0360
     20  C         26.6280  -20.9630  -15.6660 C.2     1  UNL1        0.0290
     21  C         27.1040  -20.4350  -16.8690 C.2     1  UNL1        0.0030
     22  C         27.1210  -19.0580  -17.0750 C.2     1  UNL1        0.0070
     23  C         26.6660  -18.1930  -16.0760 C.2     1  UNL1       -0.0600
     24  C         26.6560  -16.7120  -16.3120 C.3     1  UNL1        0.0480
     25  C         26.1770  -18.7330  -14.8760 C.2     1  UNL1        0.0360
     26  C         17.9330  -23.2260   -7.3890 C.2     1  UNL1        0.0320
     27  C         17.6800  -22.3710   -6.3150 C.2     1  UNL1        0.0170
     28  C         16.5160  -22.5380   -5.5600 C.2     1  UNL1        0.0070
     29  C         15.6060  -23.5590   -5.8730 C.2     1  UNL1       -0.0620
     30  C         14.3670  -23.7510   -5.0480 C.3     1  UNL1        0.0480
     31  C         15.8920  -24.4360   -6.9290 C.2     1  UNL1        0.0070
     32  C         17.0570  -24.2770   -7.6840 C.2     1  UNL1        0.0170
@<TRIPOS>BOND
     1    22    21    2
     2    22    23    1
     3    21    20    1
     4    24    23    1
     5    23    25    2
     6    20    19    2
     7    25    19    1
     8    19    16    1
     9    15    14    2
    10    16    14   am
    11    16    17    1
    12    14    13   am
    13     7     8    1
    14     7     6    2
    15     8     9    2
    16    13    12    1
    17    13    18    1
    18     6     5    1
    19     6    11    1
    20     9    12    1
    21     9    10    1
    22     5     4    2
    23    11    10    2
    24    11     3    1
    25     4     3    1
    26     3     1   am
    27     1     2    2
    28     1    26    1
    29    32    26    2
    30    32    31    1
    31    26    27    1
    32    31    29    2
    33    27    28    2
    34    29    28    1
    35    29    30    1
