@<TRIPOS>MOLECULE
12490_out_ligand_01.pdbqt
 31 33 0 0 0
SMALL
GASTEIGER

@<TRIPOS>ATOM
      1  C         20.5000  -22.6690  -10.1100 C.2     1  UNL1        0.0720
      2  C         19.1280  -22.4220   -9.9490 C.2     1  UNL1        0.0450
      3  C         18.3680  -23.2190   -9.0830 C.2     1  UNL1        0.0800
      4  C         18.9600  -24.2550   -8.3570 C.2     1  UNL1        0.0280
      5  C         20.3250  -24.4980   -8.5090 C.2     1  UNL1        0.0450
      6  C         21.0810  -23.7110   -9.3790 C.2     1  UNL1        0.1320
      7  F         22.3900  -23.9880   -9.4930 F       1  UNL1       -0.2050
      8  C         21.2660  -21.8130  -11.0700 C.2     1  UNL1        0.2590
      9  N         22.4080  -22.3690  -11.6190 N.am    1  UNL1       -0.3220
     10  H         22.6230  -23.3150  -11.3340 H       1  UNL1        0.1690
     11  O         20.8220  -20.6920  -11.3000 O.2     1  UNL1       -0.2670
     12  C         23.3160  -21.7890  -12.5420 C.2     1  UNL1        0.0410
     13  C         22.9280  -21.4380  -13.8390 C.2     1  UNL1        0.0300
     14  C         23.8370  -20.8670  -14.7300 C.2     1  UNL1        0.0030
     15  C         25.1490  -20.6380  -14.3350 C.2     1  UNL1        0.0070
     16  C         25.5760  -20.9740  -13.0430 C.2     1  UNL1       -0.0540
     17  C         27.0100  -20.6980  -12.6780 C.3     1  UNL1        0.0490
     18  C         24.6570  -21.5550  -12.1310 C.2     1  UNL1       -0.0290
     19  C         25.0990  -21.9240  -10.7340 C.3     1  UNL1        0.0510
     20  S         16.6320  -22.8850   -8.9080 S.O2    1  UNL1        0.2590
     21  O         16.2260  -22.0220   -9.9950 O.2     1  UNL1       -0.2010
     22  O         15.9780  -24.1460   -8.6450 O.2     1  UNL1       -0.2010
     23  N         16.5820  -22.0050   -7.4940 N.3     1  UNL1       -0.3100
     24  H         16.5060  -20.9940   -7.5860 H       1  UNL1        0.1720
     25  C         16.7660  -22.6310   -6.1820 C.3     1  UNL1        0.0970
     26  C         15.3790  -22.8330   -5.5580 C.3     1  UNL1        0.0260
     27  C         15.4690  -23.3730   -4.1350 C.3     1  UNL1        0.0020
     28  C         16.3340  -22.4790   -3.2560 C.3     1  UNL1        0.0010
     29  C         17.7200  -22.2760   -3.8600 C.3     1  UNL1        0.0060
     30  C         17.6500  -21.7280   -5.2950 C.3     1  UNL1        0.0050
     31  C         19.0680  -21.5840   -5.8560 C.3     1  UNL1        0.0120
@<TRIPOS>BOND
     1    14    15    2
     2    14    13    1
     3    15    16    1
     4    13    12    2
     5    16    17    1
     6    16    18    2
     7    12    18    1
     8    12     9    1
     9    18    19    1
    10     9    10    1
    11     9     8   am
    12    11     8    2
    13     8     1    1
    14     1     2    2
    15     1     6    1
    16    21    20    2
    17     2     3    1
    18     7     6    1
    19     6     5    2
    20     3    20    1
    21     3     4    2
    22    20    22    2
    23    20    23    1
    24     5     4    1
    25    24    23    1
    26    23    25    1
    27    25    26    1
    28    25    30    1
    29    31    30    1
    30    26    27    1
    31    30    29    1
    32    27    28    1
    33    29    28    1
