@<TRIPOS>MOLECULE
124_out_ligand_01.pdbqt
 38 41 0 0 0
SMALL
GASTEIGER

@<TRIPOS>ATOM
      1  C         23.1130  -22.4490  -10.9640 C.2     1  UNL1        0.0340
      2  C         24.2200  -22.9550  -10.2800 C.2     1  UNL1        0.0190
      3  C         25.4320  -23.1220  -10.9530 C.2     1  UNL1        0.0260
      4  C         25.5620  -22.7830  -12.3100 C.2     1  UNL1        0.0570
      5 CL         27.1200  -23.0560  -12.9940 Cl      1  UNL1       -0.0830
      6  C         24.4570  -22.2780  -12.9970 C.2     1  UNL1        0.1020
      7  C         23.2380  -22.1000  -12.3150 C.2     1  UNL1        0.0440
      8  C         21.8050  -22.2110  -10.2910 C.2     1  UNL1        0.2560
      9  O         21.8210  -21.9740   -9.0900 O.2     1  UNL1       -0.2670
     10  N         20.6890  -22.2900  -11.1060 N.am    1  UNL1       -0.3230
     11  H         20.8280  -22.5130  -12.0820 H       1  UNL1        0.1690
     12  C         19.3440  -22.1010  -10.7170 C.2     1  UNL1        0.0360
     13  C         18.5370  -21.3130  -11.5480 C.2     1  UNL1        0.0290
     14  C         17.1870  -21.1010  -11.2480 C.2     1  UNL1        0.0040
     15  C         16.6280  -21.6740  -10.1090 C.2     1  UNL1        0.0250
     16  C         17.4300  -22.4580   -9.2760 C.2     1  UNL1        0.0810
     17  C         18.7870  -22.6530   -9.5630 C.2     1  UNL1        0.0540
     18  S         16.7440  -23.1680   -7.7930 S.O2    1  UNL1        0.2600
     19  O         15.3350  -22.8390   -7.7740 O.2     1  UNL1       -0.2000
     20  O         17.1870  -24.5460   -7.7300 O.2     1  UNL1       -0.2000
     21  N         17.5280  -22.3260   -6.5470 N.3     1  UNL1       -0.3070
     22  C         16.8850  -22.3410   -5.2140 C.3     1  UNL1        0.1350
     23  C         17.8770  -22.0340   -4.0930 C.3     1  UNL1        0.0210
     24  C         18.7780  -20.8560   -4.4430 C.3     1  UNL1        0.0030
     25  C         19.4560  -21.0260   -5.8050 C.3     1  UNL1        0.0210
     26  C         19.0030  -22.2820   -6.5480 C.3     1  UNL1        0.1350
     27  S         24.5110  -21.7660  -14.6960 S.O2    1  UNL1        0.2640
     28  O         23.4110  -20.8730  -14.9830 O.2     1  UNL1       -0.2000
     29  O         24.6880  -22.9650  -15.4930 O.2     1  UNL1       -0.2000
     30  N         25.9680  -20.9570  -14.8070 N.pl3   1  UNL1       -0.2810
     31  H         26.7270  -21.3040  -14.2040 H       1  UNL1        0.1790
     32  C         26.1480  -19.7910  -15.5820 C.2     1  UNL1        0.0420
     33  C         26.3790  -18.5510  -14.9810 C.2     1  UNL1        0.0320
     34  C         26.5210  -17.4060  -15.7720 C.2     1  UNL1        0.0260
     35  C         26.4190  -17.5080  -17.1580 C.2     1  UNL1        0.0340
     36 CL         26.5870  -16.0990  -18.1340 Cl      1  UNL1       -0.0840
     37  C         26.1670  -18.7420  -17.7600 C.2     1  UNL1        0.0260
     38  C         26.0250  -19.8860  -16.9690 C.2     1  UNL1        0.0320
@<TRIPOS>BOND
     1    36    35    1
     2    37    35    2
     3    37    38    1
     4    35    34    1
     5    38    32    2
     6    34    33    2
     7    32    33    1
     8    32    30    1
     9    29    27    2
    10    28    27    2
    11    30    27    1
    12    30    31    1
    13    27     6    1
    14     6     7    1
    15     6     4    2
    16     5     4    1
    17     7     1    2
    18     4     3    1
    19    11    10    1
    20    13    14    1
    21    13    12    2
    22    14    15    2
    23    10    12    1
    24    10     8   am
    25     1     8    1
    26     1     2    1
    27     3     2    2
    28    12    17    1
    29     8     9    2
    30    15    16    1
    31    17    16    2
    32    16    18    1
    33    18    19    2
    34    18    20    2
    35    18    21    1
    36    26    21    1
    37    26    25    1
    38    21    22    1
    39    25    24    1
    40    22    23    1
    41    24    23    1
