@<TRIPOS>MOLECULE
12519_out_ligand_01.pdbqt
 31 34 0 0 0
SMALL
GASTEIGER

@<TRIPOS>ATOM
      1  C         21.3740  -22.5750   -9.1400 C.2     1  UNL1        0.0320
      2  C         22.7230  -22.7130   -8.7900 C.2     1  UNL1        0.0170
      3  C         23.7060  -22.7530   -9.7850 C.2     1  UNL1        0.0110
      4  C         23.3550  -22.6470  -11.1420 C.2     1  UNL1       -0.0210
      5  C         21.9980  -22.4980  -11.4790 C.2     1  UNL1        0.0110
      6  C         21.0170  -22.4540  -10.4860 C.2     1  UNL1        0.0170
      7  C         24.4260  -22.6910  -12.2250 C.3     1  UNL1        0.2030
      8  N         23.9820  -21.8870  -13.3430 N.pl3   1  UNL1       -0.3670
      9  C         24.7440  -21.8710  -14.5120 C.2     1  UNL1        0.0520
     10  H         23.6450  -20.9690  -13.0640 H       1  UNL1        0.1610
     11  C         24.4790  -20.8960  -15.4840 C.2     1  UNL1        0.0310
     12  C         25.6640  -22.8670  -14.8440 C.2     1  UNL1        0.1010
     13  C         25.1530  -20.8940  -16.7110 C.2     1  UNL1        0.0020
     14  C         26.0860  -21.8870  -17.0030 C.2     1  UNL1        0.0020
     15  C         26.3400  -22.8870  -16.0700 C.2     1  UNL1        0.0270
     16  S         25.9650  -24.1460  -13.6860 S.O2    1  UNL1        0.2450
     17  O         27.1210  -23.7720  -12.8980 O.2     1  UNL1       -0.2060
     18  O         25.8960  -25.4250  -14.3570 O.2     1  UNL1       -0.2060
     19  N         24.6410  -24.0540  -12.6670 N.3     1  UNL1       -0.1890
     20  H         24.7770  -24.6890  -11.8850 H       1  UNL1        0.1420
     21  C         20.3010  -22.5150   -8.1100 C.2     1  UNL1        0.2560
     22  N         19.0950  -23.0670   -8.5010 N.am    1  UNL1       -0.3230
     23  H         19.0120  -23.3550   -9.4660 H       1  UNL1        0.1690
     24  O         20.5550  -21.9730   -7.0420 O.2     1  UNL1       -0.2670
     25  C         17.9210  -23.1940   -7.7280 C.2     1  UNL1        0.0350
     26  C         16.7980  -22.3780   -7.8740 C.2     1  UNL1        0.0300
     27  C         15.6730  -22.5650   -7.0620 C.2     1  UNL1        0.0090
     28  C         15.6570  -23.5630   -6.0840 C.2     1  UNL1       -0.0620
     29  C         14.4360  -23.7820   -5.2400 C.3     1  UNL1        0.0480
     30  C         16.7760  -24.3890   -5.9440 C.2     1  UNL1        0.0090
     31  C         17.8990  -24.2010   -6.7560 C.2     1  UNL1        0.0300
@<TRIPOS>BOND
     1    14    13    2
     2    14    15    1
     3    13    11    1
     4    15    12    2
     5    11     9    2
     6    12     9    1
     7    12    16    1
     8     9     8    1
     9    18    16    2
    10    16    17    2
    11    16    19    1
    12     8    10    1
    13     8     7    1
    14    19     7    1
    15    19    20    1
    16     7     4    1
    17     5     4    2
    18     5     6    1
    19     4     3    1
    20     6     1    2
    21     3     2    2
    22    23    22    1
    23     1     2    1
    24     1    21    1
    25    22    21   am
    26    22    25    1
    27    21    24    2
    28    26    25    2
    29    26    27    1
    30    25    31    1
    31    27    28    2
    32    31    30    2
    33    28    30    1
    34    28    29    1
