@<TRIPOS>MOLECULE
12532_out_ligand_01.pdbqt
 31 34 0 0 0
SMALL
GASTEIGER

@<TRIPOS>ATOM
      1  C         19.2800  -21.4910  -11.4790 C.2     1  UNL1        0.2230
      2  N         18.5800  -22.4030  -10.8320 N.2     1  UNL1       -0.2030
      3  C         17.3570  -21.7990  -10.6940 C.2     1  UNL1        0.1580
      4  N         17.2750  -20.5660  -11.2040 N.4     1  UNL1       -0.1110
      5  O         18.5480  -20.3620  -11.7400 O.2     1  UNL1       -0.1890
      6  C         20.6410  -21.6850  -11.8650 C.ar    1  UNL1        0.0960
      7  C         21.6590  -22.4530  -11.3180 C.ar    1  UNL1       -0.0150
      8  C         22.8240  -22.2360  -12.1280 C.ar    1  UNL1       -0.0000
      9  C         24.1520  -22.7120  -12.0880 C.2     1  UNL1        0.0210
     10  C         22.4740  -21.3480  -13.1440 C.ar    1  UNL1        0.0430
     11  C         25.0860  -22.2830  -13.0480 C.2     1  UNL1       -0.0610
     12  C         24.6860  -21.3980  -14.0540 C.2     1  UNL1        0.0090
     13  C         26.4910  -22.8080  -13.0070 C.3     1  UNL1        0.0480
     14  C         23.3750  -20.9140  -14.1200 C.2     1  UNL1        0.0310
     15  N         21.1510  -21.0340  -12.9600 N.ar    1  UNL1       -0.3510
     16  H         20.6160  -20.4000  -13.5390 H       1  UNL1        0.1660
     17  C         21.5880  -23.3330  -10.1070 C.3     1  UNL1        0.0370
     18  C         22.7220  -23.0640   -9.1300 C.3     1  UNL1        0.0100
     19  C         16.2240  -22.4610  -10.0030 C.3     1  UNL1        0.1030
     20  C         16.3320  -22.3920   -8.4760 C.3     1  UNL1        0.1330
     21  N         16.5900  -23.6900   -7.8260 N.am    1  UNL1       -0.3520
     22  C         15.6420  -24.7600   -8.0970 C.3     1  UNL1        0.1520
     23  C         17.4310  -23.8540   -6.7230 C.2     1  UNL1        0.2530
     24  O         17.4220  -24.8390   -5.9900 O.2     1  UNL1       -0.2670
     25  C         18.4010  -22.7870   -6.4040 C.2     1  UNL1        0.0320
     26  C         18.1420  -21.8960   -5.3550 C.2     1  UNL1        0.0200
     27  C         19.0620  -20.8850   -5.0710 C.2     1  UNL1        0.0430
     28  C         20.2090  -20.7620   -5.8530 C.2     1  UNL1        0.1160
     29  F         21.0940  -19.7970   -5.5710 F       1  UNL1       -0.2060
     30  C         20.4540  -21.6260   -6.9180 C.2     1  UNL1        0.0430
     31  C         19.5420  -22.6430   -7.2010 C.2     1  UNL1        0.0200
@<TRIPOS>BOND
     1    14    12    2
     2    14    10    1
     3    12    11    1
     4    16    15    1
     5    10    15   ar
     6    10     8   ar
     7    11    13    1
     8    11     9    2
     9    15     6   ar
    10     8     9    1
    11     8     7   ar
    12     6     1    1
    13     6     7   ar
    14     5     1    1
    15     5     4    1
    16     1     2    2
    17     7    17    1
    18     4     3    1
    19     2     3    2
    20     3    19    1
    21    17    18    1
    22    19    20    1
    23    20    21    1
    24    22    21    1
    25    21    23   am
    26    31    30    1
    27    31    25    2
    28    30    28    2
    29    23    25    1
    30    23    24    2
    31    25    26    1
    32    28    29    1
    33    28    27    1
    34    26    27    2
