@<TRIPOS>MOLECULE
12558_out_ligand_01.pdbqt
 37 41 0 0 0
SMALL
GASTEIGER

@<TRIPOS>ATOM
      1  S         16.3450  -23.2620   -9.7000 S.3     1  UNL1       -0.0870
      2  C         16.2430  -23.1470   -7.9730 C.ar    1  UNL1        0.1700
      3  N         17.1300  -23.7630   -7.1220 N.ar    1  UNL1       -0.3190
      4  C         16.7600  -23.4240   -5.8350 C.ar    1  UNL1        0.0830
      5  C         17.2740  -23.7120   -4.5790 C.2     1  UNL1        0.1480
      6  C         15.6270  -22.6330   -5.9950 C.ar    1  UNL1        0.0890
      7  N         16.6500  -23.2080   -3.4890 N.2     1  UNL1       -0.2710
      8  C         15.5440  -22.4430   -3.6510 C.2     1  UNL1        0.1180
      9  C         14.9810  -22.1170   -4.8730 C.2     1  UNL1        0.0530
     10  N         15.3200  -22.4770   -7.3220 N.ar    1  UNL1       -0.2220
     11  C         18.2960  -24.5550   -7.4810 C.3     1  UNL1        0.1700
     12  C         19.5300  -23.7100   -7.6840 C.2     1  UNL1       -0.0370
     13  C         19.6170  -22.4330   -7.1150 C.2     1  UNL1        0.0090
     14  C         20.7570  -21.6500   -7.3020 C.2     1  UNL1        0.0030
     15  C         21.8290  -22.1330   -8.0550 C.2     1  UNL1        0.0370
     16  C         21.7640  -23.4040   -8.6230 C.2     1  UNL1        0.0680
     17  C         20.6190  -24.1850   -8.4320 C.2     1  UNL1        0.0450
     18  O         22.7390  -23.9990   -9.3760 O.2     1  UNL1       -0.3560
     19  C         24.0640  -23.9590   -8.8590 C.3     1  UNL1        0.2100
     20  C         16.8670  -21.5820  -10.1510 C.3     1  UNL1        0.1210
     21  C         18.2390  -21.5550  -10.7840 C.2     1  UNL1       -0.0480
     22  C         18.9990  -22.7280  -10.8830 C.2     1  UNL1        0.0090
     23  C         20.2660  -22.7070  -11.4710 C.2     1  UNL1        0.0170
     24  C         20.7840  -21.5130  -11.9830 C.2     1  UNL1        0.0320
     25  C         20.0370  -20.3330  -11.8810 C.2     1  UNL1        0.0170
     26  C         18.7700  -20.3580  -11.2890 C.2     1  UNL1        0.0090
     27  C         22.1360  -21.5370  -12.5980 C.2     1  UNL1        0.2520
     28  O         22.3310  -20.9880  -13.6770 O.2     1  UNL1       -0.2680
     29  N         23.1220  -22.1740  -11.8730 N.am    1  UNL1       -0.3520
     30  H         22.8960  -22.5850  -10.9780 H       1  UNL1        0.1630
     31  C         24.4750  -22.3430  -12.3910 C.3     1  UNL1        0.0880
     32  C         24.6260  -23.7250  -13.0320 C.3     1  UNL1        0.0250
     33  C         25.9960  -23.8960  -13.6920 C.3     1  UNL1        0.0020
     34  C         27.1020  -23.0800  -13.0230 C.3     1  UNL1        0.0010
     35  C         26.8400  -22.8830  -11.5360 C.3     1  UNL1        0.0060
     36  C         25.5200  -22.1320  -11.2680 C.3     1  UNL1        0.0040
     37  C         25.7750  -20.6340  -11.0590 C.3     1  UNL1        0.0120
@<TRIPOS>BOND
     1    33    32    1
     2    33    34    1
     3    28    27    2
     4    32    31    1
     5    34    35    1
     6    27    24    1
     7    27    29   am
     8    31    29    1
     9    31    36    1
    10    24    25    2
    11    24    23    1
    12    25    26    1
    13    29    30    1
    14    35    36    1
    15    23    22    2
    16    26    21    2
    17    36    37    1
    18    22    21    1
    19    21    20    1
    20    20     1    1
    21     1     2    1
    22    18    19    1
    23    18    16    1
    24    16    17    1
    25    16    15    2
    26    17    12    2
    27    15    14    1
    28     2    10   ar
    29     2     3   ar
    30    12    11    1
    31    12    13    1
    32    11     3    1
    33    10     6   ar
    34    14    13    2
    35     3     4   ar
    36     6     4   ar
    37     6     9    1
    38     4     5    1
    39     9     8    2
    40     5     7    2
    41     8     7    1
