@<TRIPOS>MOLECULE
12554_out_ligand_01.pdbqt
 31 34 0 0 0
SMALL
GASTEIGER

@<TRIPOS>ATOM
      1  C         17.9190  -22.5150  -10.0690 C.2     1  UNL1       -0.0400
      2  C         18.3730  -21.7510  -11.1620 C.2     1  UNL1        0.0110
      3  C         19.7240  -21.7440  -11.5290 C.2     1  UNL1        0.0310
      4  C         20.6150  -22.5000  -10.7880 C.2     1  UNL1        0.0430
      5  C         20.1760  -23.2560   -9.7010 C.2     1  UNL1       -0.0290
      6  C         18.8390  -23.2720   -9.3270 C.2     1  UNL1        0.0180
      7  C         21.2960  -24.0140   -9.0700 C.2     1  UNL1        0.0610
      8  C         22.5070  -23.5220   -9.8730 C.2     1  UNL1        0.1370
      9  N         22.0050  -22.6490  -10.9500 N.am    1  UNL1       -0.3130
     10  C         22.7590  -22.0820  -11.9640 C.2     1  UNL1        0.2580
     11  O         22.3440  -21.3970  -12.8940 O.2     1  UNL1       -0.2670
     12  C         16.4650  -22.4960   -9.6680 C.3     1  UNL1        0.1610
     13  N         16.3280  -22.5590   -8.2350 N.am    1  UNL1       -0.3530
     14  C         15.9740  -23.7110   -7.5750 C.2     1  UNL1        0.2540
     15  O         15.6410  -24.7440   -8.1500 O.2     1  UNL1       -0.2680
     16  H         16.6790  -21.7820   -7.6860 H       1  UNL1        0.1630
     17  C         16.0420  -23.6740   -6.0840 C.2     1  UNL1        0.0650
     18  C         14.8660  -23.9640   -5.3760 C.2     1  UNL1        0.0200
     19  C         14.8630  -23.9830   -3.9790 C.2     1  UNL1        0.0010
     20  C         16.0350  -23.7110   -3.2750 C.2     1  UNL1        0.0030
     21  C         17.2060  -23.4030   -3.9660 C.2     1  UNL1        0.0380
     22  C         17.2040  -23.3620   -5.3650 C.2     1  UNL1        0.0840
     23  O         18.3880  -23.0490   -5.9880 O.2     1  UNL1       -0.3500
     24  C         18.7230  -21.6760   -5.7360 C.3     1  UNL1        0.1710
     25  C         20.0330  -21.3750   -6.4410 C.3     1  UNL1        0.0340
     26  C         24.2120  -22.3440  -11.9310 C.2     1  UNL1        0.0320
     27  C         25.0580  -21.5100  -11.1930 C.2     1  UNL1        0.0170
     28  C         26.4280  -21.7680  -11.1750 C.2     1  UNL1        0.0010
     29  C         26.9450  -22.8480  -11.8950 C.2     1  UNL1        0.0000
     30  C         26.0980  -23.6650  -12.6470 C.2     1  UNL1        0.0010
     31  C         24.7270  -23.4120  -12.6720 C.2     1  UNL1        0.0170
@<TRIPOS>BOND
     1    11    10    2
     2    31    30    1
     3    31    26    2
     4    30    29    2
     5    10    26    1
     6    10     9   am
     7    26    27    1
     8    29    28    1
     9     3     2    1
    10     3     4    2
    11    27    28    2
    12     2     1    2
    13     9     4    1
    14     9     8    1
    15     4     5    1
    16     1    12    1
    17     1     6    1
    18     8     7    2
    19     5     6    2
    20     5     7    1
    21    12    13    1
    22    13    16    1
    23    13    14   am
    24    15    14    2
    25    14    17    1
    26    25    24    1
    27    17    18    2
    28    17    22    1
    29    23    24    1
    30    23    22    1
    31    18    19    1
    32    22    21    2
    33    19    20    2
    34    21    20    1
