@<TRIPOS>MOLECULE
12574_out_ligand_01.pdbqt
 28 31 0 0 0
SMALL
GASTEIGER

@<TRIPOS>ATOM
      1  C         26.6490  -22.7300  -13.4600 C.3     1  UNL1        0.0480
      2  C         25.2640  -22.1530  -13.4100 C.2     1  UNL1       -0.0610
      3  C         24.8950  -21.1260  -14.2870 C.2     1  UNL1        0.0090
      4  C         23.6020  -20.5910  -14.2830 C.2     1  UNL1        0.0310
      5  C         22.6820  -21.1280  -13.3770 C.2     1  UNL1        0.0430
      6  N         21.3630  -20.8060  -13.1530 N.pl3   1  UNL1       -0.3520
      7  C         20.8370  -21.6010  -12.1650 C.2     1  UNL1        0.0890
      8  C         19.4840  -21.4860  -11.7270 C.2     1  UNL1        0.2230
      9  N         18.9550  -22.2180  -10.7690 N.2     1  UNL1       -0.2030
     10  C         17.6650  -21.7560  -10.7160 C.2     1  UNL1        0.1580
     11  N         17.3800  -20.7790  -11.5850 N.4     1  UNL1       -0.1110
     12  O         18.5860  -20.5980  -12.2620 O.2     1  UNL1       -0.1890
     13  C         21.8380  -22.4520  -11.7450 C.2     1  UNL1        0.0480
     14  C         23.0070  -22.1620  -12.5000 C.2     1  UNL1       -0.0070
     15  C         24.3150  -22.6850  -12.5210 C.2     1  UNL1        0.0200
     16  H         20.8590  -20.0830  -13.6480 H       1  UNL1        0.1660
     17  C         16.6690  -22.2890   -9.7550 C.3     1  UNL1        0.1030
     18  C         16.9740  -21.9120   -8.3000 C.3     1  UNL1        0.1330
     19  N         16.8860  -23.0360   -7.3550 N.am    1  UNL1       -0.3500
     20  C         15.6130  -23.1800   -6.6580 C.3     1  UNL1        0.1530
     21  C         17.8980  -23.9760   -7.0870 C.2     1  UNL1        0.2770
     22  O         17.6650  -24.9270   -6.3350 O.2     1  UNL1       -0.2650
     23  C         19.2240  -23.8530   -7.6860 C.2     1  UNL1        0.1440
     24  C         19.9100  -24.7650   -8.4760 C.2     1  UNL1        0.0460
     25  C         21.1650  -24.1910   -8.7870 C.2     1  UNL1        0.0480
     26  C         21.1830  -22.9660   -8.1640 C.2     1  UNL1        0.1220
     27 BR         22.6200  -21.7230   -8.2150 Br      1  UNL1       -0.0230
     28  O         20.0210  -22.7570   -7.4950 O.2     1  UNL1       -0.2980
@<TRIPOS>BOND
     1     3     4    1
     2     3     2    2
     3     4     5    2
     4    16     6    1
     5     1     2    1
     6     2    15    1
     7     5     6    1
     8     5    14    1
     9     6     7    1
    10    15    14    2
    11    14    13    1
    12    12     8    1
    13    12    11    1
    14     7    13    2
    15     7     8    1
    16     8     9    2
    17    11    10    1
    18     9    10    2
    19    10    17    1
    20    17    18    1
    21    25    24    1
    22    25    26    2
    23    24    23    2
    24    18    19    1
    25    27    26    1
    26    26    28    1
    27    23    28    1
    28    23    21    1
    29    19    21   am
    30    19    20    1
    31    21    22    2
