@<TRIPOS>MOLECULE
12586_out_ligand_01.pdbqt
 33 36 0 0 0
SMALL
GASTEIGER

@<TRIPOS>ATOM
      1  C         23.5700  -21.3820  -13.7220 C.2     1  UNL1        0.2580
      2  O         22.3930  -21.0600  -13.8770 O.2     1  UNL1       -0.2670
      3  N         24.1140  -21.9820  -12.5930 N.am    1  UNL1       -0.3130
      4  C         25.5500  -22.1910  -12.3190 C.2     1  UNL1        0.1370
      5  C         25.6780  -22.6550  -10.8620 C.2     1  UNL1        0.0610
      6  C         24.2510  -22.9060  -10.4940 C.2     1  UNL1       -0.0300
      7  C         23.7730  -23.4640   -9.3190 C.2     1  UNL1        0.0100
      8  C         22.3910  -23.5610   -9.1510 C.2     1  UNL1        0.0090
      9  C         21.4940  -23.0850  -10.1290 C.2     1  UNL1       -0.0380
     10  C         22.0090  -22.5460  -11.3180 C.2     1  UNL1        0.0390
     11  C         23.3830  -22.4610  -11.4880 C.2     1  UNL1        0.0440
     12  C         19.9950  -23.2080   -9.9590 C.3     1  UNL1        0.1630
     13  N         19.6070  -23.5960   -8.6200 N.am    1  UNL1       -0.3390
     14  C         18.4760  -23.0850   -8.0330 C.2     1  UNL1        0.3210
     15  O         17.7860  -22.2300   -8.5690 O.2     1  UNL1       -0.2470
     16  N         18.2410  -23.6590   -6.8080 N.am    1  UNL1       -0.3060
     17  H         18.9930  -24.2140   -6.4150 H       1  UNL1        0.1710
     18  H         19.9260  -24.4960   -8.3140 H       1  UNL1        0.1640
     19  C         17.1340  -23.4360   -5.9600 C.2     1  UNL1        0.0780
     20  C         15.9020  -24.0820   -6.0930 C.2     1  UNL1        0.0750
     21  C         14.8680  -23.8000   -5.1970 C.2     1  UNL1        0.1180
     22  F         13.6870  -24.4190   -5.3450 F       1  UNL1       -0.2060
     23  C         15.0350  -22.8890   -4.1590 C.2     1  UNL1        0.0450
     24  C         16.2630  -22.2420   -4.0100 C.2     1  UNL1        0.0470
     25  C         17.2970  -22.5200   -4.9100 C.2     1  UNL1        0.1430
     26  F         18.4810  -21.8890   -4.7530 F       1  UNL1       -0.2040
     27  C         24.4900  -21.0830  -14.8400 C.2     1  UNL1        0.0320
     28  C         25.2190  -19.8930  -14.8170 C.2     1  UNL1        0.0170
     29  C         26.0690  -19.5850  -15.8790 C.2     1  UNL1        0.0070
     30  C         26.1940  -20.4590  -16.9670 C.2     1  UNL1       -0.0620
     31  C         27.0710  -20.0990  -18.1310 C.3     1  UNL1        0.0480
     32  C         25.4300  -21.6320  -16.9970 C.2     1  UNL1        0.0070
     33  C         24.5770  -21.9420  -15.9400 C.2     1  UNL1        0.0170
@<TRIPOS>BOND
     1    31    30    1
     2    32    30    2
     3    32    33    1
     4    30    29    1
     5    33    27    2
     6    29    28    2
     7    27    28    1
     8    27     1    1
     9     2     1    2
    10     1     3   am
    11     3     4    1
    12     3    11    1
    13     4     5    2
    14    11    10    1
    15    11     6    2
    16    10     9    2
    17     5     6    1
    18     6     7    1
    19     9    12    1
    20     9     8    1
    21    12    13    1
    22     7     8    2
    23    13    18    1
    24    13    14   am
    25    15    14    2
    26    14    16   am
    27    16    17    1
    28    16    19    1
    29    20    19    2
    30    20    21    1
    31    19    25    1
    32    22    21    1
    33    21    23    2
    34    25    26    1
    35    25    24    2
    36    23    24    1
