@<TRIPOS>MOLECULE
12601_out_ligand_01.pdbqt
 33 36 0 0 0
SMALL
GASTEIGER

@<TRIPOS>ATOM
      1  N         20.0940  -23.5200   -9.4180 N.ar    1  UNL1       -0.2740
      2  C         21.4290  -23.6220   -9.7660 C.ar    1  UNL1        0.3330
      3  O         22.2140  -24.3220   -9.1240 O.2     1  UNL1       -0.2460
      4  N         21.8480  -22.8760  -10.8610 N.ar    1  UNL1       -0.2650
      5  C         21.0610  -21.9470  -11.5240 C.ar    1  UNL1        0.2650
      6  O         21.4790  -21.1700  -12.3810 O.2     1  UNL1       -0.2670
      7  C         19.6470  -21.9010  -11.1510 C.ar    1  UNL1        0.0780
      8  C         18.7500  -21.0700  -11.8270 C.2     1  UNL1        0.0220
      9  C         17.4130  -21.0620  -11.4470 C.2     1  UNL1        0.0200
     10  C         17.0300  -21.8910  -10.4100 C.2     1  UNL1        0.1190
     11  N         17.8830  -22.7100   -9.7460 N.2     1  UNL1       -0.2420
     12  C         19.1930  -22.6960  -10.1170 C.ar    1  UNL1        0.1490
     13  C         19.6000  -24.3180   -8.2920 C.3     1  UNL1        0.2380
     14  C         18.9390  -23.4510   -7.2110 C.2     1  UNL1        0.2400
     15  N         17.6460  -23.8500   -6.9190 N.am    1  UNL1       -0.3260
     16  H         17.3070  -24.6550   -7.4470 H       1  UNL1        0.1690
     17  O         19.5290  -22.4950   -6.7170 O.2     1  UNL1       -0.2710
     18  C         16.7530  -23.2980   -5.9820 C.2     1  UNL1        0.0370
     19  C         17.0050  -23.2200   -4.6140 C.2     1  UNL1        0.0290
     20  C         16.0570  -22.6570   -3.7550 C.2     1  UNL1        0.0050
     21  C         14.8480  -22.1690   -4.2540 C.2     1  UNL1        0.0370
     22  C         14.5820  -22.2430   -5.6200 C.2     1  UNL1        0.0700
     23  C         15.5370  -22.8060   -6.4740 C.2     1  UNL1        0.0660
     24  O         13.4440  -21.8090   -6.2440 O.2     1  UNL1       -0.3560
     25  C         12.8270  -20.6440   -5.7110 C.3     1  UNL1        0.2100
     26  C         23.2570  -22.9610  -11.2420 C.3     1  UNL1        0.1420
     27  C         24.0950  -21.8690  -10.5680 C.3     1  UNL1        0.0590
     28  C         25.0780  -21.2480  -11.5290 C.2     1  UNL1       -0.0570
     29  C         26.1460  -20.4790  -11.0500 C.2     1  UNL1        0.0070
     30  C         27.0680  -19.9220  -11.9390 C.2     1  UNL1        0.0010
     31  C         26.9310  -20.1320  -13.3100 C.2     1  UNL1        0.0000
     32  C         25.8740  -20.9020  -13.7950 C.2     1  UNL1        0.0010
     33  C         24.9520  -21.4600  -12.9090 C.2     1  UNL1        0.0070
@<TRIPOS>BOND
     1    32    31    2
     2    32    33    1
     3    31    30    1
     4    33    28    2
     5     6     5    2
     6    30    29    2
     7     8     9    1
     8     8     7    2
     9    28    29    1
    10    28    27    1
    11     5     7   ar
    12     5     4   ar
    13     9    10    2
    14    26     4    1
    15    26    27    1
    16     7    12   ar
    17     4     2   ar
    18    10    11    1
    19    12    11    2
    20    12     1   ar
    21     2     1   ar
    22     2     3    2
    23     1    13    1
    24    13    14    1
    25    16    15    1
    26    14    15   am
    27    14    17    2
    28    15    18    1
    29    23    18    2
    30    23    22    1
    31    24    25    1
    32    24    22    1
    33    18    19    1
    34    22    21    2
    35    19    20    2
    36    21    20    1
