@<TRIPOS>MOLECULE
12604_out_ligand_01.pdbqt
 30 33 0 0 0
SMALL
GASTEIGER

@<TRIPOS>ATOM
      1  C         20.7900  -22.3380  -10.7670 C.2     1  UNL1       -0.0380
      2  C         21.4050  -23.0860   -9.7410 C.2     1  UNL1        0.0090
      3  C         22.7710  -23.3710   -9.7830 C.2     1  UNL1        0.0100
      4  C         23.5070  -22.9150  -10.8650 C.2     1  UNL1       -0.0290
      5  C         22.9100  -22.1760  -11.8890 C.2     1  UNL1        0.0440
      6  C         21.5580  -21.8780  -11.8500 C.2     1  UNL1        0.0390
      7  N         23.8740  -21.8210  -12.8620 N.am    1  UNL1       -0.3090
      8  C         23.6210  -21.0260  -13.9720 C.2     1  UNL1        0.2580
      9  O         22.5200  -20.6320  -14.3420 O.2     1  UNL1       -0.2670
     10  C         25.1270  -22.5590  -12.5440 C.3     1  UNL1        0.0930
     11  C         25.3150  -23.7540  -13.4870 C.3     1  UNL1        0.0330
     12  C         24.9810  -23.0420  -11.0800 C.3     1  UNL1        0.0660
     13  C         19.3060  -22.0730  -10.7230 C.3     1  UNL1        0.1610
     14  N         18.8200  -22.1860   -9.3620 N.am    1  UNL1       -0.3530
     15  C         17.5430  -22.6280   -9.0840 C.2     1  UNL1        0.2510
     16  O         16.7660  -23.0210   -9.9500 O.2     1  UNL1       -0.2680
     17  H         19.3630  -21.7110   -8.6540 H       1  UNL1        0.1630
     18  C         17.1130  -22.5780   -7.6580 C.2     1  UNL1        0.0320
     19  C         18.0970  -22.3890   -6.6770 C.2     1  UNL1        0.0170
     20  C         17.7470  -22.3470   -5.3240 C.2     1  UNL1        0.0070
     21  C         16.4100  -22.4930   -4.9330 C.2     1  UNL1       -0.0620
     22  C         16.0250  -22.4310   -3.4850 C.3     1  UNL1        0.0480
     23  C         15.4240  -22.6500   -5.9180 C.2     1  UNL1        0.0070
     24  C         15.7700  -22.6910   -7.2720 C.2     1  UNL1        0.0170
     25  C         24.7820  -20.5820  -14.7770 C.2     1  UNL1        0.0320
     26  C         24.9950  -21.1500  -16.0370 C.2     1  UNL1        0.0170
     27  C         26.0660  -20.7130  -16.8200 C.2     1  UNL1        0.0010
     28  C         26.9070  -19.7010  -16.3510 C.2     1  UNL1        0.0000
     29  C         26.6750  -19.1140  -15.1040 C.2     1  UNL1        0.0010
     30  C         25.6060  -19.5450  -14.3190 C.2     1  UNL1        0.0170
@<TRIPOS>BOND
     1    27    28    2
     2    27    26    1
     3    28    29    1
     4    26    25    2
     5    29    30    2
     6    25    30    1
     7    25     8    1
     8     9     8    2
     9     8     7   am
    10    11    10    1
    11     7    10    1
    12     7     5    1
    13    10    12    1
    14     5     6    1
    15     5     4    2
    16     6     1    2
    17    12     4    1
    18     4     3    1
    19     1    13    1
    20     1     2    1
    21    13    14    1
    22    16    15    2
    23     3     2    2
    24    14    15   am
    25    14    17    1
    26    15    18    1
    27    18    24    2
    28    18    19    1
    29    24    23    1
    30    19    20    2
    31    23    21    2
    32    20    21    1
    33    21    22    1
