@<TRIPOS>MOLECULE
12607_out_ligand_01.pdbqt
 33 36 0 0 0
SMALL
GASTEIGER

@<TRIPOS>ATOM
      1  C         15.5000  -22.5100   -9.8820 C.3     1  UNL1        0.0700
      2  C         16.8960  -22.1840  -10.3230 C.2     1  UNL1        0.0330
      3  C         17.1000  -21.3450  -11.4110 C.2     1  UNL1        0.0280
      4  C         18.4040  -21.0630  -11.7980 C.2     1  UNL1        0.0210
      5  C         19.4630  -21.6230  -11.0810 C.2     1  UNL1        0.0610
      6  C         20.8620  -21.3400  -11.4770 C.2     1  UNL1        0.2010
      7  O         21.0830  -20.6530  -12.4690 O.2     1  UNL1       -0.2860
      8  C         21.9510  -21.9270  -10.6540 C.2     1  UNL1        0.0810
      9  C         21.5770  -22.7300   -9.6460 C.2     1  UNL1        0.1130
     10  N         20.2750  -23.0140   -9.2730 N.pl3   1  UNL1       -0.3310
     11  C         19.1970  -22.4600   -9.9940 C.2     1  UNL1        0.1440
     12  N         17.9190  -22.7530   -9.6300 N.2     1  UNL1       -0.2350
     13  C         19.9400  -23.8850   -8.1340 C.3     1  UNL1        0.2330
     14  C         19.1550  -23.1320   -7.0540 C.2     1  UNL1        0.2400
     15  O         19.5690  -22.0710   -6.5980 O.2     1  UNL1       -0.2710
     16  N         17.9730  -23.7660   -6.7100 N.am    1  UNL1       -0.3260
     17  H         17.8300  -24.6740   -7.1500 H       1  UNL1        0.1690
     18  C         17.0040  -23.3550   -5.7770 C.2     1  UNL1        0.0370
     19  C         17.1230  -23.5340   -4.3950 C.2     1  UNL1        0.0290
     20  C         16.1140  -23.0910   -3.5300 C.2     1  UNL1        0.0050
     21  C         14.9830  -22.4590   -4.0420 C.2     1  UNL1        0.0420
     22  C         14.8680  -22.2880   -5.4140 C.2     1  UNL1        0.1180
     23  F         13.7890  -21.6680   -5.9130 F       1  UNL1       -0.2060
     24  C         15.8610  -22.7300   -6.2810 C.2     1  UNL1        0.0710
     25  C         23.4090  -21.7390  -10.8820 C.2     1  UNL1        0.1970
     26  O         24.1290  -21.2110  -10.0390 O.2     1  UNL1       -0.2860
     27  C         24.0170  -22.1620  -12.1630 C.2     1  UNL1        0.0150
     28  C         24.1740  -21.2670  -13.2300 C.2     1  UNL1        0.0170
     29  C         24.7870  -21.6960  -14.4100 C.2     1  UNL1        0.0200
     30  C         25.2470  -23.0090  -14.5120 C.2     1  UNL1        0.0110
     31 BR         26.0580  -23.5920  -16.1170 Br      1  UNL1       -0.0510
     32  C         25.1160  -23.8970  -13.4450 C.2     1  UNL1        0.0200
     33  C         24.5090  -23.4690  -12.2630 C.2     1  UNL1        0.0170
@<TRIPOS>BOND
     1    31    30    1
     2    30    29    2
     3    30    32    1
     4    29    28    1
     5    32    33    2
     6    28    27    2
     7     7     6    2
     8    33    27    1
     9    27    25    1
    10     4     3    1
    11     4     5    2
    12     6     5    1
    13     6     8    1
    14     3     2    2
    15     5    11    1
    16    25     8    1
    17    25    26    2
    18     8     9    2
    19     2     1    1
    20     2    12    1
    21    11    12    2
    22    11    10    1
    23     9    10    1
    24    10    13    1
    25    13    14    1
    26    17    16    1
    27    14    16   am
    28    14    15    2
    29    16    18    1
    30    24    18    2
    31    24    22    1
    32    23    22    1
    33    18    19    1
    34    22    21    2
    35    19    20    2
    36    21    20    1
