@<TRIPOS>MOLECULE
12618_out_ligand_01.pdbqt
 34 37 0 0 0
SMALL
GASTEIGER

@<TRIPOS>ATOM
      1  C         21.7640  -23.0310   -8.7770 C.2     1  UNL1        0.0320
      2  C         20.9300  -22.2410   -7.9750 C.2     1  UNL1        0.0200
      3  C         19.7400  -22.7670   -7.4650 C.2     1  UNL1        0.0380
      4  C         19.3880  -24.0830   -7.7650 C.2     1  UNL1        0.0780
      5  C         20.2330  -24.8940   -8.5220 C.2     1  UNL1        0.0380
      6  C         21.4220  -24.3670   -9.0330 C.2     1  UNL1        0.0200
      7  O         18.2400  -24.6300   -7.2510 O.2     1  UNL1       -0.2900
      8  C         17.3740  -23.7540   -6.6060 C.2     1  UNL1        0.2060
      9  N         17.6830  -23.3080   -5.3560 N.2     1  UNL1       -0.2330
     10  C         16.8010  -22.4430   -4.8130 C.2     1  UNL1        0.1380
     11  C         15.6640  -22.0260   -5.4810 C.2     1  UNL1        0.1370
     12  N         15.3520  -22.4530   -6.7260 N.2     1  UNL1       -0.2480
     13  C         16.2280  -23.3290   -7.2900 C.2     1  UNL1        0.1510
     14  S         15.8200  -23.8830   -8.9340 S.3     1  UNL1       -0.0660
     15  C         16.9450  -22.8720   -9.8780 C.2     1  UNL1        0.0070
     16  C         16.7070  -21.5020  -10.0150 C.2     1  UNL1        0.0190
     17  C         17.5820  -20.7050  -10.7580 C.2     1  UNL1        0.0080
     18  C         18.6960  -21.2720  -11.3880 C.2     1  UNL1       -0.0620
     19  C         19.6520  -20.4160  -12.1660 C.3     1  UNL1        0.0480
     20  C         18.9350  -22.6440  -11.2430 C.2     1  UNL1        0.0080
     21  C         18.0620  -23.4400  -10.4980 C.2     1  UNL1        0.0190
     22  C         23.0110  -22.4220   -9.3190 C.2     1  UNL1        0.2510
     23  N         23.8220  -23.2540  -10.0600 N.am    1  UNL1       -0.3530
     24  H         23.4510  -24.1320  -10.3950 H       1  UNL1        0.1630
     25  O         23.2570  -21.2370   -9.1290 O.2     1  UNL1       -0.2680
     26  C         24.9820  -22.7300  -10.7430 C.3     1  UNL1        0.1610
     27  C         24.7000  -22.5880  -12.2160 C.2     1  UNL1       -0.0400
     28  C         25.4320  -23.3210  -13.1590 C.2     1  UNL1        0.0110
     29  C         25.1900  -23.1520  -14.5250 C.2     1  UNL1        0.0370
     30  C         24.2220  -22.2490  -14.9730 C.2     1  UNL1        0.0680
     31  C         23.4940  -21.5110  -14.0380 C.2     1  UNL1        0.0370
     32  C         23.7340  -21.6790  -12.6690 C.2     1  UNL1        0.0110
     33  O         24.0930  -22.1790  -16.3320 O.2     1  UNL1       -0.3560
     34  C         24.3050  -23.3840  -17.0610 C.3     1  UNL1        0.2100
@<TRIPOS>BOND
     1    34    33    1
     2    33    30    1
     3    30    29    2
     4    30    31    1
     5    29    28    1
     6    31    32    2
     7    28    27    2
     8    32    27    1
     9    27    26    1
    10    19    18    1
    11    18    20    2
    12    18    17    1
    13    20    21    1
    14    17    16    2
    15    26    23    1
    16    21    15    2
    17    24    23    1
    18    23    22   am
    19    16    15    1
    20    15    14    1
    21    22    25    2
    22    22     1    1
    23     6     1    2
    24     6     5    1
    25    14    13    1
    26     1     2    1
    27     5     4    2
    28     2     3    2
    29     4     3    1
    30     4     7    1
    31    13    12    2
    32    13     8    1
    33     7     8    1
    34    12    11    1
    35     8     9    2
    36    11    10    2
    37     9    10    1
