@<TRIPOS>MOLECULE
12611_out_ligand_01.pdbqt
 34 37 0 0 0
SMALL
GASTEIGER

@<TRIPOS>ATOM
      1  C         20.4170  -23.1210   -8.2000 C.2     1  UNL1        0.0320
      2  C         21.2830  -22.1620   -7.6650 C.2     1  UNL1        0.0180
      3  C         22.4980  -21.8800   -8.3000 C.2     1  UNL1        0.0170
      4  C         22.8710  -22.5590   -9.4690 C.2     1  UNL1        0.0170
      5  C         21.9990  -23.5320   -9.9860 C.2     1  UNL1        0.0170
      6  C         20.7800  -23.8140   -9.3590 C.2     1  UNL1        0.0180
      7  C         24.1360  -22.2970  -10.1490 C.ar    1  UNL1        0.1800
      8  N         24.7700  -21.1520  -10.3110 N.ar    1  UNL1       -0.2250
      9  C         25.8870  -21.4790  -11.0520 C.ar    1  UNL1        0.0760
     10  C         25.8970  -22.8390  -11.2810 C.ar    1  UNL1        0.0770
     11  C         26.7950  -23.7700  -11.9860 C.3     1  UNL1        0.0790
     12  O         24.7750  -23.3710  -10.7110 O.2     1  UNL1       -0.2940
     13  C         26.8610  -20.4370  -11.4710 C.3     1  UNL1        0.1410
     14  S         26.2180  -19.3770  -12.8120 S.3     1  UNL1       -0.1240
     15  C         25.7130  -20.6340  -13.9710 C.2     1  UNL1        0.0010
     16  C         24.3570  -20.9330  -14.1240 C.2     1  UNL1        0.0190
     17  C         23.9480  -21.9060  -15.0410 C.2     1  UNL1        0.0080
     18  C         24.8890  -22.5800  -15.8270 C.2     1  UNL1       -0.0620
     19  C         24.4560  -23.6480  -16.7890 C.3     1  UNL1        0.0480
     20  C         26.2470  -22.2810  -15.6670 C.2     1  UNL1        0.0080
     21  C         26.6550  -21.3070  -14.7530 C.2     1  UNL1        0.0190
     22  C         19.1320  -23.3990   -7.4980 C.2     1  UNL1        0.2560
     23  N         18.5060  -22.2760   -6.9830 N.am    1  UNL1       -0.3220
     24  H         19.1310  -21.5050   -6.8010 H       1  UNL1        0.1690
     25  O         18.7760  -24.5640   -7.3670 O.2     1  UNL1       -0.2670
     26  C         17.2800  -22.2710   -6.2710 C.2     1  UNL1        0.0470
     27  C         17.2190  -22.2380   -4.8590 C.2     1  UNL1       -0.0350
     28  C         15.9630  -22.1890   -4.2260 C.2     1  UNL1        0.0090
     29  C         18.4220  -22.2960   -3.9560 C.3     1  UNL1        0.0500
     30  C         14.7850  -22.2290   -4.9600 C.2     1  UNL1        0.0010
     31  C         14.8430  -22.3300   -6.3450 C.2     1  UNL1        0.0090
     32  C         16.0780  -22.3650   -7.0180 C.2     1  UNL1       -0.0310
     33  C         16.0350  -22.4290   -8.5310 C.3     1  UNL1        0.0360
     34  C         15.7330  -23.8310   -9.0420 C.3     1  UNL1        0.0100
@<TRIPOS>BOND
     1    19    18    1
     2    18    20    2
     3    18    17    1
     4    20    21    1
     5    17    16    2
     6    21    15    2
     7    16    15    1
     8    15    14    1
     9    14    13    1
    10    11    10    1
    11    13     9    1
    12    10     9   ar
    13    10    12   ar
    14     9     8   ar
    15    12     7   ar
    16     8     7   ar
    17     7     4    1
    18     5     4    2
    19     5     6    1
    20     4     3    1
    21     6     1    2
    22    34    33    1
    23    33    32    1
    24     3     2    2
    25     1     2    1
    26     1    22    1
    27    22    25    2
    28    22    23   am
    29    32    31    1
    30    32    26    2
    31    23    24    1
    32    23    26    1
    33    31    30    2
    34    26    27    1
    35    30    28    1
    36    27    28    2
    37    27    29    1
