@<TRIPOS>MOLECULE
12628_out_ligand_01.pdbqt
 33 36 0 0 0
SMALL
GASTEIGER

@<TRIPOS>ATOM
      1  C         22.9670  -22.5250   -9.5300 C.2     1  UNL1        0.0170
      2  C         22.0960  -23.5230   -9.9900 C.2     1  UNL1        0.0170
      3  C         20.8950  -23.7870   -9.3210 C.2     1  UNL1        0.0180
      4  C         20.5420  -23.0520   -8.1850 C.2     1  UNL1        0.0320
      5  C         21.4110  -22.0650   -7.7070 C.2     1  UNL1        0.0180
      6  C         22.6090  -21.8020   -8.3820 C.2     1  UNL1        0.0170
      7  C         24.2270  -22.2240  -10.2060 C.ar    1  UNL1        0.1800
      8  N         24.8230  -21.0580  -10.3680 N.ar    1  UNL1       -0.2250
      9  C         25.9630  -21.3550  -11.0890 C.ar    1  UNL1        0.0760
     10  C         26.0220  -22.7170  -11.3050 C.ar    1  UNL1        0.0770
     11  O         24.9090  -23.2810  -10.7480 O.2     1  UNL1       -0.2940
     12  C         26.9630  -23.6260  -11.9830 C.3     1  UNL1        0.0790
     13  C         26.9070  -20.2800  -11.4920 C.3     1  UNL1        0.1410
     14  S         26.3490  -19.3310  -12.9500 S.3     1  UNL1       -0.1240
     15  C         25.7160  -20.6020  -14.0350 C.2     1  UNL1        0.0010
     16  C         26.6350  -21.2830  -14.8410 C.2     1  UNL1        0.0190
     17  C         26.2090  -22.2760  -15.7300 C.2     1  UNL1        0.0080
     18  C         24.8520  -22.5890  -15.8400 C.2     1  UNL1       -0.0620
     19  C         24.3940  -23.6730  -16.7720 C.3     1  UNL1        0.0480
     20  C         23.9320  -21.9130  -15.0330 C.2     1  UNL1        0.0080
     21  C         24.3610  -20.9180  -14.1460 C.2     1  UNL1        0.0190
     22  C         19.2570  -23.3690   -7.4940 C.2     1  UNL1        0.2560
     23  O         18.8700  -24.5310   -7.4840 O.2     1  UNL1       -0.2670
     24  N         18.5840  -22.2680   -6.9900 N.am    1  UNL1       -0.3220
     25  H         18.8050  -21.4000   -7.4550 H       1  UNL1        0.1690
     26  C         17.3670  -22.2840   -6.2620 C.2     1  UNL1        0.0460
     27  C         17.2940  -22.1200   -4.8610 C.2     1  UNL1       -0.0350
     28  C         18.4750  -21.8220   -3.9740 C.3     1  UNL1        0.0500
     29  C         16.0380  -22.1890   -4.2280 C.2     1  UNL1        0.0090
     30  C         14.8660  -22.3510   -4.9590 C.2     1  UNL1        0.0010
     31  C         14.9290  -22.4440   -6.3430 C.2     1  UNL1        0.0090
     32  C         16.1670  -22.4110   -7.0080 C.2     1  UNL1       -0.0350
     33  C         16.1580  -22.5470   -8.5090 C.3     1  UNL1        0.0500
@<TRIPOS>BOND
     1    19    18    1
     2    18    17    2
     3    18    20    1
     4    17    16    1
     5    20    21    2
     6    16    15    2
     7    21    15    1
     8    15    14    1
     9    14    13    1
    10    12    10    1
    11    13     9    1
    12    10     9   ar
    13    10    11   ar
    14     9     8   ar
    15    11     7   ar
    16     8     7   ar
    17     7     1    1
    18     2     1    2
    19     2     3    1
    20     1     6    1
    21     3     4    2
    22    33    32    1
    23     6     5    2
    24     4     5    1
    25     4    22    1
    26    22    23    2
    27    22    24   am
    28    25    24    1
    29    32    31    1
    30    32    26    2
    31    24    26    1
    32    31    30    2
    33    26    27    1
    34    30    29    1
    35    27    29    2
    36    27    28    1
