@<TRIPOS>MOLECULE
12627_out_ligand_01.pdbqt
 39 42 0 0 0
SMALL
GASTEIGER

@<TRIPOS>ATOM
      1  S         22.0820  -23.7720   -9.2910 S.3     1  UNL1       -0.0810
      2  C         20.6900  -23.5670   -8.2730 C.ar    1  UNL1        0.1910
      3  N         19.6970  -24.3890   -8.3150 N.ar    1  UNL1       -0.1240
      4  N         18.6230  -24.2030   -7.4360 N.ar    1  UNL1       -0.1410
      5  C         18.5950  -23.1590   -6.6530 C.ar    1  UNL1        0.1590
      6  C         19.6960  -22.1100   -6.7300 C.ar    1  UNL1        0.2790
      7  N         20.7640  -22.4720   -7.4870 N.ar    1  UNL1       -0.2990
      8  O         19.5960  -21.0120   -6.2070 O.2     1  UNL1       -0.2650
      9  H         21.5340  -21.8300   -7.5780 H       1  UNL1        0.1710
     10  C         17.4510  -22.9890   -5.7030 C.2     1  UNL1        0.0270
     11  C         17.6480  -23.2580   -4.3380 C.2     1  UNL1        0.0160
     12  C         16.6090  -23.0850   -3.4250 C.2     1  UNL1        0.0010
     13  C         15.3640  -22.6510   -3.8680 C.2     1  UNL1        0.0020
     14  C         15.1500  -22.4000   -5.2270 C.2     1  UNL1        0.0300
     15  C         16.1750  -22.5750   -6.1650 C.2     1  UNL1        0.0470
     16  N         15.9670  -22.3640   -7.5520 N.am    1  UNL1       -0.3270
     17  C         15.6720  -23.2890   -8.5320 C.2     1  UNL1        0.2180
     18  C         15.5980  -22.6750   -9.9090 C.3     1  UNL1        0.1170
     19  O         15.4890  -24.4930   -8.3780 O.2     1  UNL1       -0.2740
     20  H         16.1280  -21.4040   -7.8650 H       1  UNL1        0.1690
     21  C         22.7970  -22.1140   -9.0660 C.3     1  UNL1        0.1850
     22  C         23.7840  -21.8400  -10.1940 C.2     1  UNL1        0.2320
     23  O         24.5600  -20.8900  -10.1220 O.2     1  UNL1       -0.2720
     24  N         23.6430  -22.7250  -11.2490 N.am    1  UNL1       -0.3200
     25  H         22.9330  -23.4550  -11.1790 H       1  UNL1        0.1690
     26  C         24.3080  -22.7020  -12.4680 C.ar    1  UNL1        0.0930
     27  S         25.7470  -23.5640  -12.7110 S.2     1  UNL1       -0.0750
     28  C         25.9200  -22.9680  -14.2870 C.ar    1  UNL1       -0.0080
     29  C         24.8880  -22.1240  -14.6580 C.ar    1  UNL1       -0.0260
     30  C         27.1210  -23.3060  -15.1170 C.3     1  UNL1        0.0470
     31  C         23.9020  -21.9970  -13.6010 C.ar    1  UNL1        0.0720
     32  C         24.8900  -21.4580  -16.0090 C.3     1  UNL1        0.0410
     33  C         26.2770  -21.4910  -16.6720 C.3     1  UNL1        0.0050
     34  C         26.9060  -22.8860  -16.5790 C.3     1  UNL1        0.0050
     35  C         22.6480  -21.2390  -13.6010 C.2     1  UNL1        0.2520
     36  N         22.5640  -20.1800  -14.4570 N.am    1  UNL1       -0.3660
     37  H         21.6390  -19.7860  -14.5720 H       1  UNL1        0.1590
     38  H         23.1790  -20.1270  -15.2560 H       1  UNL1        0.1590
     39  O         21.6710  -21.5680  -12.9290 O.2     1  UNL1       -0.2680
@<TRIPOS>BOND
     1    33    34    1
     2    33    32    1
     3    34    30    1
     4    32    29    1
     5    38    36    1
     6    30    28    1
     7    29    28   ar
     8    29    31   ar
     9    37    36    1
    10    36    35   am
    11    28    27   ar
    12    35    31    1
    13    35    39    2
    14    31    26   ar
    15    27    26   ar
    16    26    24    1
    17    24    25    1
    18    24    22   am
    19    22    23    2
    20    22    21    1
    21    18    17    1
    22     1    21    1
    23     1     2    1
    24    17    19    2
    25    17    16   am
    26     3     2   ar
    27     3     4   ar
    28     2     7   ar
    29    20    16    1
    30     9     7    1
    31    16    15    1
    32     7     6   ar
    33     4     5   ar
    34     6     5   ar
    35     6     8    2
    36     5    10    1
    37    15    10    2
    38    15    14    1
    39    10    11    1
    40    14    13    2
    41    11    12    2
    42    13    12    1
