@<TRIPOS>MOLECULE
12631_out_ligand_01.pdbqt
 32 34 0 0 0
SMALL
GASTEIGER

@<TRIPOS>ATOM
      1  C         18.6270  -22.1700  -10.1950 C.2     1  UNL1        0.0720
      2  C         19.8990  -22.4310   -9.6600 C.2     1  UNL1        0.0450
      3  C         21.0470  -22.0310  -10.3540 C.2     1  UNL1        0.0800
      4  C         20.9510  -21.3800  -11.5850 C.2     1  UNL1        0.0280
      5  C         19.6900  -21.1280  -12.1240 C.2     1  UNL1        0.0450
      6  C         18.5430  -21.5200  -11.4310 C.2     1  UNL1        0.1320
      7  F         17.3550  -21.2490  -11.9890 F       1  UNL1       -0.2050
      8  S         22.6410  -22.3440   -9.6360 S.O2    1  UNL1        0.2590
      9  O         22.7800  -23.7680   -9.4320 O.2     1  UNL1       -0.2010
     10  O         22.8180  -21.3920   -8.5650 O.2     1  UNL1       -0.2010
     11  N         23.6750  -21.8930  -10.8670 N.3     1  UNL1       -0.3100
     12  H         23.7840  -20.8880  -10.9990 H       1  UNL1        0.1720
     13  C         24.6590  -22.8280  -11.4120 C.3     1  UNL1        0.0970
     14  C         26.0670  -22.3570  -11.0560 C.3     1  UNL1        0.0260
     15  C         27.1210  -23.3840  -11.4690 C.3     1  UNL1        0.0020
     16  C         26.6730  -24.2920  -12.6170 C.3     1  UNL1        0.0050
     17  C         25.7820  -23.5450  -13.6160 C.3     1  UNL1       -0.0130
     18  C         25.4510  -24.4490  -14.8070 C.3     1  UNL1        0.0100
     19  C         24.4850  -23.0030  -12.9460 C.3     1  UNL1        0.0090
     20  C         24.0370  -21.7240  -13.6720 C.3     1  UNL1        0.0120
     21  C         17.4280  -22.5850   -9.4020 C.2     1  UNL1        0.2590
     22  N         17.4680  -22.3330   -8.0430 N.am    1  UNL1       -0.3220
     23  H         18.3100  -21.8940   -7.6920 H       1  UNL1        0.1690
     24  O         16.5080  -23.1190  -10.0130 O.2     1  UNL1       -0.2670
     25  C         16.4840  -22.6180   -7.0660 C.2     1  UNL1        0.0410
     26  C         16.6440  -23.7660   -6.2570 C.2     1  UNL1       -0.0350
     27  C         15.6720  -24.0700   -5.2890 C.2     1  UNL1        0.0090
     28  C         17.8250  -24.6920   -6.3930 C.3     1  UNL1        0.0500
     29  C         14.5570  -23.2550   -5.1120 C.2     1  UNL1        0.0070
     30  C         14.3960  -22.1110   -5.8930 C.2     1  UNL1       -0.0600
     31  C         13.1860  -21.2370   -5.7340 C.3     1  UNL1        0.0480
     32  C         15.3560  -21.8100   -6.8720 C.2     1  UNL1        0.0370
@<TRIPOS>BOND
     1    18    17    1
     2    20    19    1
     3    17    19    1
     4    17    16    1
     5    19    13    1
     6    16    15    1
     7     5     4    2
     8     5     6    1
     9     7     6    1
    10     4     3    1
    11    15    14    1
    12     6     1    2
    13    13    14    1
    14    13    11    1
    15    12    11    1
    16    11     8    1
    17     3     2    2
    18     3     8    1
    19     1     2    1
    20     1    21    1
    21    24    21    2
    22     8     9    2
    23     8    10    2
    24    21    22   am
    25    22    23    1
    26    22    25    1
    27    25    32    2
    28    25    26    1
    29    32    30    1
    30    28    26    1
    31    26    27    2
    32    30    31    1
    33    30    29    2
    34    27    29    1
