@<TRIPOS>MOLECULE
12640_out_ligand_01.pdbqt
 32 34 0 0 0
SMALL
GASTEIGER

@<TRIPOS>ATOM
      1  C         21.7840  -22.1460  -10.8070 C.2     1  UNL1        0.0800
      2  C         21.6000  -21.4160  -11.9840 C.2     1  UNL1        0.0280
      3  C         20.3070  -21.1010  -12.3970 C.2     1  UNL1        0.0450
      4  C         19.2130  -21.5130  -11.6350 C.2     1  UNL1        0.1320
      5  F         17.9860  -21.1900  -12.0750 F       1  UNL1       -0.2050
      6  C         19.3840  -22.2360  -10.4500 C.2     1  UNL1        0.0720
      7  C         20.6880  -22.5430  -10.0320 C.2     1  UNL1        0.0450
      8  S         23.4320  -22.5320  -10.2630 S.O2    1  UNL1        0.2590
      9  O         23.3650  -23.6190   -9.3150 O.2     1  UNL1       -0.2010
     10  O         24.0860  -21.2810   -9.9460 O.2     1  UNL1       -0.2010
     11  N         24.1370  -23.0780  -11.6800 N.3     1  UNL1       -0.3100
     12  H         23.4800  -23.5340  -12.3100 H       1  UNL1        0.1720
     13  C         25.3090  -22.3820  -12.2440 C.3     1  UNL1        0.0970
     14  C         24.8750  -21.5310  -13.4490 C.3     1  UNL1        0.0260
     15  C         25.1650  -22.1760  -14.8050 C.3     1  UNL1        0.0020
     16  C         24.9790  -23.6860  -14.7710 C.3     1  UNL1        0.0050
     17  C         25.9190  -24.3720  -13.7590 C.3     1  UNL1       -0.0130
     18  C         26.3900  -23.4120  -12.6320 C.3     1  UNL1        0.0090
     19  C         27.1200  -24.9860  -14.4910 C.3     1  UNL1        0.0100
     20  C         26.8930  -24.1840  -11.4040 C.3     1  UNL1        0.0120
     21  C         18.2400  -22.7150   -9.6130 C.2     1  UNL1        0.2590
     22  O         17.3170  -23.2840  -10.1840 O.2     1  UNL1       -0.2670
     23  N         18.3170  -22.4690   -8.2540 N.am    1  UNL1       -0.3230
     24  H         19.1400  -21.9730   -7.9240 H       1  UNL1        0.1690
     25  C         17.3780  -22.8180   -7.2600 C.2     1  UNL1        0.0360
     26  C         17.6900  -23.9260   -6.4570 C.2     1  UNL1        0.0320
     27  C         16.8200  -24.3430   -5.4480 C.2     1  UNL1        0.0460
     28  C         15.6320  -23.6530   -5.2380 C.2     1  UNL1        0.1380
     29  F         14.8100  -24.0680   -4.2630 F       1  UNL1       -0.2040
     30  C         15.3080  -22.5520   -6.0260 C.2     1  UNL1        0.0740
     31 CL         13.8360  -21.6970   -5.7660 Cl      1  UNL1       -0.0810
     32  C         16.1790  -22.1340   -7.0370 C.2     1  UNL1        0.0560
@<TRIPOS>BOND
     1    15    16    1
     2    15    14    1
     3    16    17    1
     4    19    17    1
     5    17    18    1
     6    14    13    1
     7    18    13    1
     8    18    20    1
     9     3     2    1
    10     3     4    2
    11    12    11    1
    12    13    11    1
    13     5     4    1
    14     2     1    2
    15    11     8    1
    16     4     6    1
    17     1     8    1
    18     1     7    1
    19     6     7    2
    20     6    21    1
    21     8    10    2
    22     8     9    2
    23    22    21    2
    24    21    23   am
    25    23    24    1
    26    23    25    1
    27    25    32    2
    28    25    26    1
    29    32    30    1
    30    26    27    2
    31    30    31    1
    32    30    28    2
    33    27    28    1
    34    28    29    1
