@<TRIPOS>MOLECULE
12657_out_ligand_01.pdbqt
 37 41 0 0 0
SMALL
GASTEIGER

@<TRIPOS>ATOM
      1  C         17.2840  -21.5500  -10.2800 C.3     1  UNL1        0.1210
      2  S         16.8780  -23.2430   -9.7700 S.3     1  UNL1       -0.0870
      3  C         16.5040  -23.0240   -8.0930 C.ar    1  UNL1        0.1700
      4  N         17.2890  -23.4990   -7.0680 N.ar    1  UNL1       -0.3190
      5  C         16.6140  -23.2340   -5.8900 C.ar    1  UNL1        0.0830
      6  C         16.8550  -23.5250   -4.5540 C.2     1  UNL1        0.1480
      7  C         15.4890  -22.5200   -6.2840 C.ar    1  UNL1        0.0890
      8  N         15.9800  -23.0810   -3.6220 N.2     1  UNL1       -0.2710
      9  C         14.8950  -22.3750   -4.0130 C.2     1  UNL1        0.1180
     10  C         14.5880  -22.0600   -5.3250 C.2     1  UNL1        0.0530
     11  N         15.4420  -22.3920   -7.6470 N.ar    1  UNL1       -0.2220
     12  C         18.5260  -24.2650   -7.1700 C.3     1  UNL1        0.1700
     13  C         19.7590  -23.4350   -7.4750 C.2     1  UNL1       -0.0340
     14  C         19.8490  -22.1540   -6.8930 C.2     1  UNL1        0.0090
     15  C         20.9480  -21.3260   -7.1210 C.2     1  UNL1        0.0010
     16  C         21.9780  -21.7600   -7.9440 C.2     1  UNL1        0.0010
     17  C         21.9020  -23.0140   -8.5460 C.2     1  UNL1        0.0070
     18  C         20.7950  -23.8570   -8.3370 C.2     1  UNL1       -0.0540
     19  C         20.7860  -25.1900   -9.0330 C.3     1  UNL1        0.0490
     20  C         18.6090  -21.4660  -11.0030 C.2     1  UNL1       -0.0480
     21  C         19.0070  -20.2740  -11.6210 C.2     1  UNL1        0.0090
     22  C         20.2310  -20.1960  -12.2910 C.2     1  UNL1        0.0170
     23  C         21.0770  -21.3100  -12.3470 C.2     1  UNL1        0.0320
     24  C         20.6720  -22.5140  -11.7590 C.2     1  UNL1        0.0170
     25  C         19.4480  -22.5880  -11.0870 C.2     1  UNL1        0.0090
     26  C         22.3780  -21.1710  -13.0610 C.2     1  UNL1        0.2520
     27  O         22.4250  -20.6170  -14.1540 O.2     1  UNL1       -0.2680
     28  N         23.4900  -21.6660  -12.4100 N.am    1  UNL1       -0.3520
     29  H         23.3870  -22.0810  -11.4960 H       1  UNL1        0.1630
     30  C         24.8160  -21.6500  -13.0200 C.3     1  UNL1        0.0880
     31  C         24.9070  -22.7020  -14.1340 C.3     1  UNL1        0.0250
     32  C         24.9160  -24.1250  -13.5850 C.3     1  UNL1        0.0020
     33  C         26.0300  -24.3230  -12.5620 C.3     1  UNL1        0.0050
     34  C         25.9570  -23.3010  -11.4150 C.3     1  UNL1       -0.0130
     35  C         27.1200  -23.5440  -10.4480 C.3     1  UNL1        0.0100
     36  C         25.9410  -21.8540  -11.9730 C.3     1  UNL1        0.0080
     37  C         25.8560  -20.7940  -10.8670 C.3     1  UNL1        0.0120
@<TRIPOS>BOND
     1    27    26    2
     2    31    32    1
     3    31    30    1
     4    32    33    1
     5    26    28   am
     6    26    23    1
     7    30    28    1
     8    30    36    1
     9    33    34    1
    10    28    29    1
    11    23    22    2
    12    23    24    1
    13    22    21    1
    14    36    34    1
    15    36    37    1
    16    24    25    2
    17    21    20    2
    18    34    35    1
    19    25    20    1
    20    20     1    1
    21     1     2    1
    22     2     3    1
    23    19    18    1
    24    17    18    1
    25    17    16    2
    26    18    13    2
    27     3    11   ar
    28     3     4   ar
    29    16    15    1
    30    11     7   ar
    31    13    12    1
    32    13    14    1
    33    12     4    1
    34    15    14    2
    35     4     5   ar
    36     7     5   ar
    37     7    10    1
    38     5     6    1
    39    10     9    2
    40     6     8    2
    41     9     8    1
