@<TRIPOS>MOLECULE
12656_out_ligand_01.pdbqt
 30 33 0 0 0
SMALL
GASTEIGER

@<TRIPOS>ATOM
      1  C         20.1090  -23.1140   -7.6760 C.2     1  UNL1        0.0350
      2  C         20.9740  -22.0310   -7.4820 C.2     1  UNL1        0.0300
      3  C         22.2150  -21.9820   -8.1240 C.2     1  UNL1        0.0090
      4  C         22.6130  -23.0180   -8.9750 C.2     1  UNL1       -0.0580
      5  C         21.7470  -24.0980   -9.1730 C.2     1  UNL1        0.0090
      6  C         20.5070  -24.1460   -8.5250 C.2     1  UNL1        0.0300
      7  C         23.9730  -22.9860   -9.6360 C.3     1  UNL1        0.0460
      8  C         24.1480  -21.8080  -10.5990 C.3     1  UNL1        0.0830
      9  C         24.3520  -22.2510  -12.0100 C.ar    1  UNL1        0.1050
     10  N         24.1380  -21.5400  -13.0980 N.ar    1  UNL1       -0.2330
     11  C         24.4810  -22.3600  -14.1460 C.ar    1  UNL1        0.0860
     12  C         24.4520  -22.1120  -15.5270 C.2     1  UNL1        0.0400
     13  C         24.9140  -23.5980  -13.6890 C.ar    1  UNL1        0.0620
     14  C         24.8720  -23.1200  -16.4130 C.2     1  UNL1       -0.0600
     15  C         24.8140  -22.8840  -17.8940 C.3     1  UNL1        0.0480
     16  C         25.2910  -24.3620  -15.9110 C.2     1  UNL1        0.0090
     17  C         25.3270  -24.6270  -14.5360 C.2     1  UNL1        0.0320
     18  N         24.8170  -23.5060  -12.3260 N.ar    1  UNL1       -0.3430
     19  H         25.0790  -24.2190  -11.6590 H       1  UNL1        0.1670
     20  N         18.8810  -23.0880   -6.9830 N.am    1  UNL1       -0.3230
     21  C         17.6110  -23.0190   -7.5260 C.2     1  UNL1        0.2560
     22  O         17.3210  -22.9210   -8.7130 O.2     1  UNL1       -0.2670
     23  H         18.9500  -23.0520   -5.9740 H       1  UNL1        0.1690
     24  C         16.5030  -23.0350   -6.5290 C.2     1  UNL1        0.0320
     25  C         16.5010  -23.9220   -5.4450 C.2     1  UNL1        0.0170
     26  C         15.4480  -23.8970   -4.5300 C.2     1  UNL1        0.0020
     27  C         14.3910  -23.0010   -4.7010 C.2     1  UNL1        0.0070
     28  C         14.3640  -22.1320   -5.7990 C.2     1  UNL1       -0.0610
     29  C         13.2380  -21.1570   -5.9720 C.3     1  UNL1        0.0480
     30  C         15.4310  -22.1510   -6.7080 C.2     1  UNL1        0.0230
@<TRIPOS>BOND
     1    15    14    1
     2    14    16    2
     3    14    12    1
     4    16    17    1
     5    12    11    2
     6    17    13    2
     7    11    13   ar
     8    11    10   ar
     9    13    18   ar
    10    10     9   ar
    11    18     9   ar
    12    18    19    1
    13     9     8    1
    14     8     7    1
    15     7     4    1
    16     5     4    2
    17     5     6    1
    18     4     3    1
    19    22    21    2
    20     6     1    2
    21     3     2    2
    22     1     2    1
    23     1    20    1
    24    21    20   am
    25    21    24    1
    26    20    23    1
    27    30    24    2
    28    30    28    1
    29    24    25    1
    30    29    28    1
    31    28    27    2
    32    25    26    2
    33    27    26    1
