@<TRIPOS>MOLECULE
12654_out_ligand_01.pdbqt
 37 40 0 0 0
SMALL
GASTEIGER

@<TRIPOS>ATOM
      1  C         21.1340  -22.5100  -10.1340 C.2     1  UNL1        0.0340
      2  C         21.7630  -22.2340   -8.9130 C.2     1  UNL1        0.0170
      3  C         23.0880  -21.8090   -8.9020 C.2     1  UNL1        0.0030
      4  C         23.7830  -21.6630  -10.1040 C.2     1  UNL1        0.0290
      5  C         23.1640  -21.9400  -11.3330 C.2     1  UNL1        0.0370
      6  C         21.8390  -22.3780  -11.3400 C.2     1  UNL1        0.0460
      7  C         19.7270  -22.9870  -10.1760 C.2     1  UNL1        0.2520
      8  N         18.7650  -22.0050  -10.2710 N.am    1  UNL1       -0.3530
      9  H         19.0380  -21.0330  -10.3110 H       1  UNL1        0.1630
     10  O         19.4790  -24.1850  -10.1300 O.2     1  UNL1       -0.2680
     11  C         17.3570  -22.3010  -10.1550 C.3     1  UNL1        0.1610
     12  C         17.0420  -22.7960   -8.7680 C.2     1  UNL1       -0.0380
     13  C         17.7420  -22.3170   -7.6570 C.2     1  UNL1        0.0480
     14  C         17.4590  -22.8070   -6.3780 C.2     1  UNL1        0.1020
     15  C         16.5060  -23.8210   -6.1870 C.2     1  UNL1        0.1010
     16  C         15.8100  -24.3000   -7.3010 C.2     1  UNL1        0.0400
     17  C         16.0760  -23.7930   -8.5780 C.2     1  UNL1        0.0120
     18  O         18.2180  -22.2920   -5.3550 O.2     1  UNL1       -0.3490
     19  C         19.1660  -21.3340   -5.8370 C.3     1  UNL1        0.1710
     20  C         19.0970  -20.1210   -4.9250 C.3     1  UNL1        0.0340
     21  O         16.3430  -24.2830   -4.9080 O.2     1  UNL1       -0.3530
     22  C         15.2670  -23.7440   -4.1500 C.3     1  UNL1        0.2100
     23  N         23.9480  -21.7750  -12.4890 N.am    1  UNL1       -0.3090
     24  C         24.7040  -22.7230  -13.1570 C.2     1  UNL1        0.3270
     25  O         24.7080  -23.9250  -12.9000 O.2     1  UNL1       -0.2460
     26  N         25.4210  -22.1820  -14.2520 N.am    1  UNL1       -0.2990
     27  C         26.0760  -23.1650  -15.1220 C.3     1  UNL1        0.1340
     28  C         25.9880  -20.8700  -14.2160 C.2     1  UNL1        0.0450
     29  C         26.3480  -22.7250  -16.5570 C.3     1  UNL1        0.0210
     30  C         25.2230  -21.8450  -17.0790 C.3     1  UNL1        0.0060
     31  C         25.4170  -20.3780  -16.7030 C.3     1  UNL1        0.0410
     32  C         26.0070  -20.0370  -15.3490 C.2     1  UNL1       -0.0310
     33  C         26.5530  -18.7410  -15.2210 C.2     1  UNL1        0.0090
     34  C         27.0870  -18.2870  -14.0160 C.2     1  UNL1        0.0010
     35  C         27.0830  -19.1200  -12.9080 C.2     1  UNL1        0.0020
     36  C         26.5370  -20.3980  -13.0070 C.2     1  UNL1        0.0300
     37  H         23.8890  -20.8820  -12.9590 H       1  UNL1        0.1700
@<TRIPOS>BOND
     1    30    31    1
     2    30    29    1
     3    31    32    1
     4    29    27    1
     5    32    33    1
     6    32    28    2
     7    33    34    2
     8    27    26    1
     9    26    28    1
    10    26    24   am
    11    28    36    1
    12    34    35    1
    13    24    25    2
    14    24    23   am
    15    36    35    2
    16    37    23    1
    17    23     5    1
    18     6     5    1
    19     6     1    2
    20     5     4    2
    21     9     8    1
    22     8     7   am
    23     8    11    1
    24     7     1    1
    25     7    10    2
    26    11    12    1
    27     1     2    1
    28     4     3    1
    29     2     3    2
    30    12    17    2
    31    12    13    1
    32    17    16    1
    33    13    14    2
    34    16    15    2
    35    14    15    1
    36    14    18    1
    37    15    21    1
    38    19    18    1
    39    19    20    1
    40    21    22    1
