@<TRIPOS>MOLECULE
12668_out_ligand_01.pdbqt
 30 32 0 0 0
SMALL
GASTEIGER

@<TRIPOS>ATOM
      1  C         18.9420  -22.0380  -10.9060 C.2     1  UNL1        0.0450
      2  C         19.1880  -21.2590  -12.0340 C.2     1  UNL1        0.0370
      3  C         20.4820  -21.1970  -12.4920 C.2     1  UNL1        0.1180
      4  N         21.5100  -21.8460  -11.9100 N.2     1  UNL1       -0.2580
      5  C         21.2670  -22.6320  -10.8310 C.2     1  UNL1        0.0940
      6  C         22.3400  -23.3270  -10.2450 C.2     1  UNL1        0.0640
      7  C         22.1410  -24.1680   -9.1480 C.2     1  UNL1        0.0320
      8  C         20.8660  -24.3370   -8.6230 C.2     1  UNL1        0.0030
      9  C         19.7910  -23.6540   -9.1860 C.2     1  UNL1        0.0150
     10  C         19.9750  -22.7780  -10.2830 C.2     1  UNL1        0.0110
     11  C         17.5470  -22.0300  -10.4100 C.2     1  UNL1        0.2530
     12  N         17.0990  -23.2230   -9.8960 N.am    1  UNL1       -0.3490
     13  H         17.7460  -23.9960   -9.7990 H       1  UNL1        0.1630
     14  O         16.9020  -20.9900  -10.4190 O.2     1  UNL1       -0.2680
     15  C         15.7810  -23.3620   -9.2980 C.3     1  UNL1        0.1140
     16  C         15.0590  -24.6080   -9.8190 C.3     1  UNL1        0.0370
     17  C         15.9100  -23.3600   -7.7850 C.2     1  UNL1       -0.0360
     18  C         15.1720  -22.4800   -6.9790 C.2     1  UNL1        0.0120
     19  C         15.2870  -22.5120   -5.5840 C.2     1  UNL1        0.0370
     20  C         16.1380  -23.4290   -4.9710 C.2     1  UNL1        0.0680
     21  C         16.8670  -24.3160   -5.7660 C.2     1  UNL1        0.0370
     22  C         16.7540  -24.2870   -7.1580 C.2     1  UNL1        0.0120
     23  O         16.3420  -23.5680   -3.6260 O.2     1  UNL1       -0.3520
     24  C         17.6800  -23.4250   -3.1530 C.3     1  UNL1        0.1710
     25  C         18.0320  -21.9490   -3.1850 C.3     1  UNL1        0.0340
     26  N         23.6090  -23.1200  -10.8430 N.am    1  UNL1       -0.3250
     27  C         24.4730  -22.0620  -10.6820 C.2     1  UNL1        0.2180
     28  C         25.7330  -22.2180  -11.4970 C.3     1  UNL1        0.1170
     29  O         24.2890  -21.0630   -9.9940 O.2     1  UNL1       -0.2740
     30  H         23.8690  -23.8730  -11.4780 H       1  UNL1        0.1690
@<TRIPOS>BOND
     1     3     2    1
     2     3     4    2
     3     2     1    2
     4     4     5    1
     5    28    27    1
     6    30    26    1
     7     1    11    1
     8     1    10    1
     9    26    27   am
    10    26     6    1
    11     5    10    2
    12     5     6    1
    13    27    29    2
    14    14    11    2
    15    11    12   am
    16    10     9    1
    17     6     7    2
    18    12    13    1
    19    12    15    1
    20    16    15    1
    21    15    17    1
    22     9     8    2
    23     7     8    1
    24    17    22    2
    25    17    18    1
    26    22    21    1
    27    18    19    2
    28    21    20    2
    29    19    20    1
    30    20    23    1
    31    23    24    1
    32    25    24    1
