@<TRIPOS>MOLECULE
12663_out_ligand_01.pdbqt
 33 36 0 0 0
SMALL
GASTEIGER

@<TRIPOS>ATOM
      1  C         22.0210  -21.8830  -11.6190 C.2     1  UNL1        0.0360
      2  C         21.7650  -22.8460  -10.6430 C.2     1  UNL1        0.0300
      3  C         20.4740  -23.0100  -10.1280 C.2     1  UNL1        0.0190
      4  C         19.4180  -22.2220  -10.5960 C.2     1  UNL1        0.0320
      5  C         19.6690  -21.2480  -11.5680 C.2     1  UNL1        0.0190
      6  C         20.9620  -21.0860  -12.0780 C.2     1  UNL1        0.0300
      7  N         23.2870  -21.6640  -12.2000 N.am    1  UNL1       -0.3090
      8  C         24.4890  -21.4470  -11.5580 C.2     1  UNL1        0.3270
      9  N         25.5970  -21.3410  -12.4130 N.am    1  UNL1       -0.2960
     10  O         24.6040  -21.2740  -10.3470 O.2     1  UNL1       -0.2460
     11  C         26.7160  -20.5130  -11.9610 C.3     1  UNL1        0.1440
     12  C         25.6330  -21.7270  -13.7900 C.2     1  UNL1        0.0800
     13  C         26.6420  -19.1400  -12.6050 C.3     1  UNL1        0.1010
     14  S         26.8600  -19.2450  -14.4080 S.3     1  UNL1       -0.1060
     15  C         26.1660  -20.8570  -14.7610 C.2     1  UNL1        0.1210
     16  N         26.1830  -21.1520  -16.0850 N.2     1  UNL1       -0.2440
     17  C         25.6950  -22.3420  -16.4870 C.2     1  UNL1        0.0320
     18  C         25.7310  -22.6400  -17.9560 C.3     1  UNL1        0.0700
     19  C         25.2020  -23.2810  -15.5920 C.2     1  UNL1        0.0350
     20  C         25.1940  -22.9960  -14.2190 C.2     1  UNL1       -0.0300
     21  C         24.7690  -24.1030  -13.2900 C.3     1  UNL1        0.0500
     22  H         23.2960  -21.5180  -13.1990 H       1  UNL1        0.1700
     23  C         18.0640  -22.4340  -10.0180 C.2     1  UNL1        0.2520
     24  O         17.0680  -22.0930  -10.6470 O.2     1  UNL1       -0.2680
     25  N         18.0180  -22.9940   -8.7580 N.am    1  UNL1       -0.3520
     26  H         18.8780  -23.2080   -8.2750 H       1  UNL1        0.1630
     27  C         16.7550  -23.3300   -8.1060 C.3     1  UNL1        0.0840
     28  C         16.8650  -24.6370   -7.3020 C.3     1  UNL1        0.0250
     29  C         17.9440  -24.6350   -6.2210 C.3     1  UNL1        0.0020
     30  C         17.5130  -24.0610   -4.8750 C.3     1  UNL1        0.0000
     31  C         16.6200  -22.8250   -4.8980 C.3     1  UNL1        0.0000
     32  C         16.9380  -21.8170   -5.9960 C.3     1  UNL1        0.0020
     33  C         16.2240  -22.1310   -7.3110 C.3     1  UNL1        0.0250
@<TRIPOS>BOND
     1    18    17    1
     2    17    16    2
     3    17    19    1
     4    16    15    1
     5    19    20    2
     6    15    14    1
     7    15    12    2
     8    14    13    1
     9    20    12    1
    10    20    21    1
    11    12     9    1
    12    22     7    1
    13    13    11    1
    14     9    11    1
    15     9     8   am
    16     7     1    1
    17     7     8   am
    18     6     1    2
    19     6     5    1
    20     1     2    1
    21     5     4    2
    22     8    10    2
    23    24    23    2
    24     2     3    2
    25     4     3    1
    26     4    23    1
    27    23    25   am
    28    25    26    1
    29    25    27    1
    30    27    33    1
    31    27    28    1
    32    33    32    1
    33    28    29    1
    34    29    30    1
    35    32    31    1
    36    31    30    1
