@<TRIPOS>MOLECULE
12660_out_ligand_01.pdbqt
 37 41 0 0 0
SMALL
GASTEIGER

@<TRIPOS>ATOM
      1  C         16.3310  -21.7560   -9.8730 C.3     1  UNL1        0.1210
      2  S         15.7940  -23.4030   -9.3230 S.3     1  UNL1       -0.0870
      3  C         15.9420  -23.2250   -7.6080 C.ar    1  UNL1        0.1700
      4  N         16.9340  -23.8090   -6.8610 N.ar    1  UNL1       -0.3190
      5  C         16.7140  -23.4540   -5.5450 C.ar    1  UNL1        0.0830
      6  C         17.3670  -23.7280   -4.3510 C.2     1  UNL1        0.1480
      7  C         15.5750  -22.6550   -5.5860 C.ar    1  UNL1        0.0890
      8  N         16.8790  -23.1970   -3.2060 N.2     1  UNL1       -0.2710
      9  C         15.7700  -22.4200   -3.2540 C.2     1  UNL1        0.1180
     10  C         15.0710  -22.1090   -4.4070 C.2     1  UNL1        0.0530
     11  N         15.1100  -22.5320   -6.8690 N.ar    1  UNL1       -0.2220
     12  C         18.0060  -24.6720   -7.3350 C.3     1  UNL1        0.1700
     13  C         19.2670  -23.9050   -7.6540 C.2     1  UNL1       -0.0400
     14  C         20.3120  -24.4870   -8.3870 C.2     1  UNL1        0.0090
     15  C         21.4720  -23.7620   -8.6720 C.2     1  UNL1        0.0070
     16  C         21.6040  -22.4360   -8.2470 C.2     1  UNL1       -0.0620
     17  C         22.8620  -21.6660   -8.5260 C.3     1  UNL1        0.0480
     18  C         20.5660  -21.8510   -7.5170 C.2     1  UNL1        0.0070
     19  C         19.4050  -22.5740   -7.2300 C.2     1  UNL1        0.0090
     20  C         17.6980  -21.7310  -10.5140 C.2     1  UNL1       -0.0480
     21  C         18.3150  -20.5170  -10.8520 C.2     1  UNL1        0.0090
     22  C         19.5860  -20.4990  -11.4350 C.2     1  UNL1        0.0170
     23  C         20.2540  -21.7000  -11.7060 C.2     1  UNL1        0.0320
     24  C         19.6450  -22.9130  -11.3620 C.2     1  UNL1        0.0170
     25  C         18.3790  -22.9280  -10.7730 C.2     1  UNL1        0.0090
     26  C         21.6150  -21.7430  -12.3190 C.2     1  UNL1        0.2510
     27  O         21.9350  -20.9220  -13.1720 O.2     1  UNL1       -0.2680
     28  N         22.4760  -22.7180  -11.8560 N.am    1  UNL1       -0.3570
     29  H         22.2390  -23.2420  -11.0250 H       1  UNL1        0.1620
     30  C         23.8350  -22.8280  -12.3540 C.3     1  UNL1        0.1270
     31  C         24.8270  -22.0230  -11.5090 C.3     1  UNL1        0.0530
     32  C         25.5160  -20.9330  -12.3000 C.2     1  UNL1       -0.0820
     33  C         26.2470  -19.9800  -11.6930 C.2     1  UNL1       -0.0240
     34  C         26.9930  -18.9030  -12.4260 C.3     1  UNL1        0.0270
     35  C         27.1200  -19.1710  -13.9260 C.3     1  UNL1        0.0040
     36  C         25.8120  -19.6950  -14.5040 C.3     1  UNL1        0.0050
     37  C         25.3700  -20.9830  -13.8040 C.3     1  UNL1        0.0340
@<TRIPOS>BOND
     1    36    35    1
     2    36    37    1
     3    35    34    1
     4    37    32    1
     5    27    26    2
     6    34    33    1
     7    30    28    1
     8    30    31    1
     9    26    28   am
    10    26    23    1
    11    32    33    2
    12    32    31    1
    13    28    29    1
    14    23    22    2
    15    23    24    1
    16    22    21    1
    17    24    25    2
    18    21    20    2
    19    25    20    1
    20    20     1    1
    21     1     2    1
    22     2     3    1
    23    15    14    1
    24    15    16    2
    25    17    16    1
    26    14    13    2
    27    16    18    1
    28    13    12    1
    29    13    19    1
    30     3    11   ar
    31     3     4   ar
    32    18    19    2
    33    12     4    1
    34    11     7   ar
    35     4     5   ar
    36     7     5   ar
    37     7    10    1
    38     5     6    1
    39    10     9    2
    40     6     8    2
    41     9     8    1
