@<TRIPOS>MOLECULE
12666_out_ligand_01.pdbqt
 29 32 0 0 0
SMALL
GASTEIGER

@<TRIPOS>ATOM
      1  C         17.5140  -21.4710  -10.8140 C.ar    1  UNL1        0.1580
      2  N         17.3530  -20.5390  -11.7620 N.ar    1  UNL1       -0.1110
      3  O         18.6080  -20.4860  -12.3690 O.2     1  UNL1       -0.1890
      4  C         19.4070  -21.3940  -11.7190 C.ar    1  UNL1        0.2230
      5  C         20.7710  -21.6330  -12.0590 C.2     1  UNL1        0.0890
      6  C         21.6660  -22.5450  -11.5410 C.2     1  UNL1        0.0480
      7  C         22.9050  -22.3810  -12.2210 C.2     1  UNL1       -0.0050
      8  C         24.1610  -23.0110  -12.1320 C.2     1  UNL1        0.0370
      9  C         25.1900  -22.5850  -12.9760 C.2     1  UNL1        0.0350
     10 CL         26.7330  -23.3430  -12.8750 Cl      1  UNL1       -0.0840
     11  C         24.9910  -21.5580  -13.8970 C.2     1  UNL1        0.0260
     12  C         23.7500  -20.9210  -14.0030 C.2     1  UNL1        0.0320
     13  C         22.7280  -21.3560  -13.1510 C.2     1  UNL1        0.0430
     14  N         21.4250  -20.9220  -13.0340 N.pl3   1  UNL1       -0.3520
     15  N         18.7680  -22.0190  -10.7520 N.ar    1  UNL1       -0.2030
     16  H         21.0170  -20.1800  -13.5860 H       1  UNL1        0.1660
     17  C         16.4290  -21.8570   -9.8810 C.3     1  UNL1        0.1030
     18  C         16.7790  -23.0610   -9.0010 C.3     1  UNL1        0.1330
     19  N         16.9300  -22.7480   -7.5680 N.am    1  UNL1       -0.3520
     20  C         15.7080  -22.5000   -6.8170 C.3     1  UNL1        0.1520
     21  C         18.0630  -23.0790   -6.8170 C.2     1  UNL1        0.2530
     22  O         18.0710  -23.1610   -5.5910 O.2     1  UNL1       -0.2670
     23  C         19.3340  -23.3470   -7.5170 C.2     1  UNL1        0.0330
     24  C         19.5270  -24.5970   -8.1160 C.2     1  UNL1        0.0170
     25  C         20.7320  -24.8760   -8.7610 C.2     1  UNL1        0.0030
     26  C         21.7430  -23.9120   -8.7920 C.2     1  UNL1        0.0240
     27  C         21.5500  -22.6780   -8.1680 C.2     1  UNL1        0.0350
     28 CL         22.8050  -21.5010   -8.2000 Cl      1  UNL1       -0.0840
     29  C         20.3530  -22.3890   -7.5190 C.2     1  UNL1        0.0410
@<TRIPOS>BOND
     1    12    11    2
     2    12    13    1
     3    11     9    1
     4    16    14    1
     5    13    14    1
     6    13     7    2
     7    14     5    1
     8     9    10    1
     9     9     8    2
    10     3     2   ar
    11     3     4   ar
    12     7     8    1
    13     7     6    1
    14     5     4    1
    15     5     6    2
    16     2     1   ar
    17     4    15   ar
    18     1    15   ar
    19     1    17    1
    20    17    18    1
    21    18    19    1
    22    26    25    2
    23    26    27    1
    24    25    24    1
    25    28    27    1
    26    27    29    2
    27    24    23    2
    28    19    20    1
    29    19    21   am
    30    29    23    1
    31    23    21    1
    32    21    22    2
