@<TRIPOS>MOLECULE
12678_out_ligand_01.pdbqt
 32 35 0 0 0
SMALL
GASTEIGER

@<TRIPOS>ATOM
      1  C         23.1790  -22.2330  -11.8880 C.ar    1  UNL1        0.1890
      2  N         23.2400  -23.0120  -10.8250 N.ar    1  UNL1       -0.1360
      3  N         21.9960  -23.2210  -10.2690 N.ar    1  UNL1       -0.1460
      4  C         21.0380  -22.5950  -10.9250 C.ar    1  UNL1        0.1050
      5  S         21.6030  -21.6980  -12.2840 S.2     1  UNL1       -0.0450
      6  C         19.5890  -22.6500  -10.5300 C.3     1  UNL1        0.0650
      7  C         18.7030  -21.7550  -11.4120 C.3     1  UNL1        0.0150
      8  C         17.4010  -21.3540  -10.7160 C.3     1  UNL1        0.0210
      9  C         16.9400  -22.4120   -9.7180 C.3     1  UNL1        0.1350
     10  N         17.9510  -22.5770   -8.6490 N.3     1  UNL1       -0.3060
     11  C         19.3720  -22.3650   -9.0400 C.3     1  UNL1        0.1470
     12  S         17.6160  -23.7040   -7.4250 S.O2    1  UNL1        0.2610
     13  O         18.6020  -24.7600   -7.5010 O.2     1  UNL1       -0.2000
     14  O         16.1980  -23.9930   -7.4550 O.2     1  UNL1       -0.2000
     15  C         17.9400  -22.7830   -5.9360 C.2     1  UNL1        0.0820
     16  C         17.5680  -23.3160   -4.6960 C.2     1  UNL1        0.0250
     17  C         17.8040  -22.5850   -3.5300 C.2     1  UNL1        0.0050
     18  C         18.3920  -21.3220   -3.6100 C.2     1  UNL1        0.0420
     19  C         18.7300  -20.7950   -4.8540 C.2     1  UNL1        0.1170
     20  F         19.2790  -19.5760   -4.9230 F       1  UNL1       -0.2060
     21  C         18.5030  -21.5080   -6.0230 C.2     1  UNL1        0.0670
     22  C         24.3520  -21.8570  -12.6650 C.2     1  UNL1        0.2830
     23  O         25.4910  -22.2170  -12.3810 O.2     1  UNL1       -0.2650
     24  N         24.0250  -21.0510  -13.7490 N.am    1  UNL1       -0.3210
     25  H         23.0310  -20.8490  -13.8420 H       1  UNL1        0.1690
     26  C         24.8800  -20.4930  -14.7190 C.2     1  UNL1        0.0370
     27  C         25.0580  -21.0180  -16.0030 C.2     1  UNL1        0.0290
     28  C         25.9300  -20.4020  -16.9100 C.2     1  UNL1        0.0050
     29  C         26.6300  -19.2570  -16.5400 C.2     1  UNL1        0.0420
     30  C         26.4510  -18.7380  -15.2650 C.2     1  UNL1        0.1180
     31  F         27.1210  -17.6360  -14.9020 F       1  UNL1       -0.2060
     32  C         25.5870  -19.3420  -14.3560 C.2     1  UNL1        0.0710
@<TRIPOS>BOND
     1    28    29    2
     2    28    27    1
     3    29    30    1
     4    27    26    2
     5    30    31    1
     6    30    32    2
     7    26    32    1
     8    26    24    1
     9    25    24    1
    10    24    22   am
    11    22    23    2
    12    22     1    1
    13     5     1   ar
    14     5     4   ar
    15     1     2   ar
    16     7     8    1
    17     7     6    1
    18     4     6    1
    19     4     3   ar
    20     2     3   ar
    21     8     9    1
    22     6    11    1
    23     9    10    1
    24    11    10    1
    25    10    12    1
    26    13    12    2
    27    14    12    2
    28    12    15    1
    29    21    15    2
    30    21    19    1
    31    15    16    1
    32    20    19    1
    33    19    18    2
    34    16    17    2
    35    18    17    1
