@<TRIPOS>MOLECULE
12673_out_ligand_01.pdbqt
 34 37 0 0 0
SMALL
GASTEIGER

@<TRIPOS>ATOM
      1  C         23.6000  -22.1050  -10.8130 C.ar    1  UNL1        0.1710
      2  N         22.6550  -21.4250  -11.3680 N.ar    1  UNL1       -0.2060
      3  C         21.3840  -21.8510  -11.1230 C.ar    1  UNL1        0.1450
      4  C         21.0490  -22.8930  -10.3550 C.ar    1  UNL1        0.0700
      5  C         22.1520  -23.6720   -9.7650 C.ar    1  UNL1        0.2580
      6  O         21.9600  -24.6850   -9.1060 O.2     1  UNL1       -0.2670
      7  N         23.3970  -23.1880  -10.0200 N.ar    1  UNL1       -0.3020
      8  C         19.6280  -23.2630  -10.0700 C.3     1  UNL1        0.1290
      9  C         18.6350  -22.6840  -11.0810 C.3     1  UNL1        0.1220
     10  C         19.0660  -21.3620  -11.6770 C.2     1  UNL1        0.2240
     11  O         18.2630  -20.5780  -12.1740 O.2     1  UNL1       -0.2730
     12  N         20.4050  -21.0940  -11.6890 N.am    1  UNL1       -0.3110
     13  H         24.1890  -23.6830   -9.6370 H       1  UNL1        0.1710
     14  H         20.6960  -20.2650  -12.1930 H       1  UNL1        0.1700
     15  C         19.2470  -22.8510   -8.6400 C.2     1  UNL1        0.2310
     16  O         19.9700  -22.0790   -8.0160 O.2     1  UNL1       -0.2720
     17  N         18.0890  -23.4440   -8.1580 N.am    1  UNL1       -0.3270
     18  H         17.6050  -24.0980   -8.7590 H       1  UNL1        0.1690
     19  C         17.4890  -23.2520   -6.8950 C.2     1  UNL1        0.0340
     20  C         16.2760  -22.5500   -6.8680 C.2     1  UNL1        0.0300
     21  C         15.6140  -22.3130   -5.6590 C.2     1  UNL1        0.0090
     22  C         16.1470  -22.7820   -4.4560 C.2     1  UNL1       -0.0620
     23  C         15.4550  -22.5020   -3.1550 C.3     1  UNL1        0.0480
     24  C         17.3640  -23.4680   -4.4810 C.2     1  UNL1        0.0090
     25  C         18.0270  -23.7050   -5.6920 C.2     1  UNL1        0.0300
     26  S         25.2830  -21.7360  -10.9950 S.3     1  UNL1       -0.0870
     27  C         25.8650  -23.2490  -11.8090 C.3     1  UNL1        0.1210
     28  C         25.5140  -23.2520  -13.2770 C.2     1  UNL1       -0.0490
     29  C         25.4640  -24.4540  -13.9960 C.2     1  UNL1        0.0080
     30  C         25.1250  -24.4580  -15.3510 C.2     1  UNL1        0.0070
     31  C         24.8130  -23.2630  -16.0080 C.2     1  UNL1       -0.0620
     32  C         24.4770  -23.2620  -17.4700 C.3     1  UNL1        0.0480
     33  C         24.8670  -22.0610  -15.2940 C.2     1  UNL1        0.0070
     34  C         25.2070  -22.0560  -13.9390 C.2     1  UNL1        0.0080
@<TRIPOS>BOND
     1    32    31    1
     2    31    30    2
     3    31    33    1
     4    30    29    1
     5    33    34    2
     6    29    28    2
     7    34    28    1
     8    28    27    1
     9    14    12    1
    10    11    10    2
    11    27    26    1
    12    12    10   am
    13    12     3    1
    14    10     9    1
    15     2     3   ar
    16     2     1   ar
    17     3     4   ar
    18     9     8    1
    19    26     1    1
    20     1     7   ar
    21     4     8    1
    22     4     5   ar
    23     8    15    1
    24     7     5   ar
    25     7    13    1
    26     5     6    2
    27    18    17    1
    28    15    17   am
    29    15    16    2
    30    17    19    1
    31    19    20    2
    32    19    25    1
    33    20    21    1
    34    25    24    2
    35    21    22    2
    36    24    22    1
    37    22    23    1
