@<TRIPOS>MOLECULE
12712_out_ligand_01.pdbqt
 31 34 0 0 0
SMALL
GASTEIGER

@<TRIPOS>ATOM
      1  C         20.6890  -22.5360   -7.6860 C.2     1  UNL1        0.0320
      2  C         21.7720  -21.6470   -7.7160 C.2     1  UNL1        0.0170
      3  C         22.8420  -21.8770   -8.5840 C.2     1  UNL1        0.0100
      4  C         22.8510  -23.0000   -9.4250 C.2     1  UNL1       -0.0300
      5  C         21.7710  -23.8940   -9.3770 C.2     1  UNL1        0.0100
      6  C         20.7010  -23.6670   -8.5090 C.2     1  UNL1        0.0170
      7  C         19.5240  -22.3320   -6.7760 C.2     1  UNL1        0.2560
      8  O         19.4300  -21.2630   -6.1860 O.2     1  UNL1       -0.2670
      9  N         18.6750  -23.4210   -6.6640 N.am    1  UNL1       -0.3220
     10  H         18.9880  -24.2700   -7.1240 H       1  UNL1        0.1690
     11  C         17.4740  -23.5200   -5.9170 C.2     1  UNL1        0.0500
     12  C         17.4690  -23.4740   -4.5150 C.2     1  UNL1        0.0300
     13  C         16.2790  -23.5700   -3.7870 C.2     1  UNL1        0.0020
     14  C         15.0670  -23.7110   -4.4470 C.2     1  UNL1        0.0010
     15  C         15.0460  -23.7520   -5.8370 C.2     1  UNL1        0.0180
     16  C         16.2390  -23.6530   -6.5880 C.2     1  UNL1        0.0740
     17  C         16.1050  -23.7180   -8.0890 C.3     1  UNL1        0.4190
     18  F         15.4260  -24.8250   -8.5070 F       1  UNL1       -0.1660
     19  F         17.2980  -23.7450   -8.7560 F       1  UNL1       -0.1660
     20  F         15.4260  -22.6500   -8.6050 F       1  UNL1       -0.1660
     21  C         24.0120  -23.2470  -10.3680 C.3     1  UNL1        0.3110
     22  N         24.7570  -22.0220  -10.6990 N.3     1  UNL1        0.0970
     23  C         26.2050  -22.2690  -10.8010 C.3     1  UNL1        0.2770
     24  C         26.6150  -23.2000  -11.9560 C.3     1  UNL1        0.0690
     25  C         25.8620  -22.9200  -13.2330 C.2     1  UNL1       -0.0490
     26  C         26.2610  -23.5310  -14.4280 C.2     1  UNL1        0.0070
     27  C         24.7220  -22.0940  -13.2170 C.2     1  UNL1       -0.0240
     28  C         25.5470  -23.3100  -15.6050 C.2     1  UNL1        0.0010
     29  C         24.4280  -22.4800  -15.5960 C.2     1  UNL1        0.0010
     30  C         24.0190  -21.8720  -14.4090 C.2     1  UNL1        0.0090
     31  C         24.2920  -21.3900  -11.9470 C.3     1  UNL1        0.3110
@<TRIPOS>BOND
     1    28    29    2
     2    28    26    1
     3    29    30    1
     4    26    25    2
     5    30    27    2
     6    25    27    1
     7    25    24    1
     8    27    31    1
     9    24    23    1
    10    31    22    1
    11    23    22    1
    12    22    21    1
    13    21     4    1
    14     4     5    2
    15     4     3    1
    16     5     6    1
    17    19    17    1
    18    20    17    1
    19     3     2    2
    20     6     1    2
    21    18    17    1
    22    17    16    1
    23     2     1    1
    24     1     7    1
    25    10     9    1
    26     7     9   am
    27     7     8    2
    28     9    11    1
    29    16    11    2
    30    16    15    1
    31    11    12    1
    32    15    14    2
    33    12    13    2
    34    14    13    1
