@<TRIPOS>MOLECULE
12742_out_ligand_01.pdbqt
 33 35 0 0 0
SMALL
GASTEIGER

@<TRIPOS>ATOM
      1  C         20.9440  -21.7270   -7.8390 C.2     1  UNL1        0.0390
      2  C         21.5220  -22.6050   -8.6850 C.2     1  UNL1        0.1130
      3  C         21.1520  -23.9770   -8.7760 C.1     1  UNL1        0.1050
      4  N         20.8450  -25.0950   -8.8050 N.1     1  UNL1       -0.1910
      5  C         22.5250  -22.1020   -9.6740 C.2     1  UNL1        0.2660
      6  O         23.1690  -21.0950   -9.4140 O.2     1  UNL1       -0.2670
      7  N         22.5930  -22.8640  -10.8290 N.am    1  UNL1       -0.3220
      8  H         21.9490  -23.6400  -10.9050 H       1  UNL1        0.1690
      9  C         23.4540  -22.6830  -11.9400 C.2     1  UNL1        0.0410
     10  C         24.7080  -23.2930  -12.0250 C.2     1  UNL1        0.0300
     11  C         25.5280  -23.1070  -13.1440 C.2     1  UNL1        0.0090
     12  C         25.1160  -22.2930  -14.1980 C.2     1  UNL1       -0.0610
     13  C         25.9820  -22.1280  -15.4120 C.3     1  UNL1        0.0480
     14  C         23.8600  -21.6850  -14.1260 C.2     1  UNL1        0.0150
     15  C         23.0220  -21.8650  -13.0090 C.2     1  UNL1       -0.0350
     16  C         21.6830  -21.1760  -13.0110 C.3     1  UNL1        0.0500
     17  C         19.9090  -22.0470   -6.8470 C.2     1  UNL1       -0.0340
     18  C         19.6060  -21.1060   -5.8570 C.2     1  UNL1        0.0140
     19  C         18.6470  -21.3860   -4.8820 C.2     1  UNL1        0.0390
     20  C         17.9810  -22.6080   -4.9020 C.2     1  UNL1        0.0890
     21  C         18.2970  -23.5680   -5.8600 C.2     1  UNL1        0.0390
     22  C         19.2570  -23.2870   -6.8350 C.2     1  UNL1        0.0140
     23  O         17.0590  -22.9310   -3.9430 O.2     1  UNL1       -0.2290
     24  S         15.4970  -23.1790   -4.3650 S.3     1  UNL1        0.3030
     25  O         14.6990  -22.0180   -4.0110 O.3     1  UNL1       -0.1930
     26  O         15.1110  -24.4910   -3.8730 O.3     1  UNL1       -0.1930
     27  C         15.5320  -23.2870   -6.1450 C.2     1  UNL1        0.0860
     28  C         15.5620  -24.5390   -6.7630 C.2     1  UNL1        0.0260
     29  C         15.6140  -24.6160   -8.1560 C.2     1  UNL1        0.0080
     30  C         15.6390  -23.4490   -8.9320 C.2     1  UNL1       -0.0620
     31  C         15.7410  -23.5300  -10.4280 C.3     1  UNL1        0.0480
     32  C         15.6290  -22.1990   -8.2980 C.2     1  UNL1        0.0080
     33  C         15.5750  -22.1140   -6.9050 C.2     1  UNL1        0.0260
@<TRIPOS>BOND
     1    13    12    1
     2    12    14    2
     3    12    11    1
     4    14    15    1
     5    11    10    2
     6    16    15    1
     7    15     9    2
     8    10     9    1
     9     9     7    1
    10     8     7    1
    11     7     5   am
    12    31    30    1
    13     5     6    2
    14     5     2    1
    15    30    32    2
    16    30    29    1
    17     4     3    3
    18     3     2    1
    19     2     1    2
    20    32    33    1
    21    29    28    2
    22     1    17    1
    23    33    27    2
    24    17    22    2
    25    17    18    1
    26    22    21    1
    27    28    27    1
    28    27    24    1
    29    21    20    2
    30    18    19    2
    31    20    19    1
    32    20    23    1
    33    24    25    1
    34    24    23    1
    35    24    26    1
