@<TRIPOS>MOLECULE
12775_out_ligand_01.pdbqt
 34 37 0 0 0
SMALL
GASTEIGER

@<TRIPOS>ATOM
      1  C         19.5960  -22.2670  -10.2820 C.2     1  UNL1       -0.0140
      2  C         20.7480  -23.0170  -10.0080 C.2     1  UNL1        0.0130
      3  C         20.6990  -24.0650   -9.0880 C.2     1  UNL1        0.0040
      4  C         19.4970  -24.3710   -8.4550 C.2     1  UNL1        0.0370
      5  C         18.3480  -23.6290   -8.7530 C.2     1  UNL1        0.0800
      6  C         18.3810  -22.5820   -9.6740 C.2     1  UNL1        0.0500
      7  C         19.6280  -21.2240  -11.3270 C.2     1  UNL1        0.1500
      8  N         20.4340  -21.1410  -12.3440 N.2     1  UNL1       -0.1830
      9  N         21.5400  -21.9330  -12.3120 N.am    1  UNL1       -0.2430
     10  C         22.6720  -21.5880  -13.0350 C.2     1  UNL1        0.2740
     11  O         22.6390  -20.9000  -14.0590 O.2     1  UNL1       -0.2660
     12  H         21.6720  -22.4360  -11.4370 H       1  UNL1        0.1920
     13  C         23.9750  -22.1700  -12.5610 C.2     1  UNL1        0.0680
     14  C         24.6510  -23.0100  -13.4690 C.2     1  UNL1        0.0390
     15  C         25.8990  -23.5410  -13.1520 C.2     1  UNL1        0.0120
     16  C         26.4860  -23.2770  -11.9140 C.2     1  UNL1        0.0220
     17 BR         26.8050  -24.6390  -14.4060 Br      1  UNL1       -0.0510
     18  C         25.8170  -22.4700  -10.9840 C.2     1  UNL1        0.0390
     19  C         24.5730  -21.8930  -11.3050 C.2     1  UNL1        0.0840
     20  O         23.8900  -21.0770  -10.4330 O.2     1  UNL1       -0.3550
     21  C         23.4360  -21.6770   -9.2190 C.3     1  UNL1        0.2100
     22  O         17.1540  -24.0900   -8.1780 O.3     1  UNL1       -0.2750
     23  C         16.1810  -23.1830   -7.7920 C.2     1  UNL1        0.2990
     24  O         15.5350  -22.4270   -8.5000 O.2     1  UNL1       -0.2590
     25  C         16.1110  -23.1960   -6.3160 C.2     1  UNL1        0.0510
     26  C         15.0820  -23.9740   -5.7580 C.2     1  UNL1        0.0180
     27  C         14.9130  -24.0180   -4.3790 C.2     1  UNL1        0.0020
     28  C         15.7730  -23.2920   -3.5550 C.2     1  UNL1        0.0120
     29  C         16.8240  -22.5260   -4.0920 C.2     1  UNL1       -0.0250
     30  C         17.6850  -21.8190   -3.2350 C.2     1  UNL1        0.0120
     31  C         17.0210  -22.4750   -5.4960 C.2     1  UNL1       -0.0100
     32  C         18.7500  -21.0720   -3.7420 C.2     1  UNL1        0.0010
     33  C         18.9750  -21.0270   -5.1160 C.2     1  UNL1        0.0010
     34  C         18.1240  -21.7200   -5.9790 C.2     1  UNL1        0.0130
@<TRIPOS>BOND
     1    17    15    1
     2    11    10    2
     3    14    15    1
     4    14    13    2
     5    15    16    2
     6    10    13    1
     7    10     9   am
     8    13    19    1
     9     8     9    1
    10     8     7    2
    11     9    12    1
    12    16    18    1
    13     7     1    1
    14    19    18    2
    15    19    20    1
    16    20    21    1
    17     1     2    2
    18     1     6    1
    19     2     3    1
    20     6     5    2
    21     3     4    2
    22     5     4    1
    23     5    22    1
    24    24    23    2
    25    22    23    1
    26    23    25    1
    27    25    26    2
    28    25    31    1
    29    34    31    1
    30    34    33    2
    31    26    27    1
    32    31    29    2
    33    33    32    1
    34    27    28    2
    35    29    28    1
    36    29    30    1
    37    32    30    2
