@<TRIPOS>MOLECULE
12786_out_ligand_01.pdbqt
 29 32 0 0 0
SMALL
GASTEIGER

@<TRIPOS>ATOM
      1  C         22.7990  -22.4170   -9.5540 C.2     1  UNL1        0.0320
      2  C         21.8270  -23.3410   -9.9550 C.2     1  UNL1        0.0170
      3  C         20.6920  -23.5580   -9.1690 C.2     1  UNL1        0.0100
      4  C         20.5180  -22.8580   -7.9670 C.2     1  UNL1       -0.0300
      5  C         21.5040  -21.9470   -7.5600 C.2     1  UNL1        0.0100
      6  C         22.6390  -21.7280   -8.3450 C.2     1  UNL1        0.0170
      7  C         23.9880  -22.2150  -10.4280 C.2     1  UNL1        0.2510
      8  N         24.3510  -23.2850  -11.2180 N.am    1  UNL1       -0.3530
      9  H         23.9590  -24.1920  -11.0120 H       1  UNL1        0.1630
     10  O         24.6030  -21.1550  -10.3940 O.2     1  UNL1       -0.2680
     11  C         25.5690  -23.2690  -11.9960 C.3     1  UNL1        0.1610
     12  C         25.2620  -23.2730  -13.4710 C.2     1  UNL1       -0.0410
     13  C         24.7380  -22.1350  -14.1000 C.2     1  UNL1        0.0090
     14  C         24.4360  -22.1550  -15.4640 C.2     1  UNL1        0.0070
     15  C         24.6540  -23.3100  -16.2240 C.2     1  UNL1       -0.0620
     16  C         24.2970  -23.3400  -17.6800 C.3     1  UNL1        0.0480
     17  C         25.1550  -24.4530  -15.5930 C.2     1  UNL1        0.0070
     18  C         25.4580  -24.4350  -14.2290 C.2     1  UNL1        0.0090
     19  C         19.2890  -23.0940   -7.1110 C.3     1  UNL1        0.3110
     20  N         18.4640  -21.8850   -6.9530 N.3     1  UNL1        0.0970
     21  C         18.7090  -21.2140   -5.6650 C.3     1  UNL1        0.2770
     22  C         18.2980  -22.0330   -4.4310 C.3     1  UNL1        0.0690
     23  C         16.9730  -22.7320   -4.6050 C.2     1  UNL1       -0.0490
     24  C         16.3500  -23.3340   -3.5040 C.2     1  UNL1        0.0070
     25  C         16.3910  -22.8380   -5.8820 C.2     1  UNL1       -0.0240
     26  C         15.1450  -24.0190   -3.6640 C.2     1  UNL1        0.0010
     27  C         14.5580  -24.1120   -4.9240 C.2     1  UNL1        0.0010
     28  C         15.1740  -23.5210   -6.0270 C.2     1  UNL1        0.0090
     29  C         17.0210  -22.1640   -7.0820 C.3     1  UNL1        0.3110
@<TRIPOS>BOND
     1    16    15    1
     2    15    17    2
     3    15    14    1
     4    17    18    1
     5    14    13    2
     6    18    12    2
     7    13    12    1
     8    12    11    1
     9    11     8    1
    10     8     9    1
    11     8     7   am
    12     7    10    2
    13     7     1    1
    14     2     1    2
    15     2     3    1
    16     1     6    1
    17     3     4    2
    18     6     5    2
    19     4     5    1
    20     4    19    1
    21    19    20    1
    22    29    20    1
    23    29    25    1
    24    20    21    1
    25    28    25    1
    26    28    27    2
    27    25    23    2
    28    21    22    1
    29    27    26    1
    30    23    22    1
    31    23    24    1
    32    26    24    2
