@<TRIPOS>MOLECULE
127_out_ligand_01.pdbqt
 35 37 0 0 0
SMALL
GASTEIGER

@<TRIPOS>ATOM
      1  C         22.7720  -22.8850   -9.2510 C.2     1  UNL1       -0.0400
      2  C         22.2710  -21.9790   -8.3070 C.2     1  UNL1        0.0100
      3  C         21.0560  -22.2300   -7.6640 C.2     1  UNL1        0.0170
      4  C         20.3330  -23.3930   -7.9500 C.2     1  UNL1        0.0320
      5  C         20.8180  -24.2940   -8.9050 C.2     1  UNL1        0.0170
      6  C         22.0340  -24.0420   -9.5450 C.2     1  UNL1        0.0100
      7  C         24.0810  -22.6220   -9.9600 C.3     1  UNL1        0.1700
      8  N         24.0980  -23.2590  -11.2680 N.3     1  UNL1       -0.3110
      9  H         23.2710  -23.1900  -11.8560 H       1  UNL1        0.1720
     10  S         25.5450  -23.4280  -12.0840 S.O2    1  UNL1        0.2590
     11  O         25.3440  -24.4680  -13.0680 O.2     1  UNL1       -0.2010
     12  O         26.6060  -23.4960  -11.1060 O.2     1  UNL1       -0.2010
     13  C         25.6820  -21.8840  -12.9520 C.2     1  UNL1        0.0790
     14  C         24.7510  -21.5520  -13.9360 C.2     1  UNL1        0.0270
     15  C         24.8640  -20.3310  -14.6110 C.2     1  UNL1        0.0310
     16  C         25.8900  -19.4360  -14.2990 C.2     1  UNL1        0.0340
     17  C         26.8040  -19.7770  -13.2900 C.2     1  UNL1        0.0310
     18  C         26.7040  -20.9960  -12.6140 C.2     1  UNL1        0.0270
     19  N         26.0670  -18.1880  -14.9300 N.am    1  UNL1       -0.3280
     20  C         26.4640  -17.9540  -16.2330 C.2     1  UNL1        0.2180
     21  C         26.5180  -16.4820  -16.5620 C.3     1  UNL1        0.1170
     22  O         26.7810  -18.7930  -17.0690 O.2     1  UNL1       -0.2740
     23  H         25.8990  -17.3720  -14.3540 H       1  UNL1        0.1690
     24  C         19.0390  -23.6190   -7.2440 C.2     1  UNL1        0.2560
     25  O         18.4030  -24.6290   -7.5210 O.2     1  UNL1       -0.2670
     26  N         18.6780  -22.6140   -6.3630 N.am    1  UNL1       -0.3220
     27  H         19.2560  -21.7880   -6.3770 H       1  UNL1        0.1690
     28  C         17.5440  -22.5630   -5.5140 C.2     1  UNL1        0.0410
     29  C         17.6420  -22.8090   -4.1410 C.2     1  UNL1        0.0300
     30  C         16.5190  -22.7460   -3.3180 C.2     1  UNL1        0.0030
     31  C         15.2770  -22.4330   -3.8590 C.2     1  UNL1        0.0070
     32  C         15.1380  -22.1740   -5.2300 C.2     1  UNL1       -0.0540
     33  C         13.7660  -21.8380   -5.7510 C.3     1  UNL1        0.0490
     34  C         16.2780  -22.2370   -6.0720 C.2     1  UNL1       -0.0290
     35  C         16.1490  -21.9600   -7.5520 C.3     1  UNL1        0.0510
@<TRIPOS>BOND
     1    22    20    2
     2    21    20    1
     3    20    19   am
     4    19    23    1
     5    19    16    1
     6    15    16    2
     7    15    14    1
     8    16    17    1
     9    14    13    2
    10    17    18    2
    11    11    10    2
    12    13    18    1
    13    13    10    1
    14    10     8    1
    15    10    12    2
    16     9     8    1
    17     8     7    1
    18     7     1    1
    19     6     1    2
    20     6     5    1
    21     1     2    1
    22     5     4    2
    23     2     3    2
    24     4     3    1
    25     4    24    1
    26    35    34    1
    27    25    24    2
    28    24    26   am
    29    27    26    1
    30    26    28    1
    31    34    28    2
    32    34    32    1
    33    33    32    1
    34    28    29    1
    35    32    31    2
    36    29    30    2
    37    31    30    1
