@<TRIPOS>MOLECULE
12805_out_ligand_01.pdbqt
 33 35 0 0 0
SMALL
GASTEIGER

@<TRIPOS>ATOM
      1  C         21.3620  -22.6470   -8.7820 C.2     1  UNL1        0.1130
      2  C         21.0540  -24.0330   -8.7600 C.1     1  UNL1        0.1050
      3  N         20.8360  -25.1720   -8.8170 N.1     1  UNL1       -0.1910
      4  C         20.8240  -21.7670   -7.9140 C.2     1  UNL1        0.0390
      5  C         22.3420  -22.1070   -9.7950 C.2     1  UNL1        0.2660
      6  N         22.3340  -22.7520  -11.0210 N.am    1  UNL1       -0.3220
      7  H         21.6940  -23.5260  -11.1620 H       1  UNL1        0.1690
      8  O         23.0640  -21.1600   -9.4960 O.2     1  UNL1       -0.2670
      9  C         23.1280  -22.4540  -12.1520 C.2     1  UNL1        0.0350
     10  C         22.6280  -21.4970  -13.0460 C.2     1  UNL1        0.0320
     11  C         23.3460  -21.1320  -14.1930 C.2     1  UNL1        0.0390
     12  C         24.5780  -21.7230  -14.4630 C.2     1  UNL1        0.0680
     13  C         25.0770  -22.6770  -13.5760 C.2     1  UNL1        0.0390
     14  C         24.3610  -23.0410  -12.4290 C.2     1  UNL1        0.0320
     15  O         25.3790  -21.4620  -15.5400 O.2     1  UNL1       -0.3560
     16  C         25.1340  -22.2140  -16.7220 C.3     1  UNL1        0.2100
     17  C         19.8600  -22.0750   -6.8500 C.2     1  UNL1       -0.0340
     18  C         19.5670  -21.0940   -5.8930 C.2     1  UNL1        0.0140
     19  C         18.6360  -21.3450   -4.8840 C.2     1  UNL1        0.0390
     20  C         17.9780  -22.5710   -4.8430 C.2     1  UNL1        0.0890
     21  C         18.2710  -23.5630   -5.7770 C.2     1  UNL1        0.0390
     22  C         19.2000  -23.3100   -6.7890 C.2     1  UNL1        0.0140
     23  O         17.0650  -22.8580   -3.8640 O.2     1  UNL1       -0.2290
     24  S         15.5100  -23.1690   -4.2770 S.3     1  UNL1        0.3030
     25  O         14.6780  -22.0320   -3.9250 O.3     1  UNL1       -0.1930
     26  O         15.1760  -24.4920   -3.7810 O.3     1  UNL1       -0.1930
     27  C         15.5340  -23.2910   -6.0570 C.2     1  UNL1        0.0860
     28  C         15.5520  -24.5540   -6.6530 C.2     1  UNL1        0.0260
     29  C         15.5820  -24.6560   -8.0450 C.2     1  UNL1        0.0080
     30  C         15.5850  -23.5030   -8.8420 C.2     1  UNL1       -0.0620
     31  C         15.6240  -23.6010  -10.3380 C.3     1  UNL1        0.0480
     32  C         15.5550  -22.2430   -8.2270 C.2     1  UNL1        0.0080
     33  C         15.5240  -22.1320   -6.8360 C.2     1  UNL1        0.0260
@<TRIPOS>BOND
     1    16    15    1
     2    15    12    1
     3    12    11    2
     4    12    13    1
     5    11    10    1
     6    13    14    2
     7    10     9    2
     8    14     9    1
     9     9     6    1
    10     7     6    1
    11     6     5   am
    12    31    30    1
    13     5     8    2
    14     5     1    1
    15    30    32    2
    16    30    29    1
    17     3     2    3
    18     1     2    1
    19     1     4    2
    20    32    33    1
    21    29    28    2
    22     4    17    1
    23    17    22    2
    24    17    18    1
    25    33    27    2
    26    22    21    1
    27    28    27    1
    28    27    24    1
    29    18    19    2
    30    21    20    2
    31    19    20    1
    32    20    23    1
    33    24    25    1
    34    24    23    1
    35    24    26    1
