@<TRIPOS>MOLECULE
12837_out_ligand_01.pdbqt
 32 35 0 0 0
SMALL
GASTEIGER

@<TRIPOS>ATOM
      1  C         21.8510  -22.7670   -8.5760 C.2     1  UNL1        0.1060
      2  C         21.4260  -21.8220   -7.6090 C.2     1  UNL1        0.0670
      3  C         20.2230  -22.2810   -7.0990 C.2     1  UNL1        0.1060
      4  O         19.9110  -23.4630   -7.7210 O.2     1  UNL1       -0.3110
      5  C         20.8890  -23.7470   -8.6240 C.2     1  UNL1        0.0720
      6  C         20.7130  -24.9840   -9.4130 C.3     1  UNL1        0.0780
      7  S         23.2850  -22.7070   -9.5160 S.O2    1  UNL1        0.2480
      8  O         24.1690  -23.6460   -8.8600 O.2     1  UNL1       -0.2050
      9  O         23.5700  -21.2950   -9.6110 O.2     1  UNL1       -0.2050
     10  N         22.8920  -23.3430  -11.0440 N.pl3   1  UNL1       -0.1810
     11  H         23.3100  -24.2690  -11.1260 H       1  UNL1        0.1460
     12  C         23.2070  -22.4850  -12.1520 C.2     1  UNL1        0.0310
     13  C         24.4940  -22.5470  -12.6900 C.2     1  UNL1        0.0670
     14  C         24.8230  -21.7510  -13.7780 C.2     1  UNL1        0.1180
     15  C         23.8900  -20.8950  -14.3470 C.2     1  UNL1        0.0430
     16  F         26.0610  -21.8060  -14.2870 F       1  UNL1       -0.2060
     17  C         22.6010  -20.8350  -13.8190 C.2     1  UNL1        0.0110
     18  C         22.2400  -21.6290  -12.7140 C.2     1  UNL1       -0.0400
     19  C         20.8370  -21.5370  -12.1830 C.3     1  UNL1        0.0500
     20  C         19.3800  -21.7070   -6.0970 C.2     1  UNL1        0.1010
     21  N         19.6800  -20.5500   -5.4280 N.pl3   1  UNL1       -0.2750
     22  N         18.7890  -20.2170   -4.4790 N.2     1  UNL1       -0.1860
     23  H         20.4860  -19.9480   -5.5530 H       1  UNL1        0.1890
     24  C         17.8960  -21.2070   -4.5350 C.2     1  UNL1        0.1580
     25  C         18.1800  -22.1420   -5.5540 C.2     1  UNL1        0.0820
     26  C         17.4140  -23.3270   -5.8770 C.2     1  UNL1        0.2570
     27  O         17.2870  -24.2340   -5.0580 O.2     1  UNL1       -0.2670
     28  N         16.7920  -23.3570   -7.1120 N.am    1  UNL1       -0.3480
     29  C         16.6800  -22.2710   -8.0750 C.3     1  UNL1        0.1260
     30  C         16.0250  -24.5150   -7.5290 C.3     1  UNL1        0.1260
     31  C         15.5580  -22.7120   -9.0070 C.3     1  UNL1        0.0210
     32  C         15.6730  -24.2310   -8.9810 C.3     1  UNL1        0.0210
@<TRIPOS>BOND
     1    15    17    2
     2    15    14    1
     3    16    14    1
     4    17    18    1
     5    14    13    2
     6    18    19    1
     7    18    12    2
     8    13    12    1
     9    12    10    1
    10    11    10    1
    11    10     7    1
    12     9     7    2
    13     7     8    2
    14     7     1    1
    15     6     5    1
    16    31    32    1
    17    31    29    1
    18    32    30    1
    19     5     1    2
    20     5     4    1
    21     1     2    1
    22    29    28    1
    23     4     3    1
    24     2     3    2
    25    30    28    1
    26    28    26   am
    27     3    20    1
    28    20    25    2
    29    20    21    1
    30    26    25    1
    31    26    27    2
    32    25    24    1
    33    23    21    1
    34    21    22    1
    35    24    22    2
