@<TRIPOS>MOLECULE
1285_out_ligand_01.pdbqt
 30 33 0 0 0
SMALL
GASTEIGER

@<TRIPOS>ATOM
      1  C         19.9160  -21.8400  -11.0650 C.2     1  UNL1        0.0320
      2  C         18.7710  -21.6130  -11.8410 C.2     1  UNL1        0.0180
      3  C         17.5020  -21.7990  -11.2840 C.2     1  UNL1        0.0190
      4  C         17.3690  -22.2140   -9.9530 C.2     1  UNL1        0.0450
      5  C         18.5090  -22.4520   -9.1760 C.2     1  UNL1       -0.0380
      6  C         19.7810  -22.2780   -9.7390 C.2     1  UNL1        0.0250
      7  C         18.3380  -22.9430   -7.7680 C.3     1  UNL1        0.0770
      8  C         17.0480  -22.3430   -7.2100 C.3     1  UNL1        0.1690
      9  O         15.9280  -22.6730   -8.0590 O.3     1  UNL1       -0.3070
     10  C         16.0090  -22.4470   -9.3940 C.2     1  UNL1        0.2940
     11  O         15.0220  -22.4530  -10.1170 O.2     1  UNL1       -0.2590
     12  C         21.2910  -21.6700  -11.6180 C.2     1  UNL1        0.2560
     13  O         21.4210  -21.0220  -12.6490 O.2     1  UNL1       -0.2670
     14  N         22.2930  -22.3120  -10.9110 N.am    1  UNL1       -0.3230
     15  H         22.0030  -22.9220  -10.1580 H       1  UNL1        0.1690
     16  C         23.6780  -22.2880  -11.1830 C.2     1  UNL1        0.0370
     17  C         24.5810  -21.4220  -10.5600 C.2     1  UNL1        0.0290
     18  C         25.9450  -21.4580  -10.8750 C.2     1  UNL1        0.0050
     19  C         26.4250  -22.3650  -11.8180 C.2     1  UNL1        0.0360
     20  C         25.5270  -23.2360  -12.4410 C.2     1  UNL1        0.1050
     21  C         24.1580  -23.2040  -12.1280 C.2     1  UNL1        0.0650
     22  N         26.0190  -24.1970  -13.4350 N.pl3   1  UNL1       -0.1160
     23  O         25.5260  -24.1580  -14.5710 O.2     1  UNL1       -0.5320
     24  O         26.9010  -24.9920  -13.0780 O.2     1  UNL1       -0.5320
     25  C         16.7860  -22.8460   -5.8030 C.2     1  UNL1       -0.0290
     26  C         17.8380  -22.9100   -4.8760 C.2     1  UNL1        0.0100
     27  C         17.6200  -23.3980   -3.5860 C.2     1  UNL1        0.0010
     28  C         16.3510  -23.8330   -3.2090 C.2     1  UNL1        0.0000
     29  C         15.2990  -23.7790   -4.1200 C.2     1  UNL1        0.0010
     30  C         15.5140  -23.2920   -5.4100 C.2     1  UNL1        0.0100
@<TRIPOS>BOND
     1    23    22    2
     2    22    24    2
     3    22    20    1
     4    13    12    2
     5    20    21    1
     6    20    19    2
     7    21    16    2
     8     2     3    1
     9     2     1    2
    10    19    18    1
    11    12     1    1
    12    12    14   am
    13     3     4    2
    14    16    14    1
    15    16    17    1
    16     1     6    1
    17    14    15    1
    18    18    17    2
    19    11    10    2
    20     4    10    1
    21     4     5    1
    22     6     5    2
    23    10     9    1
    24     5     7    1
    25     9     8    1
    26     7     8    1
    27     8    25    1
    28    25    30    2
    29    25    26    1
    30    30    29    1
    31    26    27    2
    32    29    28    2
    33    27    28    1
