@<TRIPOS>MOLECULE
12850_out_ligand_01.pdbqt
 31 35 0 0 0
SMALL
GASTEIGER

@<TRIPOS>ATOM
      1  N         19.0470  -23.6890   -9.0600 N.pl3   1  UNL1       -0.2810
      2  C         18.9870  -22.7390   -9.9450 C.ar    1  UNL1        0.1620
      3  C         17.7330  -21.9700  -10.2540 C.ar    1  UNL1        0.0840
      4  C         16.5320  -22.0660   -9.6510 C.3     1  UNL1        0.0580
      5  C         17.7940  -20.9680  -11.4000 C.ar    1  UNL1        0.2830
      6  O         16.7870  -20.3660  -11.7570 O.2     1  UNL1       -0.2650
      7  N         19.0060  -20.7410  -12.0180 N.ar    1  UNL1       -0.1820
      8  C         20.0280  -21.4230  -11.6490 C.ar    1  UNL1        0.2010
      9  S         21.5900  -21.1970  -12.3860 S.2     1  UNL1       -0.0280
     10  C         22.1990  -22.4610  -11.3160 C.ar    1  UNL1        0.1320
     11  N         21.3370  -22.9880  -10.4930 N.ar    1  UNL1       -0.1550
     12  N         20.1020  -22.3880  -10.6830 N.ar    1  UNL1       -0.1890
     13  H         20.0190  -24.0350   -9.0770 H       1  UNL1        0.1880
     14  C         16.1730  -22.8710   -8.5360 C.2     1  UNL1        0.0770
     15  C         15.9400  -24.2350   -8.4150 C.2     1  UNL1        0.0400
     16  C         15.6790  -24.5170   -7.0520 C.2     1  UNL1        0.0470
     17  C         15.7920  -23.3220   -6.3800 C.2     1  UNL1        0.1130
     18  O         16.1030  -22.3380   -7.2680 O.2     1  UNL1       -0.3040
     19  S         15.5970  -23.0350   -4.6740 S.3     1  UNL1       -0.0980
     20  C         17.3080  -23.2510   -4.1020 C.3     1  UNL1        0.1460
     21  C         18.1960  -22.2310   -4.7120 C.2     1  UNL1        0.0620
     22  C         18.5740  -20.9550   -4.3380 C.2     1  UNL1        0.0350
     23  C         19.4470  -20.4870   -5.3490 C.2     1  UNL1        0.0270
     24  C         19.5450  -21.5030   -6.2750 C.2     1  UNL1        0.1420
     25  O         18.7820  -22.5610   -5.8990 O.2     1  UNL1       -0.3260
     26  C         23.6230  -22.8840  -11.3730 C.2     1  UNL1        0.0020
     27  C         24.1560  -23.2620  -12.6150 C.2     1  UNL1        0.0140
     28  C         25.4890  -23.6690  -12.7250 C.2     1  UNL1        0.0010
     29  C         26.3000  -23.7050  -11.5950 C.2     1  UNL1        0.0000
     30  C         25.7830  -23.3370  -10.3550 C.2     1  UNL1        0.0010
     31  C         24.4490  -22.9280  -10.2410 C.2     1  UNL1        0.0140
@<TRIPOS>BOND
     1    28    27    1
     2    28    29    2
     3    27    26    2
     4     9     8   ar
     5     9    10   ar
     6     7     8   ar
     7     7     5   ar
     8     6     5    2
     9     8    12   ar
    10    29    30    1
    11     5     3   ar
    12    26    10    1
    13    26    31    1
    14    10    11   ar
    15    12    11   ar
    16    12     2   ar
    17    30    31    2
    18     3     2   ar
    19     3     4    1
    20     2     1    1
    21     4    14    1
    22    13     1    1
    23    14    15    2
    24    14    18    1
    25    15    16    1
    26    18    17    1
    27    16    17    2
    28    17    19    1
    29    24    25    1
    30    24    23    2
    31    25    21    1
    32    23    22    1
    33    21    22    2
    34    21    20    1
    35    19    20    1
