@<TRIPOS>MOLECULE
12875_out_ligand_01.pdbqt
 37 41 0 0 0
SMALL
GASTEIGER

@<TRIPOS>ATOM
      1  C         16.4610  -21.7340   -9.9740 C.3     1  UNL1        0.1210
      2  S         15.9120  -23.3960   -9.4860 S.3     1  UNL1       -0.0870
      3  C         15.9770  -23.2360   -7.7640 C.ar    1  UNL1        0.1700
      4  N         16.9140  -23.8590   -6.9770 N.ar    1  UNL1       -0.3190
      5  C         16.6450  -23.5120   -5.6700 C.ar    1  UNL1        0.0830
      6  C         17.2280  -23.8260   -4.4500 C.2     1  UNL1        0.1480
      7  C         15.5450  -22.6640   -5.7550 C.ar    1  UNL1        0.0890
      8  N         16.7070  -23.2880   -3.3220 N.2     1  UNL1       -0.2710
      9  C         15.6350  -22.4660   -3.4120 C.2     1  UNL1        0.1180
     10  C         15.0060  -22.1130   -4.5940 C.2     1  UNL1        0.0530
     11  N         15.1500  -22.5020   -7.0580 N.ar    1  UNL1       -0.2220
     12  C         17.9940  -24.7330   -7.4150 C.3     1  UNL1        0.1700
     13  C         19.2660  -23.9690   -7.7060 C.2     1  UNL1       -0.0400
     14  C         19.3930  -22.6350   -7.2950 C.2     1  UNL1        0.0090
     15  C         20.5650  -21.9190   -7.5490 C.2     1  UNL1        0.0070
     16  C         21.6260  -22.5160   -8.2360 C.2     1  UNL1       -0.0620
     17  C         22.8970  -21.7560   -8.4760 C.3     1  UNL1        0.0480
     18  C         21.5040  -23.8460   -8.6500 C.2     1  UNL1        0.0070
     19  C         20.3310  -24.5620   -8.3980 C.2     1  UNL1        0.0090
     20  C         17.8290  -21.7320  -10.6110 C.2     1  UNL1       -0.0480
     21  C         18.5260  -22.9350  -10.7970 C.2     1  UNL1        0.0090
     22  C         19.7910  -22.9380  -11.3890 C.2     1  UNL1        0.0170
     23  C         20.3850  -21.7340  -11.7850 C.2     1  UNL1        0.0320
     24  C         19.6940  -20.5300  -11.6080 C.2     1  UNL1        0.0170
     25  C         18.4260  -20.5310  -11.0210 C.2     1  UNL1        0.0090
     26  C         21.7350  -21.7800  -12.4070 C.2     1  UNL1        0.2510
     27  O         21.9880  -21.0850  -13.3850 O.2     1  UNL1       -0.2680
     28  N         22.6320  -22.6600  -11.8380 N.am    1  UNL1       -0.3530
     29  H         22.2730  -23.3720  -11.2190 H       1  UNL1        0.1630
     30  C         23.9220  -22.9090  -12.4400 C.3     1  UNL1        0.1610
     31  C         24.7650  -21.6580  -12.4400 C.2     1  UNL1       -0.0400
     32  C         25.0180  -20.9810  -13.6440 C.2     1  UNL1        0.0120
     33  C         25.8130  -19.8340  -13.6570 C.2     1  UNL1        0.0430
     34  C         26.3580  -19.3670  -12.4690 C.2     1  UNL1        0.1160
     35  F         27.1210  -18.2650  -12.4790 F       1  UNL1       -0.2060
     36  C         26.1260  -20.0260  -11.2670 C.2     1  UNL1        0.0430
     37  C         25.3310  -21.1730  -11.2520 C.2     1  UNL1        0.0120
@<TRIPOS>BOND
     1    33    32    1
     2    33    34    2
     3    32    31    2
     4    27    26    2
     5    35    34    1
     6    34    36    1
     7    31    30    1
     8    31    37    1
     9    30    28    1
    10    26    28   am
    11    26    23    1
    12    28    29    1
    13    23    24    2
    14    23    22    1
    15    24    25    1
    16    22    21    2
    17    36    37    2
    18    25    20    2
    19    21    20    1
    20    20     1    1
    21     1     2    1
    22     2     3    1
    23    18    19    1
    24    18    16    2
    25    17    16    1
    26    19    13    2
    27    16    15    1
    28     3    11   ar
    29     3     4   ar
    30    13    12    1
    31    13    14    1
    32    15    14    2
    33    12     4    1
    34    11     7   ar
    35     4     5   ar
    36     7     5   ar
    37     7    10    1
    38     5     6    1
    39    10     9    2
    40     6     8    2
    41     9     8    1
