@<TRIPOS>MOLECULE
12880_out_ligand_01.pdbqt
 33 37 0 0 0
SMALL
GASTEIGER

@<TRIPOS>ATOM
      1  C         24.3030  -22.1820  -10.3460 C.2     1  UNL1        0.1160
      2  C         23.9000  -23.3700   -9.7690 C.2     1  UNL1        0.0440
      3  C         22.9340  -23.3340   -8.7640 C.2     1  UNL1        0.0490
      4  C         22.4010  -22.1150   -8.3770 C.2     1  UNL1        0.1260
      5  N         22.8130  -20.9760   -8.9630 N.2     1  UNL1       -0.1370
      6  N         23.7800  -21.0080   -9.9390 N.2     1  UNL1       -0.1420
      7  S         25.5230  -22.1930  -11.6400 S.3     1  UNL1       -0.0990
      8  C         24.5080  -22.5970  -13.1000 C.3     1  UNL1        0.1840
      9  C         23.1490  -21.9130  -13.0410 C.2     1  UNL1        0.2310
     10  O         22.9230  -20.9100  -13.7110 O.2     1  UNL1       -0.2720
     11  N         22.2620  -22.5330  -12.1790 N.am    1  UNL1       -0.3270
     12  H         22.5170  -23.4690  -11.8680 H       1  UNL1        0.1690
     13  C         20.9680  -22.1100  -11.8190 C.2     1  UNL1        0.0350
     14  C         20.6170  -20.7880  -12.1660 C.2     1  UNL1        0.0300
     15  C         19.3480  -20.2770  -11.8830 C.2     1  UNL1        0.0100
     16  C         18.4410  -21.0980  -11.2400 C.2     1  UNL1       -0.0520
     17  C         18.7770  -22.4110  -10.8980 C.2     1  UNL1       -0.0500
     18  C         17.0220  -20.7980  -10.8740 C.3     1  UNL1        0.0390
     19  C         20.0310  -22.9320  -11.1820 C.2     1  UNL1        0.0370
     20  C         17.6090  -23.1180  -10.2840 C.3     1  UNL1        0.0390
     21  C         16.7190  -21.9320   -9.8840 C.3     1  UNL1        0.0090
     22  N         21.4280  -22.0290   -7.3710 N.pl3   1  UNL1       -0.2720
     23  H         21.8420  -22.5070   -6.5730 H       1  UNL1        0.1290
     24  C         20.1980  -22.7310   -7.7430 C.3     1  UNL1        0.1320
     25  C         19.1700  -22.5730   -6.6440 C.2     1  UNL1       -0.0420
     26  C         19.1790  -21.4170   -5.8280 C.2     1  UNL1        0.0110
     27  C         18.2410  -21.2480   -4.8050 C.2     1  UNL1        0.0400
     28  C         17.3150  -22.2500   -4.6130 C.2     1  UNL1        0.1050
     29  C         17.2950  -23.3770   -5.3970 C.2     1  UNL1        0.1050
     30  O         16.3420  -22.2620   -3.6630 O.2     1  UNL1       -0.3230
     31  C         18.1980  -23.5660   -6.4210 C.2     1  UNL1        0.0480
     32  O         16.3130  -24.2440   -5.0310 O.2     1  UNL1       -0.3230
     33  C         15.7700  -23.5680   -3.8810 C.3     1  UNL1        0.3520
@<TRIPOS>BOND
     1    10     9    2
     2     8     9    1
     3     8     7    1
     4     9    11   am
     5    11    12    1
     6    11    13    1
     7    14    15    1
     8    14    13    2
     9    15    16    2
    10    13    19    1
    11     7     1    1
    12    16    17    1
    13    16    18    1
    14    19    17    2
    15    17    20    1
    16    18    21    1
    17     1     6    2
    18     1     2    1
    19    20    21    1
    20     6     5    1
    21     2     3    2
    22     5     4    2
    23     3     4    1
    24     4    22    1
    25    24    22    1
    26    24    25    1
    27    22    23    1
    28    25    31    2
    29    25    26    1
    30    31    29    1
    31    26    27    2
    32    29    32    1
    33    29    28    2
    34    32    33    1
    35    27    28    1
    36    28    30    1
    37    33    30    1
