@<TRIPOS>MOLECULE
12886_out_ligand_01.pdbqt
 35 39 0 0 0
SMALL
GASTEIGER

@<TRIPOS>ATOM
      1  C         21.0820  -22.1370  -10.8340 C.ar    1  UNL1        0.1960
      2  N         21.4330  -21.4140  -11.8760 N.ar    1  UNL1       -0.1220
      3  N         20.2920  -20.8720  -12.4160 N.ar    1  UNL1       -0.1290
      4  C         19.2740  -21.2600  -11.6780 C.ar    1  UNL1        0.1580
      5  C         17.8760  -21.0220  -11.7710 C.2     1  UNL1        0.0540
      6  C         17.0460  -21.5610  -10.8570 C.2     1  UNL1        0.0220
      7  C         17.5510  -22.3800   -9.7530 C.2     1  UNL1        0.0480
      8  C         18.8740  -22.6290   -9.6850 C.2     1  UNL1        0.1180
      9  N         19.7230  -22.0690  -10.6380 N.ar    1  UNL1       -0.2820
     10  S         22.1540  -23.0930   -9.8710 S.3     1  UNL1       -0.0810
     11  C         23.5220  -21.9210   -9.6190 C.3     1  UNL1        0.1850
     12  C         24.3920  -21.8320  -10.8660 C.2     1  UNL1        0.2310
     13  O         25.2870  -20.9950  -10.9460 O.2     1  UNL1       -0.2720
     14  N         24.0640  -22.7740  -11.8280 N.am    1  UNL1       -0.3260
     15  H         23.3800  -23.4810  -11.5550 H       1  UNL1        0.1690
     16  C         24.6770  -22.9830  -13.0800 C.2     1  UNL1        0.0370
     17  C         25.6800  -23.9450  -13.3100 C.2     1  UNL1        0.0320
     18  C         26.2460  -24.1060  -14.5820 C.2     1  UNL1        0.0420
     19  C         25.7930  -23.2930  -15.5950 C.2     1  UNL1        0.1050
     20  C         24.8190  -22.3490  -15.3790 C.2     1  UNL1        0.1070
     21  O         26.2210  -23.3110  -16.8850 O.2     1  UNL1       -0.3230
     22  C         24.2440  -22.1690  -14.1370 C.2     1  UNL1        0.0690
     23  O         24.5070  -21.6560  -16.5070 O.2     1  UNL1       -0.3230
     24  C         25.4060  -22.2670  -17.4560 C.3     1  UNL1        0.3520
     25  C         16.6680  -23.0150   -8.7270 C.2     1  UNL1        0.2530
     26  O         15.4550  -22.8390   -8.7340 O.2     1  UNL1       -0.2680
     27  N         17.3250  -23.8250   -7.8360 N.am    1  UNL1       -0.3530
     28  H         18.2790  -24.0950   -8.0240 H       1  UNL1        0.1630
     29  C         16.6040  -24.6290   -6.8750 C.3     1  UNL1        0.1610
     30  C         16.4600  -23.8930   -5.5690 C.2     1  UNL1       -0.0410
     31  C         17.5650  -23.7420   -4.7180 C.2     1  UNL1        0.0090
     32  C         17.4430  -23.0470   -3.5150 C.2     1  UNL1        0.0010
     33  C         16.2170  -22.4890   -3.1530 C.2     1  UNL1        0.0000
     34  C         15.1150  -22.6240   -3.9950 C.2     1  UNL1        0.0010
     35  C         15.2360  -23.3190   -5.1980 C.2     1  UNL1        0.0090
@<TRIPOS>BOND
     1    24    21    1
     2    24    23    1
     3    21    19    1
     4    23    20    1
     5    19    20    2
     6    19    18    1
     7    20    22    1
     8    18    17    2
     9    22    16    2
    10    17    16    1
    11    16    14    1
    12     3     2   ar
    13     3     4   ar
    14     2     1   ar
    15    14    15    1
    16    14    12   am
    17     5     4    1
    18     5     6    2
    19     4     9   ar
    20    13    12    2
    21    12    11    1
    22     6     7    1
    23     1     9   ar
    24     1    10    1
    25     9     8    1
    26    10    11    1
    27     7     8    2
    28     7    25    1
    29    26    25    2
    30    25    27   am
    31    28    27    1
    32    27    29    1
    33    29    30    1
    34    30    35    2
    35    30    31    1
    36    35    34    1
    37    31    32    2
    38    34    33    2
    39    32    33    1
