@<TRIPOS>MOLECULE
12887_out_ligand_01.pdbqt
 35 39 0 0 0
SMALL
GASTEIGER

@<TRIPOS>ATOM
      1  S         16.2200  -23.4480   -9.5760 S.3     1  UNL1       -0.0870
      2  C         16.6130  -21.7370  -10.0510 C.3     1  UNL1        0.1210
      3  C         17.9780  -21.6280  -10.6880 C.2     1  UNL1       -0.0480
      4  C         18.7820  -22.7680  -10.8380 C.2     1  UNL1        0.0090
      5  C         20.0310  -22.6790  -11.4580 C.2     1  UNL1        0.0170
      6  C         20.4990  -21.4470  -11.9190 C.2     1  UNL1        0.0320
      7  C         19.7040  -20.3050  -11.7770 C.2     1  UNL1        0.0170
      8  C         18.4490  -20.3980  -11.1660 C.2     1  UNL1        0.0090
      9  C         21.8300  -21.3940  -12.5800 C.2     1  UNL1        0.2520
     10  O         21.9490  -20.8900  -13.6920 O.2     1  UNL1       -0.2680
     11  N         22.8760  -21.9640  -11.8800 N.am    1  UNL1       -0.3520
     12  H         22.6450  -22.5840  -11.1170 H       1  UNL1        0.1630
     13  C         24.2020  -22.0920  -12.4740 C.3     1  UNL1        0.0840
     14  C         24.5010  -23.5670  -12.7980 C.3     1  UNL1        0.0250
     15  C         25.9920  -23.8690  -12.7210 C.3     1  UNL1        0.0020
     16  C         26.5360  -23.6230  -11.3120 C.3     1  UNL1        0.0000
     17  C         25.8510  -22.4640  -10.5880 C.3     1  UNL1        0.0020
     18  C         25.2590  -21.4550  -11.5600 C.3     1  UNL1        0.0250
     19  C         16.2380  -23.2980   -7.8490 C.ar    1  UNL1        0.1700
     20  N         15.3500  -22.6200   -7.1590 N.ar    1  UNL1       -0.2220
     21  C         15.7470  -22.7220   -5.8520 C.ar    1  UNL1        0.0890
     22  C         15.1630  -22.1810   -4.7070 C.2     1  UNL1        0.0530
     23  C         16.9100  -23.4760   -5.7450 C.ar    1  UNL1        0.0830
     24  C         15.8230  -22.4350   -3.5180 C.2     1  UNL1        0.1180
     25  N         16.9640  -23.1570   -3.4060 N.2     1  UNL1       -0.2710
     26  C         17.5200  -23.6940   -4.5180 C.2     1  UNL1        0.1480
     27  N         17.1940  -23.8660   -7.0400 N.ar    1  UNL1       -0.3180
     28  C         18.3440  -24.6620   -7.4420 C.3     1  UNL1        0.1730
     29  C         19.5680  -23.8290   -7.7060 C.2     1  UNL1       -0.0010
     30  C         19.6630  -22.5140   -7.2240 C.2     1  UNL1        0.0120
     31  C         20.8020  -21.7510   -7.4730 C.2     1  UNL1        0.0010
     32  C         21.8540  -22.2830   -8.2170 C.2     1  UNL1        0.0030
     33  C         21.7640  -23.5780   -8.7180 C.2     1  UNL1        0.0430
     34  C         20.6280  -24.3340   -8.4630 C.2     1  UNL1        0.1240
     35  F         20.5560  -25.5720   -8.9680 F       1  UNL1       -0.2050
@<TRIPOS>BOND
     1    10     9    2
     2    14    15    1
     3    14    13    1
     4    15    16    1
     5     9     6    1
     6     9    11   am
     7    13    11    1
     8    13    18    1
     9     6     7    2
    10     6     5    1
    11    11    12    1
    12     7     8    1
    13    18    17    1
    14     5     4    2
    15    16    17    1
    16     8     3    2
    17     4     3    1
    18     3     2    1
    19     2     1    1
    20     1    19    1
    21    35    34    1
    22    33    34    1
    23    33    32    2
    24    34    29    2
    25    32    31    1
    26    19    20   ar
    27    19    27   ar
    28    29    28    1
    29    29    30    1
    30    31    30    2
    31    28    27    1
    32    20    21   ar
    33    27    23   ar
    34    21    23   ar
    35    21    22    1
    36    23    26    1
    37    22    24    2
    38    26    25    2
    39    24    25    1
