@<TRIPOS>MOLECULE
12906_out_ligand_01.pdbqt
 36 39 0 0 0
SMALL
GASTEIGER

@<TRIPOS>ATOM
      1  C         22.5350  -21.6860  -12.7520 C.2     1  UNL1        0.1010
      2  C         21.2500  -21.3340  -12.5470 C.2     1  UNL1        0.0400
      3  C         20.5290  -21.7650  -11.3640 C.2     1  UNL1        0.0340
      4  C         21.1340  -22.5600  -10.4630 C.2     1  UNL1        0.0270
      5  N         22.4460  -22.9340  -10.6700 N.am    1  UNL1       -0.3250
      6  C         23.2170  -22.5440  -11.7460 C.2     1  UNL1        0.2610
      7  O         24.3950  -22.8700  -11.8230 O.2     1  UNL1       -0.2670
      8  C         20.4800  -23.0670   -9.2050 C.3     1  UNL1        0.0680
      9  C         19.2470  -22.2320   -8.8190 C.3     1  UNL1        0.0310
     10  C         18.3340  -22.0250  -10.0290 C.3     1  UNL1        0.0930
     11  C         19.0990  -21.3720  -11.1590 C.2     1  UNL1        0.1620
     12  O         18.5530  -20.5810  -11.9270 O.2     1  UNL1       -0.2920
     13  H         22.9290  -23.5210   -9.9960 H       1  UNL1        0.1690
     14  C         23.2070  -21.2820  -14.0100 C.2     1  UNL1        0.2610
     15  N         24.1320  -22.2100  -14.4410 N.am    1  UNL1       -0.3200
     16  H         24.2520  -23.0660  -13.9060 H       1  UNL1        0.1690
     17  O         22.9340  -20.2090  -14.5330 O.2     1  UNL1       -0.2670
     18  C         24.9620  -22.1530  -15.5830 C.2     1  UNL1        0.0680
     19  C         24.5770  -22.6200  -16.8410 C.2     1  UNL1        0.0320
     20  C         25.4580  -22.5330  -17.9210 C.2     1  UNL1        0.0020
     21  C         26.7250  -21.9840  -17.7470 C.2     1  UNL1        0.0030
     22  C         27.1210  -21.5120  -16.4940 C.2     1  UNL1        0.0390
     23  C         26.2440  -21.5860  -15.4080 C.2     1  UNL1        0.0950
     24  O         26.5250  -21.1590  -14.1310 O.2     1  UNL1       -0.3490
     25  C         26.4470  -19.7630  -13.8400 C.3     1  UNL1        0.1710
     26  C         27.1180  -19.4540  -12.5140 C.3     1  UNL1        0.0340
     27  C         18.5150  -22.8370   -7.6340 C.2     1  UNL1       -0.0500
     28  C         17.7010  -23.9680   -7.7710 C.2     1  UNL1        0.0100
     29  C         17.0450  -24.5160   -6.6640 C.2     1  UNL1        0.0400
     30  C         17.1910  -23.9450   -5.3980 C.2     1  UNL1        0.1010
     31  C         18.0070  -22.8070   -5.2420 C.2     1  UNL1        0.1020
     32  C         18.6610  -22.2660   -6.3570 C.2     1  UNL1        0.0470
     33  O         16.5870  -24.4150   -4.2590 O.2     1  UNL1       -0.3530
     34  C         15.3250  -23.8680   -3.9070 C.3     1  UNL1        0.2100
     35  O         18.1020  -22.3060   -3.9680 O.2     1  UNL1       -0.3530
     36  C         18.6370  -21.0000   -3.8060 C.3     1  UNL1        0.2100
@<TRIPOS>BOND
     1    20    21    2
     2    20    19    1
     3    21    22    1
     4    19    18    2
     5    22    23    2
     6    18    23    1
     7    18    15    1
     8    23    24    1
     9    17    14    2
    10    15    14   am
    11    15    16    1
    12    24    25    1
    13    14     1    1
    14    25    26    1
    15     1     2    2
    16     1     6    1
    17     2     3    1
    18    12    11    2
    19     7     6    2
    20     6     5   am
    21     3    11    1
    22     3     4    2
    23    11    10    1
    24     5     4    1
    25     5    13    1
    26     4     8    1
    27    10     9    1
    28     8     9    1
    29     9    27    1
    30    28    27    2
    31    28    29    1
    32    27    32    1
    33    29    30    2
    34    32    31    2
    35    30    31    1
    36    30    33    1
    37    31    35    1
    38    33    34    1
    39    35    36    1
