@<TRIPOS>MOLECULE
12912_out_ligand_01.pdbqt
 35 38 0 0 0
SMALL
GASTEIGER

@<TRIPOS>ATOM
      1  C         22.6370  -22.4340  -11.1550 C.2     1  UNL1        0.0370
      2  C         22.9850  -23.2790  -10.0940 C.2     1  UNL1        0.0290
      3  C         22.0210  -23.7190   -9.1830 C.2     1  UNL1        0.0030
      4  C         20.6970  -23.3100   -9.3210 C.2     1  UNL1        0.0170
      5  C         20.3410  -22.4600  -10.3730 C.2     1  UNL1        0.0340
      6  C         21.3120  -22.0150  -11.2820 C.2     1  UNL1        0.0460
      7  N         23.6730  -22.0210  -12.0170 N.am    1  UNL1       -0.3090
      8  C         24.9390  -21.6030  -11.6630 C.2     1  UNL1        0.3270
      9  N         25.8070  -21.3880  -12.7430 N.am    1  UNL1       -0.2960
     10  O         25.2780  -21.3450  -10.5110 O.2     1  UNL1       -0.2460
     11  C         26.8720  -20.4010  -12.5640 C.3     1  UNL1        0.1440
     12  C         25.5930  -21.8270  -14.0860 C.2     1  UNL1        0.0800
     13  C         26.4710  -19.0800  -13.1950 C.3     1  UNL1        0.1010
     14  S         26.3010  -19.2360  -15.0000 S.3     1  UNL1       -0.1060
     15  C         25.7720  -20.9380  -15.1650 C.2     1  UNL1        0.1210
     16  N         25.5300  -21.2840  -16.4540 N.2     1  UNL1       -0.2440
     17  C         25.1290  -22.5430  -16.7190 C.2     1  UNL1        0.0320
     18  C         24.8680  -22.8960  -18.1530 C.3     1  UNL1        0.0700
     19  C         24.9840  -23.5000  -15.7240 C.2     1  UNL1        0.0350
     20  C         25.2460  -23.1600  -14.3890 C.2     1  UNL1       -0.0300
     21  C         25.1990  -24.2740  -13.3750 C.3     1  UNL1        0.0500
     22  H         23.4140  -21.8490  -12.9770 H       1  UNL1        0.1700
     23  C         18.9440  -21.9770  -10.5320 C.2     1  UNL1        0.2510
     24  O         18.6610  -21.1810  -11.4190 O.2     1  UNL1       -0.2680
     25  N         18.0210  -22.5020   -9.6480 N.am    1  UNL1       -0.3570
     26  H         18.2760  -23.3550   -9.1700 H       1  UNL1        0.1620
     27  C         16.6060  -22.2450   -9.8420 C.3     1  UNL1        0.1240
     28  C         15.7620  -22.9340   -8.7760 C.3     1  UNL1        0.0500
     29  C         16.6140  -23.9220   -7.9710 C.3     1  UNL1        0.2740
     30  N         16.4120  -23.7780   -6.5230 N.3     1  UNL1        0.0880
     31  C         17.6690  -23.6130   -5.7750 C.3     1  UNL1        0.2720
     32  C         17.7550  -22.3360   -4.9370 C.3     1  UNL1        0.0300
     33  C         16.5420  -22.1640   -4.0320 C.3     1  UNL1        0.0030
     34  C         15.2400  -22.5590   -4.7240 C.3     1  UNL1        0.0300
     35  C         15.4140  -22.7430   -6.2300 C.3     1  UNL1        0.2720
@<TRIPOS>BOND
     1    18    17    1
     2    17    16    2
     3    17    19    1
     4    16    15    1
     5    19    20    2
     6    15    14    1
     7    15    12    2
     8    14    13    1
     9    20    12    1
    10    20    21    1
    11    12     9    1
    12    13    11    1
    13    22     7    1
    14     9    11    1
    15     9     8   am
    16     7     8   am
    17     7     1    1
    18     8    10    2
    19    24    23    2
    20     6     1    2
    21     6     5    1
    22     1     2    1
    23    23     5    1
    24    23    25   am
    25     5     4    2
    26     2     3    2
    27    27    25    1
    28    27    28    1
    29    25    26    1
    30     4     3    1
    31    28    29    1
    32    29    30    1
    33    30    35    1
    34    30    31    1
    35    35    34    1
    36    31    32    1
    37    32    33    1
    38    34    33    1
