@<TRIPOS>MOLECULE
1294_out_ligand_01.pdbqt
 36 39 0 0 0
SMALL
GASTEIGER

@<TRIPOS>ATOM
      1  C         23.8130  -21.7460  -10.9920 C.2     1  UNL1        0.0800
      2  C         22.7230  -22.1720  -11.7510 C.2     1  UNL1        0.0270
      3  C         21.5120  -22.4710  -11.1190 C.2     1  UNL1        0.0310
      4  C         21.3870  -22.3560   -9.7310 C.2     1  UNL1        0.0340
      5  C         22.4980  -21.9470   -8.9800 C.2     1  UNL1        0.0310
      6  C         23.7120  -21.6420   -9.6040 C.2     1  UNL1        0.0270
      7  N         20.2050  -22.6420   -9.0200 N.am    1  UNL1       -0.3260
      8  C         19.8730  -23.8230   -8.3560 C.2     1  UNL1        0.2350
      9  O         20.5660  -24.8360   -8.3380 O.2     1  UNL1       -0.2720
     10  H         19.4790  -21.9350   -9.0650 H       1  UNL1        0.1690
     11  C         18.5110  -23.7150   -7.6270 C.3     1  UNL1        0.1440
     12  C         17.3360  -23.3900   -8.5440 C.2     1  UNL1       -0.0410
     13  C         17.3520  -22.2760   -9.3980 C.2     1  UNL1        0.0080
     14  C         16.2600  -21.9880  -10.2180 C.2     1  UNL1        0.0010
     15  C         15.1340  -22.8060  -10.1970 C.2     1  UNL1        0.0000
     16  C         15.1000  -23.9160   -9.3570 C.2     1  UNL1        0.0010
     17  C         16.1920  -24.2060   -8.5350 C.2     1  UNL1        0.0080
     18  C         18.5620  -22.8060   -6.3960 C.2     1  UNL1       -0.0410
     19  C         17.8270  -23.1520   -5.2490 C.2     1  UNL1        0.0080
     20  C         17.8580  -22.3410   -4.1140 C.2     1  UNL1        0.0010
     21  C         18.6150  -21.1720   -4.1100 C.2     1  UNL1        0.0000
     22  C         19.3360  -20.8080   -5.2460 C.2     1  UNL1        0.0010
     23  C         19.3070  -21.6160   -6.3840 C.2     1  UNL1        0.0080
     24  S         25.3450  -21.3630  -11.7990 S.O2    1  UNL1        0.2630
     25  O         26.0960  -20.4430  -10.9700 O.2     1  UNL1       -0.2000
     26  O         25.9310  -22.6140  -12.2320 O.2     1  UNL1       -0.2000
     27  N         24.8370  -20.5700  -13.2040 N.pl3   1  UNL1       -0.2810
     28  H         23.8410  -20.3570  -13.1590 H       1  UNL1        0.1790
     29  C         25.3540  -21.0220  -14.4470 C.2     1  UNL1        0.0430
     30  C         26.5880  -20.5540  -14.8870 C.2     1  UNL1        0.0300
     31  C         27.1190  -21.0270  -16.0860 C.2     1  UNL1        0.0090
     32  C         26.4290  -21.9800  -16.8520 C.2     1  UNL1       -0.0560
     33  C         27.0320  -22.4560  -18.1450 C.3     1  UNL1        0.0490
     34  C         25.1730  -22.4440  -16.4080 C.2     1  UNL1       -0.0540
     35  C         24.6530  -21.9650  -15.1960 C.2     1  UNL1        0.0370
     36  C         24.3920  -23.4650  -17.1910 C.3     1  UNL1        0.0490
@<TRIPOS>BOND
     1    33    32    1
     2    36    34    1
     3    32    34    2
     4    32    31    1
     5    34    35    1
     6    31    30    2
     7    35    29    2
     8    30    29    1
     9    29    27    1
    10    27    28    1
    11    27    24    1
    12    26    24    2
    13    24     1    1
    14    24    25    2
    15     2     3    1
    16     2     1    2
    17     3     4    2
    18     1     6    1
    19    14    15    2
    20    14    13    1
    21    15    16    1
    22     4     7    1
    23     4     5    1
    24     6     5    2
    25    13    12    2
    26    16    17    2
    27    10     7    1
    28     7     8   am
    29    12    17    1
    30    12    11    1
    31     8     9    2
    32     8    11    1
    33    11    18    1
    34    18    23    2
    35    18    19    1
    36    23    22    1
    37    19    20    2
    38    22    21    2
    39    20    21    1
