@<TRIPOS>MOLECULE
12958_out_ligand_01.pdbqt
 37 41 0 0 0
SMALL
GASTEIGER

@<TRIPOS>ATOM
      1  C         16.4030  -21.8100  -10.1360 C.3     1  UNL1        0.1210
      2  C         17.8020  -21.7050  -10.6910 C.2     1  UNL1       -0.0480
      3  C         18.3280  -20.4550  -11.0480 C.2     1  UNL1        0.0090
      4  C         19.6370  -20.3450  -11.5190 C.2     1  UNL1        0.0170
      5  C         20.4270  -21.4890  -11.6600 C.2     1  UNL1        0.0320
      6  C         19.9150  -22.7420  -11.3160 C.2     1  UNL1        0.0170
      7  C         18.6100  -22.8460  -10.8290 C.2     1  UNL1        0.0090
      8  C         21.8180  -21.3310  -12.1510 C.2     1  UNL1        0.2510
      9  N         21.9540  -21.1070  -13.5020 N.am    1  UNL1       -0.3530
     10  H         21.1360  -20.9630  -14.0800 H       1  UNL1        0.1630
     11  O         22.7530  -21.3790  -11.3660 O.2     1  UNL1       -0.2680
     12  C         23.2450  -20.8260  -14.0950 C.3     1  UNL1        0.1610
     13  C         24.0800  -22.0560  -14.3760 C.2     1  UNL1       -0.0410
     14  C         24.7780  -22.6520  -13.3120 C.2     1  UNL1        0.0090
     15  C         25.5820  -23.7740  -13.5200 C.2     1  UNL1        0.0070
     16  C         25.7130  -24.3240  -14.8010 C.2     1  UNL1       -0.0620
     17  C         26.5540  -25.5480  -15.0100 C.3     1  UNL1        0.0480
     18  C         25.0300  -23.7300  -15.8670 C.2     1  UNL1        0.0070
     19  C         24.2370  -22.5970  -15.6610 C.2     1  UNL1        0.0090
     20  S         15.9640  -23.4780   -9.5700 S.3     1  UNL1       -0.0870
     21  C         16.0450  -23.2990   -7.8480 C.ar    1  UNL1        0.1700
     22  N         15.1790  -22.6280   -7.1200 N.ar    1  UNL1       -0.2220
     23  C         15.6500  -22.7090   -5.8350 C.ar    1  UNL1        0.0890
     24  C         15.1250  -22.1580   -4.6660 C.2     1  UNL1        0.0530
     25  C         16.8280  -23.4460   -5.7810 C.ar    1  UNL1        0.0830
     26  C         15.8540  -22.3930   -3.5120 C.2     1  UNL1        0.1180
     27  N         17.0140  -23.0910   -3.4570 N.2     1  UNL1       -0.2710
     28  C         17.5180  -23.6300   -4.5890 C.2     1  UNL1        0.1480
     29  N         17.0370  -23.8610   -7.0810 N.ar    1  UNL1       -0.3190
     30  C         18.1670  -24.6610   -7.5360 C.3     1  UNL1        0.1700
     31  C         19.4200  -23.8350   -7.7210 C.2     1  UNL1       -0.0400
     32  C         19.5090  -22.5200   -7.2330 C.2     1  UNL1        0.0120
     33  C         20.6710  -21.7670   -7.4240 C.2     1  UNL1        0.0430
     34  C         21.7470  -22.3230   -8.1020 C.2     1  UNL1        0.1160
     35  F         22.8590  -21.5970   -8.2870 F       1  UNL1       -0.2060
     36  C         21.6860  -23.6230   -8.5870 C.2     1  UNL1        0.0430
     37  C         20.5270  -24.3800   -8.3970 C.2     1  UNL1        0.0120
@<TRIPOS>BOND
     1    18    19    1
     2    18    16    2
     3    19    13    2
     4    17    16    1
     5    16    15    1
     6    13    12    1
     7    13    14    1
     8    12     9    1
     9    10     9    1
    10    15    14    2
    11     9     8   am
    12     8     5    1
    13     8    11    2
    14     5     4    2
    15     5     6    1
    16     4     3    1
    17     6     7    2
    18     3     2    2
    19     7     2    1
    20     2     1    1
    21     1    20    1
    22    20    21    1
    23    36    37    1
    24    36    34    2
    25    37    31    2
    26    35    34    1
    27    34    33    1
    28    21    22   ar
    29    21    29   ar
    30    31    30    1
    31    31    32    1
    32    30    29    1
    33    33    32    2
    34    22    23   ar
    35    29    25   ar
    36    23    25   ar
    37    23    24    1
    38    25    28    1
    39    24    26    2
    40    28    27    2
    41    26    27    1
