@<TRIPOS>MOLECULE
12960_out_ligand_01.pdbqt
 29 32 0 0 0
SMALL
GASTEIGER

@<TRIPOS>ATOM
      1  C         14.4410  -22.2090   -5.7530 C.3     1  UNL1        0.0480
      2  C         15.6580  -22.7340   -6.4590 C.2     1  UNL1       -0.0600
      3  C         16.5140  -23.6390   -5.8250 C.2     1  UNL1        0.0090
      4  C         17.6120  -24.1580   -6.5100 C.2     1  UNL1        0.0400
      5  C         17.8790  -23.7620   -7.8250 C.2     1  UNL1        0.1020
      6  C         17.0420  -22.8530   -8.4700 C.2     1  UNL1        0.0690
      7  C         15.9180  -22.3620   -7.7870 C.2     1  UNL1        0.0390
      8  N         17.2160  -22.4300   -9.7940 N.am    1  UNL1       -0.3200
      9  C         18.3470  -22.4130  -10.5670 C.2     1  UNL1        0.2590
     10  O         18.2690  -21.9880  -11.7220 O.2     1  UNL1       -0.2670
     11  C         19.6740  -22.7590  -10.0180 C.2     1  UNL1        0.0680
     12  C         20.7920  -22.1130  -10.5840 C.2     1  UNL1        0.0490
     13  C         22.0930  -22.3910  -10.1460 C.2     1  UNL1        0.0360
     14  C         22.2720  -23.3290   -9.1330 C.2     1  UNL1        0.0320
     15  C         21.1710  -23.9820   -8.5740 C.2     1  UNL1        0.0400
     16  C         19.8740  -23.6910   -9.0080 C.2     1  UNL1        0.0920
     17  O         18.8810  -24.4500   -8.4600 O.2     1  UNL1       -0.3070
     18  H         16.4480  -21.9410  -10.2340 H       1  UNL1        0.1690
     19  N         23.1470  -21.6900  -10.7690 N.am    1  UNL1       -0.3230
     20  C         24.1260  -22.2100  -11.5940 C.2     1  UNL1        0.2570
     21  O         24.2270  -23.3660  -11.9880 O.2     1  UNL1       -0.2670
     22  H         23.1890  -20.6950  -10.5820 H       1  UNL1        0.1690
     23  C         25.1010  -21.2160  -12.1090 C.2     1  UNL1        0.0490
     24  C         25.9550  -20.6290  -11.1570 C.2     1  UNL1        0.0180
     25  C         26.9150  -19.6970  -11.5520 C.2     1  UNL1        0.0010
     26  C         27.0190  -19.3300  -12.8920 C.2     1  UNL1        0.0010
     27  C         26.1570  -19.8880  -13.8390 C.2     1  UNL1        0.0200
     28  C         25.1940  -20.8310  -13.4550 C.2     1  UNL1        0.0260
     29 BR         24.0300  -21.4780  -14.8130 Br      1  UNL1       -0.0500
@<TRIPOS>BOND
     1    29    28    1
     2    27    28    1
     3    27    26    2
     4    28    23    2
     5    26    25    1
     6    23    20    1
     7    23    24    1
     8    21    20    2
     9    10     9    2
    10    20    19   am
    11    25    24    2
    12    19    22    1
    13    19    13    1
    14    12    13    1
    15    12    11    2
    16     9    11    1
    17     9     8   am
    18    18     8    1
    19    13    14    2
    20    11    16    1
    21     8     6    1
    22    14    15    1
    23    16    15    2
    24    16    17    1
    25     6     5    2
    26     6     7    1
    27    17     5    1
    28     5     4    1
    29     7     2    2
    30     4     3    2
    31     2     3    1
    32     2     1    1
