@<TRIPOS>MOLECULE
12970_out_ligand_01.pdbqt
 32 35 0 0 0
SMALL
GASTEIGER

@<TRIPOS>ATOM
      1  C         20.3990  -23.1840   -8.1710 C.2     1  UNL1        0.0320
      2  C         21.3030  -22.2090   -7.7380 C.2     1  UNL1        0.0180
      3  C         22.4310  -21.9030   -8.5070 C.2     1  UNL1        0.0170
      4  C         22.6790  -22.5730   -9.7140 C.2     1  UNL1        0.0170
      5  C         21.7730  -23.5630  -10.1290 C.2     1  UNL1        0.0170
      6  C         20.6430  -23.8740   -9.3640 C.2     1  UNL1        0.0180
      7  C         23.8460  -22.2780  -10.5400 C.ar    1  UNL1        0.1800
      8  N         24.3700  -22.9870  -11.5210 N.ar    1  UNL1       -0.2250
      9  C         25.4730  -22.2600  -11.9190 C.ar    1  UNL1        0.0760
     10  C         25.5510  -21.1050  -11.1680 C.ar    1  UNL1        0.0770
     11  C         26.4730  -19.9570  -11.1160 C.3     1  UNL1        0.0790
     12  O         24.5140  -21.1100  -10.2790 O.2     1  UNL1       -0.2940
     13  C         26.3630  -22.7480  -13.0060 C.3     1  UNL1        0.1410
     14  S         25.5860  -24.0700  -13.9980 S.3     1  UNL1       -0.1240
     15  C         25.2700  -23.1630  -15.5000 C.2     1  UNL1        0.0000
     16  C         24.6160  -23.7750  -16.5720 C.2     1  UNL1        0.0180
     17  C         24.3760  -23.0630  -17.7490 C.2     1  UNL1        0.0010
     18  C         24.7970  -21.7400  -17.8620 C.2     1  UNL1        0.0000
     19  C         25.4600  -21.1260  -16.7990 C.2     1  UNL1        0.0010
     20  C         25.6980  -21.8380  -15.6210 C.2     1  UNL1        0.0180
     21  C         19.2090  -23.4820   -7.3240 C.2     1  UNL1        0.2560
     22  N         18.8410  -22.4580   -6.4690 N.am    1  UNL1       -0.3220
     23  H         19.4760  -21.6760   -6.4190 H       1  UNL1        0.1690
     24  O         18.6950  -24.5880   -7.4250 O.2     1  UNL1       -0.2670
     25  C         17.7330  -22.4150   -5.5850 C.2     1  UNL1        0.0410
     26  C         17.8900  -22.5620   -4.2030 C.2     1  UNL1        0.0300
     27  C         16.7910  -22.5300   -3.3490 C.2     1  UNL1        0.0030
     28  C         15.5130  -22.3550   -3.8660 C.2     1  UNL1        0.0070
     29  C         15.3130  -22.2090   -5.2450 C.2     1  UNL1       -0.0540
     30  C         13.9030  -22.0230   -5.7410 C.3     1  UNL1        0.0490
     31  C         16.4290  -22.2350   -6.1220 C.2     1  UNL1       -0.0290
     32  C         16.2350  -22.0760   -7.6110 C.3     1  UNL1        0.0510
@<TRIPOS>BOND
     1    18    17    2
     2    18    19    1
     3    17    16    1
     4    19    20    2
     5    16    15    2
     6    20    15    1
     7    15    14    1
     8    14    13    1
     9    13     9    1
    10     9     8   ar
    11     9    10   ar
    12     8     7   ar
    13    10    11    1
    14    10    12   ar
    15     7    12   ar
    16     7     4    1
    17     5     4    2
    18     5     6    1
    19     4     3    1
    20     6     1    2
    21     3     2    2
    22     1     2    1
    23     1    21    1
    24    32    31    1
    25    24    21    2
    26    21    22   am
    27    22    23    1
    28    22    25    1
    29    31    25    2
    30    31    29    1
    31    30    29    1
    32    25    26    1
    33    29    28    2
    34    26    27    2
    35    28    27    1
