@<TRIPOS>MOLECULE
12974_out_ligand_01.pdbqt
 29 32 0 0 0
SMALL
GASTEIGER

@<TRIPOS>ATOM
      1  C         19.7430  -21.8710  -10.5430 C.2     1  UNL1        0.1010
      2  C         20.9740  -22.4220  -10.5440 C.2     1  UNL1        0.0400
      3  C         21.9330  -22.1690  -11.6040 C.2     1  UNL1        0.0340
      4  C         21.6000  -21.3580  -12.6250 C.2     1  UNL1        0.0270
      5  N         20.3470  -20.7830  -12.6450 N.am    1  UNL1       -0.3250
      6  C         19.3830  -20.9760  -11.6820 C.2     1  UNL1        0.2610
      7  O         18.2850  -20.4320  -11.7660 O.2     1  UNL1       -0.2670
      8  C         22.5220  -21.0120  -13.7640 C.3     1  UNL1        0.0690
      9  C         23.9930  -21.2800  -13.4160 C.3     1  UNL1        0.0560
     10  C         24.1570  -22.6730  -12.8150 C.3     1  UNL1        0.0950
     11  C         23.2780  -22.8270  -11.5940 C.2     1  UNL1        0.1620
     12  O         23.6330  -23.5170  -10.6410 O.2     1  UNL1       -0.2920
     13  H         20.0780  -20.1730  -13.4100 H       1  UNL1        0.1690
     14  C         18.8170  -22.1880   -9.4050 C.2     1  UNL1        0.2610
     15  N         19.4400  -22.3110   -8.1810 N.am    1  UNL1       -0.3230
     16  H         20.4510  -22.1780   -8.1670 H       1  UNL1        0.1690
     17  O         17.6140  -22.3130   -9.6140 O.2     1  UNL1       -0.2670
     18  C         18.8540  -22.6000   -6.9300 C.2     1  UNL1        0.0350
     19  C         18.1960  -23.8310   -6.8090 C.2     1  UNL1        0.0290
     20  C         17.5830  -24.1950   -5.6090 C.2     1  UNL1        0.0030
     21  C         17.6240  -23.3340   -4.5150 C.2     1  UNL1        0.0070
     22  C         18.2880  -22.1080   -4.6120 C.2     1  UNL1       -0.0600
     23  C         18.3100  -21.1600   -3.4490 C.3     1  UNL1        0.0480
     24  C         18.8910  -21.7430   -5.8280 C.2     1  UNL1        0.0360
     25  C         24.8710  -21.0980  -14.6080 C.2     1  UNL1        0.0570
     26  C         26.1670  -20.6540  -14.7680 C.2     1  UNL1        0.0350
     27  C         26.4410  -20.7150  -16.1550 C.2     1  UNL1        0.0270
     28  C         25.2980  -21.1920  -16.7510 C.2     1  UNL1        0.1420
     29  O         24.3390  -21.4260  -15.8190 O.2     1  UNL1       -0.3270
@<TRIPOS>BOND
     1    28    27    2
     2    28    29    1
     3    27    26    1
     4    29    25    1
     5    26    25    2
     6    25     9    1
     7     8     9    1
     8     8     4    1
     9     9    10    1
    10    13     5    1
    11    10    11    1
    12     5     4    1
    13     5     6   am
    14     4     3    2
    15     7     6    2
    16     6     1    1
    17     3    11    1
    18     3     2    1
    19    11    12    2
    20     2     1    2
    21     1    14    1
    22    17    14    2
    23    14    15   am
    24    15    16    1
    25    15    18    1
    26    18    19    2
    27    18    24    1
    28    19    20    1
    29    24    22    2
    30    20    21    2
    31    22    21    1
    32    22    23    1
