@<TRIPOS>MOLECULE
12977_out_ligand_01.pdbqt
 31 34 0 0 0
SMALL
GASTEIGER

@<TRIPOS>ATOM
      1  C         21.6850  -22.9550   -8.8670 C.2     1  UNL1        0.0320
      2  C         21.2940  -24.2800   -9.0990 C.2     1  UNL1        0.0200
      3  C         20.1380  -24.7800   -8.4930 C.2     1  UNL1        0.0380
      4  C         19.3660  -23.9640   -7.6600 C.2     1  UNL1        0.0780
      5  C         19.7750  -22.6530   -7.4000 C.2     1  UNL1        0.0380
      6  C         20.9320  -22.1510   -8.0020 C.2     1  UNL1        0.0200
      7  O         18.2500  -24.5610   -7.1140 O.2     1  UNL1       -0.2900
      8  C         17.2760  -23.7180   -6.6240 C.2     1  UNL1        0.2060
      9  N         17.4530  -23.2910   -5.3440 N.2     1  UNL1       -0.2330
     10  C         16.4690  -22.5020   -4.8600 C.2     1  UNL1        0.1380
     11  C         15.3570  -22.1580   -5.6100 C.2     1  UNL1        0.1370
     12  N         15.1680  -22.5910   -6.8770 N.2     1  UNL1       -0.2480
     13  C         16.1430  -23.3950   -7.3830 C.2     1  UNL1        0.1510
     14  S         15.8750  -23.9930   -9.0400 S.3     1  UNL1       -0.0660
     15  C         16.7990  -22.7760   -9.9580 C.2     1  UNL1        0.0070
     16  C         18.0290  -23.1000  -10.5390 C.2     1  UNL1        0.0190
     17  C         18.7430  -22.1380  -11.2580 C.2     1  UNL1        0.0010
     18  C         18.2260  -20.8520  -11.4050 C.2     1  UNL1        0.0000
     19  C         16.9960  -20.5260  -10.8370 C.2     1  UNL1        0.0010
     20  C         16.2820  -21.4870  -10.1170 C.2     1  UNL1        0.0190
     21  C         22.9130  -22.3820   -9.4870 C.2     1  UNL1        0.2560
     22  O         23.2600  -21.2560   -9.1500 O.2     1  UNL1       -0.2670
     23  N         23.5180  -23.1920  -10.4300 N.am    1  UNL1       -0.3230
     24  H         23.0270  -24.0390  -10.6900 H       1  UNL1        0.1690
     25  C         24.7070  -22.9310  -11.1460 C.2     1  UNL1        0.0370
     26  C         25.9870  -23.2240  -10.6680 C.2     1  UNL1        0.0290
     27  C         27.1210  -22.9410  -11.4400 C.2     1  UNL1        0.0050
     28  C         26.9810  -22.3660  -12.7000 C.2     1  UNL1        0.0420
     29  C         25.7090  -22.0800  -13.1750 C.2     1  UNL1        0.1180
     30  F         25.5660  -21.5300  -14.3880 F       1  UNL1       -0.2060
     31  C         24.5760  -22.3560  -12.4150 C.2     1  UNL1        0.0710
@<TRIPOS>BOND
     1    30    29    1
     2    29    28    2
     3    29    31    1
     4    28    27    1
     5    31    25    2
     6    27    26    2
     7    18    17    2
     8    18    19    1
     9    17    16    1
    10    25    26    1
    11    25    23    1
    12    19    20    2
    13    24    23    1
    14    16    15    2
    15    23    21   am
    16    20    15    1
    17    15    14    1
    18    21    22    2
    19    21     1    1
    20     2     1    2
    21     2     3    1
    22    14    13    1
    23     1     6    1
    24     3     4    2
    25     6     5    2
    26     4     5    1
    27     4     7    1
    28    13    12    2
    29    13     8    1
    30     7     8    1
    31    12    11    1
    32     8     9    2
    33    11    10    2
    34     9    10    1
