@<TRIPOS>MOLECULE
12987_out_ligand_01.pdbqt
 31 35 0 0 0
SMALL
GASTEIGER

@<TRIPOS>ATOM
      1  N         19.2940  -23.4190   -8.7800 N.pl3   1  UNL1       -0.2810
      2  C         19.2110  -22.6570   -9.8300 C.ar    1  UNL1        0.1620
      3  C         17.9380  -21.9970  -10.2810 C.ar    1  UNL1        0.0840
      4  C         16.6990  -22.1550   -9.7740 C.3     1  UNL1        0.0580
      5  C         18.0350  -21.0110  -11.4380 C.ar    1  UNL1        0.2830
      6  O         17.0580  -20.3560  -11.7860 O.2     1  UNL1       -0.2650
      7  N         19.2430  -20.8750  -12.0930 N.ar    1  UNL1       -0.1820
      8  C         20.2590  -21.5290  -11.6600 C.ar    1  UNL1        0.2010
      9  S         21.8230  -21.3950  -12.4250 S.2     1  UNL1       -0.0330
     10  C         22.4220  -22.5040  -11.2000 C.ar    1  UNL1        0.1030
     11  N         21.5660  -22.9510  -10.3270 N.ar    1  UNL1       -0.1610
     12  N         20.3280  -22.3890  -10.5970 N.ar    1  UNL1       -0.1890
     13  H         20.2800  -23.7160   -8.7130 H       1  UNL1        0.1880
     14  C         16.2860  -23.0230   -8.7280 C.2     1  UNL1        0.0770
     15  C         15.7890  -24.3200   -8.7400 C.2     1  UNL1        0.0400
     16  C         15.4950  -24.6880   -7.4060 C.2     1  UNL1        0.0470
     17  C         15.7740  -23.5900   -6.6270 C.2     1  UNL1        0.1130
     18  O         16.2310  -22.5840   -7.4220 O.2     1  UNL1       -0.3040
     19  S         15.5880  -23.4310   -4.9020 S.3     1  UNL1       -0.0980
     20  C         17.3150  -23.6120   -4.3620 C.3     1  UNL1        0.1460
     21  C         18.1050  -22.3970   -4.6900 C.2     1  UNL1        0.0620
     22  C         18.2990  -21.1870   -4.0560 C.2     1  UNL1        0.0350
     23  C         19.1600  -20.4300   -4.8860 C.2     1  UNL1        0.0270
     24  C         19.4310  -21.2190   -5.9760 C.2     1  UNL1        0.1420
     25  O         18.7920  -22.4130   -5.8700 O.2     1  UNL1       -0.3260
     26  C         23.8780  -22.9040  -11.2420 C.3     1  UNL1        0.0470
     27  C         24.7330  -21.7810  -10.6310 C.3     1  UNL1        0.0110
     28  C         26.1600  -21.8140  -11.1620 C.3     1  UNL1        0.0010
     29  C         26.2080  -21.6010  -12.6730 C.3     1  UNL1        0.0000
     30  C         24.9700  -22.1180  -13.4060 C.3     1  UNL1        0.0010
     31  C         24.3090  -23.2810  -12.6700 C.3     1  UNL1        0.0110
@<TRIPOS>BOND
     1    30    29    1
     2    30    31    1
     3    29    28    1
     4    31    26    1
     5     9     8   ar
     6     9    10   ar
     7     7     8   ar
     8     7     5   ar
     9     6     5    2
    10     8    12   ar
    11     5     3   ar
    12    26    10    1
    13    26    27    1
    14    10    11   ar
    15    28    27    1
    16    12    11   ar
    17    12     2   ar
    18     3     2   ar
    19     3     4    1
    20     2     1    1
    21     4    14    1
    22     1    13    1
    23    15    14    2
    24    15    16    1
    25    14    18    1
    26    18    17    1
    27    16    17    2
    28    17    19    1
    29    24    25    1
    30    24    23    2
    31    25    21    1
    32    19    20    1
    33    23    22    1
    34    21    20    1
    35    21    22    2
