@<TRIPOS>MOLECULE
12994_out_ligand_01.pdbqt
 40 44 0 0 0
SMALL
GASTEIGER

@<TRIPOS>ATOM
      1  N         21.5200  -23.3970  -10.1330 N.ar    1  UNL1       -0.2610
      2  C         21.0720  -22.4880  -11.0780 C.ar    1  UNL1        0.2640
      3  O         21.7660  -22.0550  -11.9980 O.2     1  UNL1       -0.2670
      4  C         19.6780  -22.0370  -10.9590 C.ar    1  UNL1        0.0590
      5  C         19.1800  -21.1000  -11.8810 C.2     1  UNL1        0.0190
      6  C         17.8670  -20.6560  -11.7850 C.2     1  UNL1        0.0010
      7  C         17.0530  -21.1500  -10.7720 C.2     1  UNL1        0.0020
      8  C         17.5530  -22.0840   -9.8580 C.2     1  UNL1        0.0310
      9  C         18.8780  -22.5430   -9.9360 C.ar    1  UNL1        0.0550
     10  N         19.4240  -23.4920   -9.0240 N.ar    1  UNL1       -0.2940
     11  C         20.7400  -23.9380   -9.1200 C.ar    1  UNL1        0.3320
     12  O         21.1890  -24.7910   -8.3490 O.2     1  UNL1       -0.2460
     13  C         22.9050  -23.8420  -10.2330 C.3     1  UNL1        0.1750
     14  C         23.7890  -22.8210  -10.9210 C.2     1  UNL1       -0.0400
     15  C         24.2410  -21.6880  -10.2310 C.2     1  UNL1        0.0100
     16  C         25.0500  -20.7440  -10.8700 C.2     1  UNL1        0.0170
     17  C         25.4230  -20.9210  -12.2070 C.2     1  UNL1        0.0320
     18  C         24.9540  -22.0380  -12.9100 C.2     1  UNL1        0.0170
     19  C         24.1440  -22.9810  -12.2690 C.2     1  UNL1        0.0100
     20  C         26.2920  -19.8920  -12.8430 C.2     1  UNL1        0.2510
     21  O         27.0580  -19.2210  -12.1620 O.2     1  UNL1       -0.2680
     22  N         26.2100  -19.7870  -14.2170 N.am    1  UNL1       -0.3570
     23  H         25.7730  -20.5390  -14.7320 H       1  UNL1        0.1620
     24  C         27.1130  -18.9280  -14.9620 C.3     1  UNL1        0.1270
     25  C         27.1130  -19.2190  -16.4670 C.3     1  UNL1        0.0580
     26  C         26.2050  -20.3710  -16.8410 C.2     1  UNL1       -0.0570
     27  C         26.5130  -21.6790  -16.4450 C.2     1  UNL1        0.0090
     28  C         25.6810  -22.7400  -16.8070 C.2     1  UNL1        0.0240
     29  C         24.5380  -22.4960  -17.5670 C.2     1  UNL1        0.0340
     30 CL         23.5130  -23.8030  -18.0120 Cl      1  UNL1       -0.0840
     31  C         24.2210  -21.2020  -17.9690 C.2     1  UNL1        0.0240
     32  C         25.0540  -20.1410  -17.6070 C.2     1  UNL1        0.0090
     33  C         18.6040  -24.0550   -7.9430 C.3     1  UNL1        0.1720
     34  C         18.5510  -23.1940   -6.6970 C.2     1  UNL1       -0.0400
     35  C         17.7790  -23.5940   -5.5940 C.2     1  UNL1        0.0120
     36  C         17.7050  -22.7920   -4.4530 C.2     1  UNL1        0.0430
     37  C         18.3900  -21.5840   -4.4150 C.2     1  UNL1        0.1160
     38  F         18.3110  -20.8170   -3.3200 F       1  UNL1       -0.2060
     39  C         19.1470  -21.1600   -5.4960 C.2     1  UNL1        0.0430
     40  C         19.2250  -21.9610   -6.6380 C.2     1  UNL1        0.0120
@<TRIPOS>BOND
     1    30    29    1
     2    31    32    1
     3    31    29    2
     4    32    26    2
     5    29    28    1
     6    26    25    1
     7    26    27    1
     8    28    27    2
     9    25    24    1
    10    24    22    1
    11    23    22    1
    12    22    20   am
    13    18    19    1
    14    18    17    2
    15    20    17    1
    16    20    21    2
    17    19    14    2
    18    17    16    1
    19     3     2    2
    20     5     6    1
    21     5     4    2
    22     6     7    2
    23     2     4   ar
    24     2     1   ar
    25     4     9   ar
    26    14    13    1
    27    14    15    1
    28    16    15    2
    29     7     8    1
    30    13     1    1
    31     1    11   ar
    32     9     8    2
    33     9    10   ar
    34    11    10   ar
    35    11    12    2
    36    10    33    1
    37    33    34    1
    38    34    40    2
    39    34    35    1
    40    40    39    1
    41    35    36    2
    42    39    37    2
    43    36    37    1
    44    37    38    1
