@<TRIPOS>MOLECULE
129_out_ligand_01.pdbqt
 31 33 0 0 0
SMALL
GASTEIGER

@<TRIPOS>ATOM
      1  C         17.6510  -22.6330   -9.1730 C.2     1  UNL1        0.0750
      2  C         17.1540  -21.9440  -10.2800 C.2     1  UNL1        0.0250
      3  C         18.0360  -21.5090  -11.2720 C.2     1  UNL1        0.0090
      4  C         19.4130  -21.7770  -11.1790 C.2     1  UNL1       -0.0460
      5  C         20.3280  -21.2850  -12.2660 C.3     1  UNL1        0.0490
      6  C         19.8940  -22.4850  -10.0590 C.2     1  UNL1        0.0390
      7  C         19.0150  -22.9150   -9.0570 C.2     1  UNL1        0.0420
      8  S         16.5430  -23.2000   -7.9070 S.O2    1  UNL1        0.2460
      9  O         15.8160  -22.0630   -7.3880 O.2     1  UNL1       -0.2060
     10  O         15.8470  -24.3460   -8.4570 O.2     1  UNL1       -0.2060
     11  N         17.6120  -23.8040   -6.7370 N.pl3   1  UNL1       -0.1790
     12  H         17.2730  -24.7240   -6.4460 H       1  UNL1        0.1460
     13  C         17.8940  -22.9390   -5.6320 C.2     1  UNL1        0.0560
     14  C         18.7520  -21.8530   -5.8010 C.2     1  UNL1        0.0270
     15  C         18.9690  -20.9730   -4.7400 C.2     1  UNL1        0.0020
     16  C         18.3260  -21.1800   -3.5190 C.2     1  UNL1        0.0030
     17  C         17.4600  -22.2650   -3.3500 C.2     1  UNL1        0.0380
     18  C         17.2280  -23.1430   -4.4110 C.2     1  UNL1        0.0900
     19  O         16.4160  -24.2480   -4.3410 O.2     1  UNL1       -0.3540
     20  C         15.0190  -23.9740   -4.3670 C.3     1  UNL1        0.2100
     21  C         21.3410  -22.7860   -9.9050 C.2     1  UNL1        0.2520
     22  O         21.7250  -23.9360   -9.7380 O.2     1  UNL1       -0.2680
     23  N         22.1670  -21.6840   -9.9400 N.am    1  UNL1       -0.3530
     24  H         21.7470  -20.7640   -9.8940 H       1  UNL1        0.1630
     25  C         23.5780  -21.7900   -9.6410 C.3     1  UNL1        0.1620
     26  C         24.4030  -21.7510  -10.8930 C.2     1  UNL1       -0.0230
     27  C         24.0100  -22.4380  -12.0450 C.2     1  UNL1        0.0120
     28  C         24.8120  -22.3990  -13.1820 C.2     1  UNL1        0.0200
     29  C         25.9890  -21.6740  -13.1280 C.2     1  UNL1        0.1160
     30  N         26.4060  -21.0020  -12.0340 N.2     1  UNL1       -0.2730
     31  C         25.6070  -21.0570  -10.9440 C.2     1  UNL1        0.1240
@<TRIPOS>BOND
     1    28    29    2
     2    28    27    1
     3    29    30    1
     4     5     4    1
     5    27    26    2
     6    30    31    2
     7     3     4    2
     8     3     2    1
     9     4     6    1
    10    31    26    1
    11    26    25    1
    12     2     1    2
    13     6    21    1
    14     6     7    2
    15    23    21   am
    16    23    24    1
    17    23    25    1
    18    21    22    2
    19     1     7    1
    20     1     8    1
    21    10     8    2
    22     8     9    2
    23     8    11    1
    24    11    12    1
    25    11    13    1
    26    14    13    2
    27    14    15    1
    28    13    18    1
    29    15    16    2
    30    18    19    1
    31    18    17    2
    32    20    19    1
    33    16    17    1
