@<TRIPOS>MOLECULE
1300_out_ligand_01.pdbqt
 35 39 0 0 0
SMALL
GASTEIGER

@<TRIPOS>ATOM
      1  O         19.7520  -21.3990   -6.4790 O.2     1  UNL1       -0.2670
      2  C         19.8500  -22.3860   -7.1980 C.2     1  UNL1        0.2560
      3  N         18.8760  -23.3400   -7.4140 N.am    1  UNL1       -0.3200
      4  H         19.0070  -23.9830   -8.1910 H       1  UNL1        0.1690
      5  C         21.1050  -22.5850   -7.9760 C.2     1  UNL1        0.0320
      6  C         21.2740  -23.7830   -8.6780 C.2     1  UNL1        0.0170
      7  C         22.4320  -23.9940   -9.4310 C.2     1  UNL1        0.0100
      8  C         23.4260  -23.0030   -9.5110 C.2     1  UNL1       -0.0300
      9  C         23.2470  -21.8020   -8.8040 C.2     1  UNL1        0.0100
     10  C         22.0900  -21.5900   -8.0450 C.2     1  UNL1        0.0170
     11  C         24.6810  -23.2290  -10.3330 C.3     1  UNL1        0.3110
     12  N         24.8310  -22.2850  -11.4500 N.pl3   1  UNL1        0.0970
     13  C         24.4220  -22.9170  -12.7170 C.2     1  UNL1        0.2770
     14  C         24.8010  -22.1660  -14.0240 C.2     1  UNL1        0.0690
     15  C         25.5970  -20.9030  -13.8300 C.2     1  UNL1       -0.0490
     16  C         25.7060  -19.9640  -14.8560 C.2     1  UNL1        0.0070
     17  C         26.2730  -20.6910  -12.6180 C.2     1  UNL1       -0.0240
     18  C         26.4580  -18.8040  -14.6690 C.2     1  UNL1        0.0010
     19  C         27.1210  -18.5890  -13.4580 C.2     1  UNL1        0.0010
     20  C         27.0370  -19.5320  -12.4380 C.2     1  UNL1        0.0090
     21  C         26.1960  -21.7520  -11.5490 C.3     1  UNL1        0.3110
     22  C         17.6260  -23.4490   -6.7640 C.2     1  UNL1        0.0700
     23  C         17.4260  -23.1710   -5.4090 C.2     1  UNL1        0.0560
     24  C         16.1580  -23.3200   -4.8440 C.2     1  UNL1        0.0360
     25 CL         15.9200  -22.9860   -3.1680 Cl      1  UNL1       -0.0840
     26  C         15.0780  -23.7480   -5.6140 C.2     1  UNL1        0.0260
     27  C         15.2640  -24.0340   -6.9650 C.2     1  UNL1        0.0410
     28  C         16.5300  -23.8720   -7.5360 C.2     1  UNL1        0.1020
     29  O         16.7500  -24.1760   -8.8670 O.2     1  UNL1       -0.3090
     30  C         17.0470  -23.1150   -9.7030 C.2     1  UNL1        0.0760
     31  C         18.2570  -23.1810  -10.3980 C.2     1  UNL1        0.0370
     32  C         18.6400  -22.1310  -11.2390 C.2     1  UNL1        0.0030
     33  C         17.8210  -21.0110  -11.3780 C.2     1  UNL1        0.0000
     34  C         16.6220  -20.9350  -10.6670 C.2     1  UNL1        0.0030
     35  C         16.2340  -21.9830   -9.8200 C.2     1  UNL1        0.0370
@<TRIPOS>BOND
     1    16    18    1
     2    16    15    2
     3    18    19    2
     4    14    15    1
     5    14    13    2
     6    15    17    1
     7    19    20    1
     8    13    12    1
     9    17    20    2
    10    17    21    1
    11    21    12    1
    12    12    11    1
    13    33    32    2
    14    33    34    1
    15    32    31    1
    16    34    35    2
    17    31    30    2
    18    11     8    1
    19    35    30    1
    20    30    29    1
    21     8     7    2
    22     8     9    1
    23     7     6    1
    24    29    28    1
    25     9    10    2
    26     6     5    2
    27     4     3    1
    28    10     5    1
    29     5     2    1
    30    28    27    1
    31    28    22    2
    32     3     2   am
    33     3    22    1
    34     2     1    2
    35    27    26    2
    36    22    23    1
    37    26    24    1
    38    23    24    2
    39    24    25    1
