@<TRIPOS>MOLECULE
13040_out_ligand_01.pdbqt
 35 39 0 0 0
SMALL
GASTEIGER

@<TRIPOS>ATOM
      1  C         23.1320  -22.6880  -11.2620 C.2     1  UNL1       -0.0040
      2  C         22.9140  -23.2010   -9.8390 C.2     1  UNL1        0.0580
      3  C         24.0460  -23.8940   -9.1120 C.3     1  UNL1        0.0720
      4  N         21.8040  -23.1090   -9.1650 N.2     1  UNL1       -0.0650
      5  C         20.7430  -22.5440   -9.7890 C.cat   1  UNL1        0.7520
      6  N         19.5340  -22.3230   -9.3270 N.2     1  UNL1       -0.0330
      7  C         18.8770  -21.8090  -10.3960 C.2     1  UNL1        0.2270
      8  N         19.5880  -21.7000  -11.5210 N.pl3   1  UNL1       -0.1240
      9  N         20.8160  -22.1250  -11.1170 N.pl3   1  UNL1       -0.0610
     10  C         22.0120  -22.1920  -11.8540 C.3     1  UNL1        0.0590
     11  C         21.9160  -21.6800  -13.2680 C.3     1  UNL1        0.0720
     12  S         17.1940  -21.3750  -10.3200 S.3     1  UNL1       -0.0790
     13  C         16.4230  -23.0130  -10.3390 C.3     1  UNL1        0.1850
     14  C         16.1070  -23.4860   -8.9290 C.2     1  UNL1        0.2270
     15  O         15.5320  -24.5470   -8.7070 O.2     1  UNL1       -0.2730
     16  N         16.5260  -22.6250   -7.9410 N.am    1  UNL1       -0.3520
     17  H         17.0280  -21.7850   -8.2000 H       1  UNL1        0.1630
     18  C         16.3010  -22.8830   -6.5280 C.3     1  UNL1        0.1180
     19  C         14.8710  -22.4510   -6.1610 C.3     1  UNL1        0.0300
     20  C         14.5460  -22.5260   -4.6630 C.3     1  UNL1        0.0070
     21  C         15.7470  -22.8220   -3.7610 C.3     1  UNL1        0.0390
     22  C         16.9900  -22.1220   -4.2470 C.2     1  UNL1       -0.0500
     23  C         17.8700  -21.5050   -3.3540 C.2     1  UNL1        0.0070
     24  C         17.2850  -22.1560   -5.6250 C.2     1  UNL1       -0.0290
     25  C         19.0330  -20.9040   -3.8240 C.2     1  UNL1        0.0010
     26  C         19.3360  -20.9370   -5.1840 C.2     1  UNL1        0.0010
     27  C         18.4730  -21.5680   -6.0800 C.2     1  UNL1        0.0100
     28  C         24.4900  -22.8310  -11.9120 C.3     1  UNL1        0.0820
     29  C         25.2920  -21.5530  -12.0900 C.2     1  UNL1       -0.0480
     30  C         25.7800  -20.9090  -10.9330 C.2     1  UNL1        0.0080
     31  C         26.5010  -19.7170  -11.0110 C.2     1  UNL1        0.0010
     32  C         26.7830  -19.1630  -12.2510 C.2     1  UNL1        0.0010
     33  C         26.3520  -19.8070  -13.4090 C.2     1  UNL1        0.0070
     34  C         25.6170  -21.0070  -13.3500 C.2     1  UNL1       -0.0550
     35  C         25.2060  -21.6490  -14.6460 C.3     1  UNL1        0.0490
@<TRIPOS>BOND
     1    35    34    1
     2    33    34    1
     3    33    32    2
     4    34    29    2
     5    11    10    1
     6    32    31    1
     7    29    28    1
     8    29    30    1
     9    28     1    1
    10    10     1    1
    11    10     9    1
    12     8     9    1
    13     8     7    1
    14     1     2    2
    15     9     5    1
    16    31    30    2
    17     7    12    1
    18     7     6    2
    19    13    12    1
    20    13    14    1
    21     2     4    1
    22     2     3    1
    23     5     6    1
    24     5     4    2
    25    14    15    2
    26    14    16   am
    27    17    16    1
    28    16    18    1
    29    18    19    1
    30    18    24    1
    31    19    20    1
    32    27    24    1
    33    27    26    2
    34    24    22    2
    35    26    25    1
    36    20    21    1
    37    22    21    1
    38    22    23    1
    39    25    23    2
