@<TRIPOS>MOLECULE
13076_out_ligand_01.pdbqt
 30 33 0 0 0
SMALL
GASTEIGER

@<TRIPOS>ATOM
      1  C         17.7370  -21.5490  -10.6130 C.ar    1  UNL1        0.1580
      2  N         17.4210  -20.5990  -11.5000 N.ar    1  UNL1       -0.1110
      3  O         18.5950  -20.4570  -12.2420 O.2     1  UNL1       -0.1890
      4  C         19.5010  -21.3490  -11.7310 C.ar    1  UNL1        0.2230
      5  C         20.8270  -21.5090  -12.2230 C.2     1  UNL1        0.0890
      6  C         21.4920  -20.8620  -13.2440 C.2     1  UNL1        0.0480
      7  C         22.8060  -21.4030  -13.3200 C.2     1  UNL1       -0.0070
      8  C         23.9220  -21.1530  -14.1420 C.2     1  UNL1        0.0200
      9  C         25.1100  -21.8780  -13.9470 C.2     1  UNL1       -0.0610
     10  C         26.2920  -21.6390  -14.8420 C.3     1  UNL1        0.0480
     11  C         25.1660  -22.8620  -12.9540 C.2     1  UNL1        0.0090
     12  C         24.0700  -23.1290  -12.1250 C.2     1  UNL1        0.0310
     13  C         22.9070  -22.3820  -12.3320 C.2     1  UNL1        0.0430
     14  N         21.6950  -22.4240  -11.6830 N.pl3   1  UNL1       -0.3520
     15  N         19.0120  -22.0470  -10.7260 N.ar    1  UNL1       -0.2030
     16  H         21.4650  -23.0410  -10.9160 H       1  UNL1        0.1660
     17  C         16.7730  -22.0480   -9.6020 C.3     1  UNL1        0.1030
     18  C         16.8180  -23.5680   -9.4160 C.3     1  UNL1        0.1330
     19  N         16.6450  -24.0190   -8.0260 N.am    1  UNL1       -0.3520
     20  C         17.6980  -24.2060   -7.1240 C.2     1  UNL1        0.2540
     21  O         17.5880  -24.7870   -6.0480 O.2     1  UNL1       -0.2670
     22  C         15.3580  -24.5940   -7.6660 C.3     1  UNL1        0.1520
     23  C         19.0320  -23.6790   -7.4800 C.2     1  UNL1        0.0380
     24  C         19.8490  -24.4740   -8.2900 C.2     1  UNL1        0.0180
     25  C         21.1110  -24.0160   -8.6620 C.2     1  UNL1        0.0080
     26  C         21.5650  -22.7660   -8.2270 C.2     1  UNL1       -0.0610
     27  C         22.9390  -22.2870   -8.5980 C.3     1  UNL1        0.0480
     28  C         20.7540  -21.9940   -7.3790 C.2     1  UNL1        0.0140
     29  C         19.4840  -22.4430   -6.9860 C.2     1  UNL1       -0.0460
     30  C         18.6410  -21.6060   -6.0670 C.3     1  UNL1        0.0490
@<TRIPOS>BOND
     1    10     9    1
     2     8     9    1
     3     8     7    2
     4     9    11    2
     5     7     6    1
     6     7    13    1
     7     6     5    2
     8    11    12    1
     9    13    12    2
    10    13    14    1
    11     3     4   ar
    12     3     2   ar
    13     5     4    1
    14     5    14    1
    15     4    15   ar
    16    14    16    1
    17     2     1   ar
    18    15     1   ar
    19     1    17    1
    20    17    18    1
    21    18    19    1
    22    25    24    1
    23    25    26    2
    24    27    26    1
    25    24    23    2
    26    26    28    1
    27    19    22    1
    28    19    20   am
    29    23    20    1
    30    23    29    1
    31    28    29    2
    32    20    21    2
    33    29    30    1
