@<TRIPOS>MOLECULE
13088_out_ligand_01.pdbqt
 35 39 0 0 0
SMALL
GASTEIGER

@<TRIPOS>ATOM
      1  S         15.9710  -23.4530   -9.5270 S.3     1  UNL1       -0.0870
      2  C         16.4340  -21.7840  -10.0630 C.3     1  UNL1        0.1210
      3  C         17.8230  -21.6710  -10.6420 C.2     1  UNL1       -0.0480
      4  C         18.6130  -22.8190  -10.8000 C.2     1  UNL1        0.0090
      5  C         19.8860  -22.7330  -11.3670 C.2     1  UNL1        0.0170
      6  C         20.3940  -21.4940  -11.7720 C.2     1  UNL1        0.0320
      7  C         19.6140  -20.3420  -11.6230 C.2     1  UNL1        0.0170
      8  C         18.3360  -20.4310  -11.0580 C.2     1  UNL1        0.0090
      9  C         21.7520  -21.4500  -12.3750 C.2     1  UNL1        0.2520
     10  O         21.8960  -21.0860  -13.5370 O.2     1  UNL1       -0.2680
     11  N         22.7840  -21.8830  -11.5720 N.am    1  UNL1       -0.3520
     12  H         22.5680  -22.3430  -10.7010 H       1  UNL1        0.1630
     13  C         24.1520  -21.9300  -12.0700 C.3     1  UNL1        0.0840
     14  C         25.1480  -21.4330  -11.0050 C.3     1  UNL1        0.0250
     15  C         26.5530  -22.0260  -11.1610 C.3     1  UNL1        0.0020
     16  C         26.8760  -22.3300  -12.6160 C.3     1  UNL1        0.0000
     17  C         25.9070  -23.3630  -13.1980 C.3     1  UNL1        0.0020
     18  C         24.5150  -23.3320  -12.5510 C.3     1  UNL1        0.0250
     19  C         16.0580  -23.2860   -7.8050 C.ar    1  UNL1        0.1700
     20  N         15.2110  -22.5850   -7.0850 N.ar    1  UNL1       -0.2220
     21  C         15.6440  -22.7010   -5.7920 C.ar    1  UNL1        0.0890
     22  C         15.0980  -22.1520   -4.6260 C.2     1  UNL1        0.0530
     23  C         16.8000  -23.4770   -5.7230 C.ar    1  UNL1        0.0830
     24  C         15.7830  -22.4280   -3.4570 C.2     1  UNL1        0.1180
     25  N         16.9200  -23.1740   -3.3840 N.2     1  UNL1       -0.2710
     26  C         17.4440  -23.7080   -4.5140 C.2     1  UNL1        0.1480
     27  N         17.0330  -23.8710   -7.0290 N.ar    1  UNL1       -0.3190
     28  C         18.1520  -24.6880   -7.4790 C.3     1  UNL1        0.1700
     29  C         19.4180  -23.8890   -7.6980 C.2     1  UNL1       -0.0400
     30  C         19.5480  -22.5770   -7.2120 C.2     1  UNL1        0.0120
     31  C         20.7160  -21.8370   -7.4430 C.2     1  UNL1        0.0430
     32  C         21.7560  -22.4090   -8.1630 C.2     1  UNL1        0.1160
     33  F         22.8770  -21.7030   -8.3860 F       1  UNL1       -0.2060
     34  C         21.6490  -23.7040   -8.6560 C.2     1  UNL1        0.0430
     35  C         20.4820  -24.4430   -8.4310 C.2     1  UNL1        0.0120
@<TRIPOS>BOND
     1    10     9    2
     2    17    16    1
     3    17    18    1
     4    16    15    1
     5    18    13    1
     6     9     6    1
     7     9    11   am
     8    13    11    1
     9    13    14    1
    10     6     7    2
    11     6     5    1
    12     7     8    1
    13    11    12    1
    14     5     4    2
    15    15    14    1
    16     8     3    2
    17     4     3    1
    18     3     2    1
    19     2     1    1
    20     1    19    1
    21    34    35    1
    22    34    32    2
    23    35    29    2
    24    33    32    1
    25    32    31    1
    26    19    20   ar
    27    19    27   ar
    28    29    28    1
    29    29    30    1
    30    28    27    1
    31    31    30    2
    32    20    21   ar
    33    27    23   ar
    34    21    23   ar
    35    21    22    1
    36    23    26    1
    37    22    24    2
    38    26    25    2
    39    24    25    1
