@<TRIPOS>MOLECULE
13095_out_ligand_01.pdbqt
 33 36 0 0 0
SMALL
GASTEIGER

@<TRIPOS>ATOM
      1  C         21.0840  -22.6050  -10.8950 C.2     1  UNL1       -0.0160
      2  C         20.8320  -21.7720  -12.0070 C.2     1  UNL1        0.0130
      3  C         19.6220  -21.0830  -12.1450 C.2     1  UNL1        0.0430
      4  C         18.6410  -21.2120  -11.1750 C.2     1  UNL1        0.1170
      5  F         17.4840  -20.5450  -11.3020 F       1  UNL1       -0.2060
      6  C         18.8370  -22.0320  -10.0760 C.2     1  UNL1        0.0680
      7  C         20.0420  -22.7470   -9.9450 C.2     1  UNL1        0.0900
      8  S         20.1310  -23.8340   -8.5230 S.O2    1  UNL1        0.2630
      9  O         20.3990  -22.9930   -7.3730 O.2     1  UNL1       -0.2000
     10  O         20.9610  -24.9770   -8.8250 O.2     1  UNL1       -0.2000
     11  N         18.5420  -24.3660   -8.3510 N.pl3   1  UNL1       -0.2810
     12  H         18.4010  -25.3100   -8.7110 H       1  UNL1        0.1790
     13  C         17.6730  -23.8810   -7.3320 C.2     1  UNL1        0.0420
     14  C         17.8580  -24.1650   -5.9770 C.2     1  UNL1        0.0320
     15  C         16.9860  -23.6400   -5.0130 C.2     1  UNL1        0.0380
     16  C         15.9380  -22.8000   -5.4140 C.2     1  UNL1        0.1030
     17  C         15.7620  -22.4830   -6.7670 C.2     1  UNL1        0.0380
     18  C         16.6350  -23.0220   -7.7190 C.2     1  UNL1        0.0320
     19  N         15.0290  -22.2310   -4.4080 N.pl3   1  UNL1       -0.1160
     20  O         14.0930  -21.5240   -4.8110 O.2     1  UNL1       -0.5320
     21  O         15.2500  -22.5000   -3.2180 O.2     1  UNL1       -0.5320
     22  C         22.4220  -23.3140  -10.7360 C.3     1  UNL1        0.1760
     23  N         23.5860  -22.5740  -11.1800 N.am    1  UNL1       -0.2740
     24  C         24.1240  -21.5110  -10.5040 C.2     1  UNL1        0.2800
     25  C         25.2320  -21.0230  -11.3390 C.2     1  UNL1        0.1400
     26  O         23.7770  -21.0550   -9.4330 O.2     1  UNL1       -0.2650
     27  N         26.0480  -19.9920  -11.0600 N.2     1  UNL1       -0.2540
     28  C         25.2890  -21.8100  -12.4630 C.2     1  UNL1        0.0670
     29  C         26.9850  -19.7580  -12.0110 C.2     1  UNL1        0.1170
     30  C         27.1200  -20.5060  -13.1880 C.2     1  UNL1        0.0200
     31  C         26.2450  -21.5700  -13.4260 C.2     1  UNL1        0.0210
     32  C         24.2320  -22.8050  -12.3630 C.2     1  UNL1        0.2630
     33  O         24.0210  -23.6610  -13.2010 O.2     1  UNL1       -0.2670
@<TRIPOS>BOND
     1    31    30    2
     2    31    28    1
     3    33    32    2
     4    30    29    1
     5    28    32    1
     6    28    25    2
     7    32    23   am
     8     3     2    1
     9     3     4    2
    10    29    27    2
    11     2     1    2
    12    25    27    1
    13    25    24    1
    14     5     4    1
    15    23    22    1
    16    23    24   am
    17     4     6    1
    18     1    22    1
    19     1     7    1
    20    24    26    2
    21     6     7    2
    22     7     8    1
    23    10     8    2
    24    12    11    1
    25     8    11    1
    26     8     9    2
    27    11    13    1
    28    18    13    2
    29    18    17    1
    30    13    14    1
    31    17    16    2
    32    14    15    2
    33    16    15    1
    34    16    19    1
    35    20    19    2
    36    19    21    2
