@<TRIPOS>MOLECULE
130_out_ligand_01.pdbqt
 37 40 0 0 0
SMALL
GASTEIGER

@<TRIPOS>ATOM
      1  C         17.2700  -22.4140   -9.9770 C.2     1  UNL1        0.0800
      2  C         16.9110  -21.3400  -10.7980 C.2     1  UNL1        0.0250
      3  C         17.8930  -20.6750  -11.5320 C.2     1  UNL1        0.0030
      4  C         19.2250  -21.0910  -11.4580 C.2     1  UNL1        0.0170
      5  C         19.5740  -22.1880  -10.6580 C.2     1  UNL1        0.0330
      6  C         18.5950  -22.8530   -9.9130 C.2     1  UNL1        0.0420
      7  C         20.9840  -22.6470  -10.5360 C.2     1  UNL1        0.2560
      8  O         21.2410  -23.4920   -9.6890 O.2     1  UNL1       -0.2670
      9  N         21.8580  -22.0790  -11.4440 N.am    1  UNL1       -0.3230
     10  H         21.4520  -21.4940  -12.1660 H       1  UNL1        0.1690
     11  C         23.2500  -22.2870  -11.5340 C.2     1  UNL1        0.0360
     12  C         24.1620  -21.8990  -10.5470 C.2     1  UNL1        0.0290
     13  C         25.5340  -22.1120  -10.7200 C.2     1  UNL1        0.0040
     14  C         26.0090  -22.7260  -11.8750 C.2     1  UNL1        0.0250
     15  C         25.1000  -23.1440  -12.8480 C.2     1  UNL1        0.0810
     16  C         23.7300  -22.9020  -12.6940 C.2     1  UNL1        0.0540
     17  S         25.6940  -23.9020  -14.3470 S.O2    1  UNL1        0.2600
     18  O         27.1210  -23.6620  -14.4090 O.2     1  UNL1       -0.2000
     19  O         25.1550  -25.2450  -14.3940 O.2     1  UNL1       -0.2000
     20  N         24.9640  -23.0030  -15.5650 N.3     1  UNL1       -0.3070
     21  C         25.4900  -21.6670  -15.9040 C.3     1  UNL1        0.1350
     22  C         24.8760  -21.3750  -17.2670 C.3     1  UNL1        0.0220
     23  C         24.8740  -22.7430  -17.9240 C.3     1  UNL1        0.0220
     24  C         24.4710  -23.6730  -16.7860 C.3     1  UNL1        0.1350
     25  S         16.0280  -23.2650   -9.0310 S.O2    1  UNL1        0.2630
     26  O         15.5150  -24.3330   -9.8620 O.2     1  UNL1       -0.2000
     27  O         15.1410  -22.2720   -8.4640 O.2     1  UNL1       -0.2000
     28  N         16.9160  -24.0050   -7.8030 N.pl3   1  UNL1       -0.2800
     29  H         17.5680  -24.6980   -8.1620 H       1  UNL1        0.1790
     30  C         17.2900  -23.2610   -6.6440 C.2     1  UNL1        0.0480
     31  C         18.4710  -22.5150   -6.6520 C.2     1  UNL1        0.0310
     32  C         18.8690  -21.8040   -5.5190 C.2     1  UNL1        0.0090
     33  C         18.0890  -21.8310   -4.3610 C.2     1  UNL1       -0.0610
     34  C         18.4940  -21.0380   -3.1530 C.3     1  UNL1        0.0480
     35  C         16.8880  -22.5540   -4.3650 C.2     1  UNL1        0.0150
     36  C         16.4780  -23.2770   -5.4990 C.2     1  UNL1       -0.0340
     37  C         15.1730  -24.0240   -5.4500 C.3     1  UNL1        0.0500
@<TRIPOS>BOND
     1    23    22    1
     2    23    24    1
     3    22    21    1
     4    24    20    1
     5    21    20    1
     6    20    17    1
     7    18    17    2
     8    19    17    2
     9    17    15    1
    10    15    16    1
    11    15    14    2
    12    16    11    2
    13    10     9    1
    14    14    13    1
    15    11     9    1
    16    11    12    1
    17     3     4    2
    18     3     2    1
    19     4     5    1
    20     9     7   am
    21     2     1    2
    22    13    12    2
    23     5     7    1
    24     5     6    2
    25     7     8    2
    26     1     6    1
    27     1    25    1
    28    26    25    2
    29    25    27    2
    30    25    28    1
    31    29    28    1
    32    28    30    1
    33    31    30    2
    34    31    32    1
    35    30    36    1
    36    32    33    2
    37    36    37    1
    38    36    35    2
    39    35    33    1
    40    33    34    1
