@<TRIPOS>MOLECULE
13106_out_ligand_01.pdbqt
 30 33 0 0 0
SMALL
GASTEIGER

@<TRIPOS>ATOM
      1  C         23.3460  -22.6730   -9.3940 C.2     1  UNL1       -0.0400
      2  C         22.9530  -21.6010   -8.5670 C.2     1  UNL1        0.0110
      3  C         21.7370  -21.6270   -7.8740 C.2     1  UNL1        0.0310
      4  C         20.9200  -22.7330   -8.0190 C.2     1  UNL1        0.0430
      5  C         21.3000  -23.7990   -8.8360 C.2     1  UNL1       -0.0290
      6  C         22.5070  -23.7890   -9.5230 C.2     1  UNL1        0.0180
      7  C         20.2880  -24.8980   -8.8000 C.2     1  UNL1        0.0610
      8  C         19.1520  -24.2570   -7.9920 C.2     1  UNL1        0.1370
      9  N         19.6610  -22.9860   -7.4430 N.am    1  UNL1       -0.3130
     10  C         19.0420  -22.1900   -6.4940 C.2     1  UNL1        0.2580
     11  O         19.5200  -21.2010   -5.9460 O.2     1  UNL1       -0.2670
     12  C         24.6800  -22.6250  -10.0960 C.3     1  UNL1        0.1610
     13  N         24.5010  -22.8180  -11.5160 N.am    1  UNL1       -0.3530
     14  C         25.5080  -22.5790  -12.4220 C.2     1  UNL1        0.2520
     15  O         26.5890  -22.0830  -12.1390 O.2     1  UNL1       -0.2680
     16  H         23.6250  -23.2100  -11.8310 H       1  UNL1        0.1630
     17  C         25.1920  -22.9700  -13.8220 C.2     1  UNL1        0.0370
     18  C         25.4580  -24.2900  -14.2230 C.2     1  UNL1        0.0170
     19  C         25.1900  -24.6960  -15.5300 C.2     1  UNL1        0.0010
     20  C         24.6660  -23.7840  -16.4420 C.2     1  UNL1        0.0010
     21  C         24.4120  -22.4660  -16.0530 C.2     1  UNL1        0.0070
     22  C         24.6650  -22.0410  -14.7390 C.2     1  UNL1       -0.0460
     23  C         24.3930  -20.6120  -14.3610 C.3     1  UNL1        0.0490
     24  C         17.6830  -22.5860   -6.0650 C.2     1  UNL1        0.0320
     25  C         16.5920  -22.2210   -6.8630 C.2     1  UNL1        0.0200
     26  C         15.3030  -22.5990   -6.4830 C.2     1  UNL1        0.0430
     27  C         15.1230  -23.3490   -5.3230 C.2     1  UNL1        0.1160
     28  F         13.8860  -23.7120   -4.9610 F       1  UNL1       -0.2060
     29  C         16.2070  -23.7350   -4.5370 C.2     1  UNL1        0.0430
     30  C         17.4980  -23.3590   -4.9120 C.2     1  UNL1        0.0200
@<TRIPOS>BOND
     1    20    21    2
     2    20    19    1
     3    21    22    1
     4    19    18    2
     5    22    23    1
     6    22    17    2
     7    18    17    1
     8    17    14    1
     9    14    15    2
    10    14    13   am
    11    16    13    1
    12    13    12    1
    13    12     1    1
    14     6     1    2
    15     6     5    1
    16     1     2    1
    17     5     7    1
    18     5     4    2
    19     7     8    2
    20     2     3    2
    21     4     3    1
    22     4     9    1
    23     8     9    1
    24     9    10   am
    25    25    26    1
    26    25    24    2
    27    10    24    1
    28    10    11    2
    29    26    27    2
    30    24    30    1
    31    27    28    1
    32    27    29    1
    33    30    29    2
