@<TRIPOS>MOLECULE
13103_out_ligand_01.pdbqt
 34 38 0 0 0
SMALL
GASTEIGER

@<TRIPOS>ATOM
      1  N         22.7990  -21.9990  -10.0910 N.pl3   1  UNL1       -0.3400
      2  H         23.1090  -21.2130   -9.5140 H       1  UNL1        0.1670
      3  C         21.8890  -22.7850   -9.3350 C.2     1  UNL1        0.0340
      4  C         21.9040  -24.1760   -9.5250 C.2     1  UNL1        0.0290
      5  C         21.0170  -25.0090   -8.8400 C.2     1  UNL1        0.0030
      6  C         20.0850  -24.4610   -7.9610 C.2     1  UNL1        0.0170
      7  C         20.0370  -23.0750   -7.7780 C.2     1  UNL1        0.0340
      8  C         20.9420  -22.2460   -8.4570 C.2     1  UNL1        0.0460
      9  C         19.0650  -22.4390   -6.8490 C.2     1  UNL1        0.2520
     10  O         19.3790  -21.4230   -6.2400 O.2     1  UNL1       -0.2680
     11  N         17.8250  -23.0370   -6.7560 N.am    1  UNL1       -0.3520
     12  H         17.6250  -23.8640   -7.3000 H       1  UNL1        0.1630
     13  C         16.8130  -22.5590   -5.8240 C.3     1  UNL1        0.0840
     14  C         16.6210  -23.5460   -4.6690 C.3     1  UNL1        0.0250
     15  C         15.6370  -23.0150   -3.6240 C.3     1  UNL1        0.0020
     16  C         14.5960  -22.0510   -4.1950 C.3     1  UNL1        0.0000
     17  C         14.2580  -22.3790   -5.6420 C.3     1  UNL1        0.0020
     18  C         15.4850  -22.2990   -6.5540 C.3     1  UNL1        0.0250
     19  C         22.6930  -21.7460  -11.4270 C.ar    1  UNL1        0.1440
     20  C         21.6030  -21.4600  -12.2440 C.ar    1  UNL1        0.1140
     21  N         21.9990  -21.1530  -13.5310 N.ar    1  UNL1       -0.2250
     22  C         23.3060  -21.2620  -13.4980 C.ar    1  UNL1        0.1530
     23  C         24.2440  -21.0440  -14.5640 C.2     1  UNL1        0.1670
     24  N         23.7890  -21.5920  -12.2570 N.ar    1  UNL1       -0.2880
     25  N         25.5360  -21.1300  -14.3760 N.2     1  UNL1       -0.2680
     26  C         25.9750  -21.4410  -13.0990 C.2     1  UNL1        0.1340
     27  C         25.1590  -21.6660  -12.0540 C.2     1  UNL1        0.1190
     28  C         20.2060  -21.4550  -11.8460 C.2     1  UNL1       -0.0030
     29  C         19.5480  -22.6750  -11.6310 C.2     1  UNL1        0.0170
     30  C         18.2060  -22.6970  -11.2470 C.2     1  UNL1        0.0430
     31  C         17.5250  -21.4990  -11.0660 C.2     1  UNL1        0.1160
     32  F         16.2390  -21.5190  -10.6970 F       1  UNL1       -0.2060
     33  C         18.1640  -20.2790  -11.2570 C.2     1  UNL1        0.0430
     34  C         19.5060  -20.2550  -11.6420 C.2     1  UNL1        0.0170
@<TRIPOS>BOND
     1    23    25    2
     2    23    22    1
     3    25    26    1
     4    21    22   ar
     5    21    20   ar
     6    22    24   ar
     7    26    27    2
     8    24    27    1
     9    24    19   ar
    10    20    28    1
    11    20    19   ar
    12    28    34    2
    13    28    29    1
    14    34    33    1
    15    29    30    2
    16    19     1    1
    17    33    31    2
    18    30    31    1
    19    31    32    1
    20     1     2    1
    21     1     3    1
    22     4     3    2
    23     4     5    1
    24     3     8    1
    25     5     6    2
    26     8     7    2
    27     6     7    1
    28     7     9    1
    29    12    11    1
    30     9    11   am
    31     9    10    2
    32    11    13    1
    33    18    13    1
    34    18    17    1
    35    13    14    1
    36    17    16    1
    37    14    15    1
    38    16    15    1
