@<TRIPOS>MOLECULE
13136_out_ligand_01.pdbqt
 36 40 0 0 0
SMALL
GASTEIGER

@<TRIPOS>ATOM
      1  C         16.7670  -21.5700  -10.0490 C.3     1  UNL1        0.1210
      2  C         18.1330  -21.5410  -10.7020 C.2     1  UNL1       -0.0480
      3  C         18.6740  -20.3430  -11.1940 C.2     1  UNL1        0.0090
      4  C         19.9150  -20.3400  -11.8410 C.2     1  UNL1        0.0170
      5  C         20.6270  -21.5380  -12.0000 C.2     1  UNL1        0.0320
      6  C         20.0930  -22.7360  -11.5190 C.2     1  UNL1        0.0170
      7  C         18.8600  -22.7340  -10.8660 C.2     1  UNL1        0.0090
      8  C         21.9380  -21.5810  -12.7070 C.2     1  UNL1        0.2510
      9  O         22.1070  -20.9150  -13.7240 O.2     1  UNL1       -0.2680
     10  N         22.8870  -22.4230  -12.1600 N.am    1  UNL1       -0.3510
     11  H         22.6180  -23.0630  -11.4210 H       1  UNL1        0.1630
     12  C         24.2260  -22.5380  -12.7270 C.3     1  UNL1        0.1820
     13  C         25.1210  -21.3580  -12.4080 C.2     1  UNL1        0.0510
     14  C         25.5740  -21.1260  -11.1050 C.2     1  UNL1        0.0290
     15  C         26.4120  -20.0400  -10.8620 C.2     1  UNL1        0.0030
     16  C         26.7770  -19.2160  -11.9180 C.2     1  UNL1        0.0190
     17  C         26.3030  -19.5220  -13.1830 C.2     1  UNL1        0.1170
     18  N         25.5020  -20.5760  -13.4510 N.2     1  UNL1       -0.2640
     19  S         16.1850  -23.2260   -9.5790 S.3     1  UNL1       -0.0870
     20  C         16.2500  -23.1390   -7.8490 C.ar    1  UNL1        0.1700
     21  N         15.4230  -22.4360   -7.1130 N.ar    1  UNL1       -0.2220
     22  C         15.8050  -22.6450   -5.8180 C.ar    1  UNL1        0.0890
     23  C         15.2460  -22.1400   -4.6430 C.2     1  UNL1        0.0530
     24  C         16.9160  -23.4800   -5.7620 C.ar    1  UNL1        0.0830
     25  C         15.8750  -22.5150   -3.4740 C.2     1  UNL1        0.1180
     26  N         16.9670  -23.3110   -3.4110 N.2     1  UNL1       -0.2710
     27  C         17.5030  -23.8130   -4.5520 C.2     1  UNL1        0.1480
     28  N         17.1810  -23.8000   -7.0810 N.ar    1  UNL1       -0.3180
     29  C         18.3190  -24.5870   -7.5440 C.3     1  UNL1        0.1730
     30  C         19.5730  -23.7730   -7.7470 C.2     1  UNL1       -0.0010
     31  C         19.6690  -22.4620   -7.2480 C.2     1  UNL1        0.0120
     32  C         20.8310  -21.7030   -7.4520 C.2     1  UNL1        0.0010
     33  C         21.9030  -22.2380   -8.1700 C.2     1  UNL1        0.0030
     34  C         21.8140  -23.5310   -8.6830 C.2     1  UNL1        0.0430
     35  C         20.6550  -24.2830   -8.4730 C.2     1  UNL1        0.1240
     36  F         20.5890  -25.5150   -8.9950 F       1  UNL1       -0.2050
@<TRIPOS>BOND
     1     9     8    2
     2    18    17    1
     3    18    13    2
     4    17    16    2
     5    12    13    1
     6    12    10    1
     7     8    10   am
     8     8     5    1
     9    13    14    1
    10    10    11    1
    11     5     4    2
    12     5     6    1
    13    16    15    1
    14     4     3    1
    15     6     7    2
    16     3     2    2
    17    14    15    2
    18     7     2    1
    19     2     1    1
    20     1    19    1
    21    19    20    1
    22    36    35    1
    23    34    35    1
    24    34    33    2
    25    35    30    2
    26    33    32    1
    27    20    21   ar
    28    20    28   ar
    29    30    29    1
    30    30    31    1
    31    29    28    1
    32    32    31    2
    33    21    22   ar
    34    28    24   ar
    35    22    24   ar
    36    22    23    1
    37    24    27    1
    38    23    25    2
    39    27    26    2
    40    25    26    1
