@<TRIPOS>MOLECULE
13135_out_ligand_01.pdbqt
 36 38 0 0 0
SMALL
GASTEIGER

@<TRIPOS>ATOM
      1  N         25.6210  -21.1530  -12.8260 N.am    1  UNL1       -0.3080
      2  C         26.2960  -19.9370  -12.6910 C.2     1  UNL1        0.0120
      3  C         26.7910  -19.4870  -11.3410 C.3     1  UNL1        0.0680
      4  C         26.4900  -19.1670  -13.7730 C.2     1  UNL1        0.0330
      5  C         26.0360  -19.5640  -15.0920 C.2     1  UNL1       -0.0340
      6  C         26.3580  -18.5910  -16.1970 C.3     1  UNL1        0.0500
      7  C         25.3800  -20.7310  -15.2510 C.2     1  UNL1        0.1180
      8  C         24.9060  -21.1850  -16.5140 C.1     1  UNL1        0.1050
      9  N         24.5420  -21.5010  -17.5680 N.1     1  UNL1       -0.1910
     10  C         25.1180  -21.5950  -14.0580 C.2     1  UNL1        0.2690
     11  O         24.4610  -22.6280  -14.1720 O.2     1  UNL1       -0.2660
     12  C         25.4160  -22.0470  -11.6710 C.3     1  UNL1        0.2350
     13  C         24.0880  -21.8690  -10.9140 C.2     1  UNL1        0.2400
     14  N         23.0480  -22.6450  -11.3960 N.am    1  UNL1       -0.3260
     15  H         23.2750  -23.2340  -12.1860 H       1  UNL1        0.1690
     16  O         24.0290  -21.0970   -9.9600 O.2     1  UNL1       -0.2710
     17  C         21.7180  -22.6970  -10.9400 C.2     1  UNL1        0.0340
     18  C         20.8360  -21.7320  -11.4420 C.2     1  UNL1        0.0300
     19  C         19.5010  -21.7020  -11.0270 C.2     1  UNL1        0.0190
     20  C         19.0240  -22.6490  -10.1150 C.2     1  UNL1        0.0320
     21  C         19.9000  -23.6120   -9.6070 C.2     1  UNL1        0.0190
     22  C         21.2400  -23.6350  -10.0220 C.2     1  UNL1        0.0300
     23  C         17.5980  -22.5720   -9.6960 C.2     1  UNL1        0.2510
     24  N         17.2550  -23.2540   -8.5520 N.am    1  UNL1       -0.3530
     25  H         17.9300  -23.8280   -8.0710 H       1  UNL1        0.1630
     26  O         16.7960  -21.9470  -10.3840 O.2     1  UNL1       -0.2680
     27  C         15.8930  -23.2940   -8.0590 C.3     1  UNL1        0.1640
     28  C         15.8600  -23.2260   -6.5540 C.2     1  UNL1       -0.0070
     29  C         14.9740  -24.0530   -5.8420 C.2     1  UNL1        0.0110
     30  C         14.9390  -24.0330   -4.4450 C.2     1  UNL1        0.0010
     31  C         15.7860  -23.1840   -3.7390 C.2     1  UNL1        0.0030
     32  C         16.6570  -22.3420   -4.4280 C.2     1  UNL1        0.0370
     33  C         16.6730  -22.3470   -5.8260 C.2     1  UNL1        0.0760
     34  O         17.5500  -21.5090   -6.4630 O.2     1  UNL1       -0.3510
     35  C         18.7550  -21.3830   -5.6980 C.3     1  UNL1        0.1710
     36  C         19.9260  -21.7030   -6.6090 C.3     1  UNL1        0.0340
@<TRIPOS>BOND
     1     9     8    3
     2     8     7    1
     3     6     5    1
     4     7     5    2
     5     7    10    1
     6     5     4    1
     7    11    10    2
     8    10     1   am
     9     4     2    2
    10     1     2    1
    11     1    12    1
    12     2     3    1
    13    15    14    1
    14    12    13    1
    15    18    19    1
    16    18    17    2
    17    14    17    1
    18    14    13   am
    19    19    20    2
    20    17    22    1
    21    13    16    2
    22    26    23    2
    23    20    23    1
    24    20    21    1
    25    22    21    2
    26    23    24   am
    27    24    25    1
    28    24    27    1
    29    27    28    1
    30    36    35    1
    31    28    29    2
    32    28    33    1
    33    34    33    1
    34    34    35    1
    35    29    30    1
    36    33    32    2
    37    30    31    2
    38    32    31    1
