@<TRIPOS>MOLECULE
13152_out_ligand_01.pdbqt
 27 29 0 0 0
SMALL
GASTEIGER

@<TRIPOS>ATOM
      1  C         21.0190  -24.1280   -8.6820 C.2     1  UNL1        0.2260
      2  O         20.6100  -25.2820   -8.7860 O.2     1  UNL1       -0.2730
      3  N         20.4030  -23.1050   -7.9770 N.am    1  UNL1       -0.3270
      4  H         20.9020  -22.2240   -7.9320 H       1  UNL1        0.1690
      5  C         19.2060  -23.1660   -7.2360 C.2     1  UNL1        0.0340
      6  C         18.9770  -22.1380   -6.3090 C.2     1  UNL1        0.0310
      7  C         17.8190  -22.1240   -5.5280 C.2     1  UNL1        0.0270
      8  C         16.8820  -23.1480   -5.6730 C.2     1  UNL1        0.0740
      9  C         17.0850  -24.1680   -6.6030 C.2     1  UNL1        0.0270
     10  C         18.2490  -24.1750   -7.3790 C.2     1  UNL1        0.0310
     11  S         15.4120  -23.1330   -4.6820 S.O2    1  UNL1        0.2390
     12  O         15.2120  -24.4530   -4.1310 O.2     1  UNL1       -0.2060
     13  O         14.3830  -22.4270   -5.4080 O.2     1  UNL1       -0.2060
     14  N         15.8920  -22.1670   -3.3880 N.3     1  UNL1       -0.2250
     15  H         15.3060  -21.3420   -3.2630 H       1  UNL1        0.1360
     16  H         16.8750  -21.9160   -3.5110 H       1  UNL1        0.1360
     17  C         22.2870  -23.6930   -9.4050 C.3     1  UNL1        0.1440
     18  C         22.0050  -22.8570  -10.6080 C.2     1  UNL1       -0.0140
     19  C         22.8960  -22.5400  -11.6810 C.2     1  UNL1        0.0060
     20  C         24.2350  -22.8310  -11.9990 C.2     1  UNL1        0.0150
     21  C         22.1640  -21.7620  -12.5680 C.2     1  UNL1        0.0860
     22  C         24.7710  -22.3300  -13.1970 C.2     1  UNL1        0.0070
     23  C         23.9990  -21.5590  -14.0780 C.2     1  UNL1       -0.0590
     24  C         24.6080  -21.0060  -15.3360 C.3     1  UNL1        0.0480
     25  C         22.6670  -21.2500  -13.7630 C.2     1  UNL1        0.0440
     26  O         20.9000  -21.5790  -12.1040 O.2     1  UNL1       -0.3210
     27  C         20.8110  -22.2370  -10.9220 C.2     1  UNL1        0.1510
@<TRIPOS>BOND
     1    24    23    1
     2    23    25    2
     3    23    22    1
     4    25    21    1
     5    22    20    2
     6    21    26    1
     7    21    19    2
     8    26    27    1
     9    20    19    1
    10    19    18    1
    11    27    18    2
    12    18    17    1
    13    17     1    1
    14     2     1    2
    15     1     3   am
    16     3     4    1
    17     3     5    1
    18    10     5    2
    19    10     9    1
    20     5     6    1
    21     9     8    2
    22     6     7    2
    23     8     7    1
    24     8    11    1
    25    13    11    2
    26    11    12    2
    27    11    14    1
    28    16    14    1
    29    14    15    1
