@<TRIPOS>MOLECULE
13174_out_ligand_01.pdbqt
 34 37 0 0 0
SMALL
GASTEIGER

@<TRIPOS>ATOM
      1  C         21.7520  -21.8050  -11.5070 C.2     1  UNL1        0.0360
      2  C         21.3760  -22.8120  -10.6180 C.2     1  UNL1        0.0300
      3  C         20.0410  -22.9440  -10.2200 C.2     1  UNL1        0.0190
      4  C         19.0610  -22.0800  -10.7200 C.2     1  UNL1        0.0320
      5  C         19.4330  -21.0640  -11.6060 C.2     1  UNL1        0.0190
      6  C         20.7710  -20.9340  -11.9990 C.2     1  UNL1        0.0300
      7  N         23.0700  -21.6090  -11.9670 N.am    1  UNL1       -0.3090
      8  C         24.2160  -21.4410  -11.2160 C.2     1  UNL1        0.3270
      9  N         25.3980  -21.3420  -11.9660 N.am    1  UNL1       -0.2960
     10  O         24.2280  -21.3050   -9.9950 O.2     1  UNL1       -0.2460
     11  C         26.4930  -20.5590  -11.3920 C.3     1  UNL1        0.1440
     12  C         25.5450  -21.6800  -13.3470 C.2     1  UNL1        0.0800
     13  C         26.5060  -19.1620  -11.9870 C.3     1  UNL1        0.1010
     14  S         26.8730  -19.2080  -13.7680 S.3     1  UNL1       -0.1060
     15  C         26.1750  -20.7880  -14.2380 C.2     1  UNL1        0.1210
     16  N         26.2960  -21.0370  -15.5660 N.2     1  UNL1       -0.2440
     17  C         25.8180  -22.2000  -16.0510 C.2     1  UNL1        0.0320
     18  C         25.9680  -22.4460  -17.5220 C.3     1  UNL1        0.0700
     19  C         25.2330  -23.1590  -15.2350 C.2     1  UNL1        0.0350
     20  C         25.1170  -22.9230  -13.8590 C.2     1  UNL1       -0.0300
     21  C         24.5930  -24.0500  -13.0070 C.3     1  UNL1        0.0500
     22  H         23.1720  -21.4400  -12.9570 H       1  UNL1        0.1700
     23  C         17.6550  -22.2610  -10.2680 C.2     1  UNL1        0.2510
     24  O         16.7630  -21.5590  -10.7270 O.2     1  UNL1       -0.2680
     25  N         17.4430  -23.2190   -9.2970 N.am    1  UNL1       -0.3570
     26  H         18.2360  -23.6110   -8.8080 H       1  UNL1        0.1620
     27  C         16.1250  -23.4280   -8.7250 C.3     1  UNL1        0.1270
     28  C         16.1500  -24.4100   -7.5510 C.3     1  UNL1        0.0580
     29  C         16.1700  -23.6930   -6.2250 C.2     1  UNL1       -0.0570
     30  C         15.0010  -23.1020   -5.7270 C.2     1  UNL1        0.0070
     31  C         15.0090  -22.4530   -4.4910 C.2     1  UNL1        0.0010
     32  C         16.1820  -22.3930   -3.7410 C.2     1  UNL1        0.0000
     33  C         17.3480  -22.9810   -4.2270 C.2     1  UNL1        0.0010
     34  C         17.3440  -23.6310   -5.4620 C.2     1  UNL1        0.0070
@<TRIPOS>BOND
     1    18    17    1
     2    17    16    2
     3    17    19    1
     4    16    15    1
     5    19    20    2
     6    15    14    1
     7    15    12    2
     8    20    12    1
     9    20    21    1
    10    14    13    1
    11    12     9    1
    12    22     7    1
    13     6     5    1
    14     6     1    2
    15    13    11    1
    16     7     1    1
    17     7     8   am
    18     9    11    1
    19     9     8   am
    20     5     4    2
    21     1     2    1
    22     8    10    2
    23    24    23    2
    24     4    23    1
    25     4     3    1
    26     2     3    2
    27    23    25   am
    28    25    26    1
    29    25    27    1
    30    27    28    1
    31    28    29    1
    32    29    30    2
    33    29    34    1
    34    30    31    1
    35    34    33    2
    36    31    32    2
    37    33    32    1
