@<TRIPOS>MOLECULE
13172_out_ligand_01.pdbqt
 34 37 0 0 0
SMALL
GASTEIGER

@<TRIPOS>ATOM
      1  C         19.4870  -23.2100   -9.7520 C.2     1  UNL1        0.0340
      2  C         20.6930  -23.7930   -9.3320 C.2     1  UNL1        0.0310
      3  C         21.9030  -23.4540   -9.9430 C.2     1  UNL1        0.0270
      4  C         21.9090  -22.5280  -10.9870 C.2     1  UNL1        0.0750
      5  C         20.7220  -21.9240  -11.4010 C.2     1  UNL1        0.0270
      6  C         19.5130  -22.2710  -10.7870 C.2     1  UNL1        0.0310
      7  N         18.3130  -23.6270   -9.0930 N.am    1  UNL1       -0.3270
      8  C         17.0970  -22.9610   -9.0290 C.2     1  UNL1        0.2260
      9  O         16.8480  -21.8560   -9.5010 O.2     1  UNL1       -0.2730
     10  H         18.3690  -24.5230   -8.6280 H       1  UNL1        0.1690
     11  C         16.0280  -23.7510   -8.2850 C.3     1  UNL1        0.1440
     12  C         16.0450  -23.4560   -6.8250 C.2     1  UNL1       -0.0140
     13  C         15.1230  -23.8820   -5.8890 C.2     1  UNL1        0.1510
     14  O         15.4300  -23.4190   -4.6530 O.2     1  UNL1       -0.3210
     15  C         16.5720  -22.6920   -4.7730 C.2     1  UNL1        0.0850
     16  C         17.2330  -22.0510   -3.7290 C.2     1  UNL1        0.0390
     17  C         17.0000  -22.6800   -6.0950 C.2     1  UNL1        0.0070
     18  C         18.4020  -21.3570   -4.0600 C.2     1  UNL1        0.0090
     19  C         18.8740  -21.3030   -5.3790 C.2     1  UNL1       -0.0610
     20  C         20.1570  -20.5850   -5.6890 C.3     1  UNL1        0.0480
     21  C         18.1800  -21.9740   -6.4050 C.2     1  UNL1        0.0210
     22  S         23.4490  -22.0950  -11.7560 S.O2    1  UNL1        0.2480
     23  O         24.1690  -21.1680  -10.9100 O.2     1  UNL1       -0.2050
     24  O         24.0680  -23.3440  -12.1560 O.2     1  UNL1       -0.2050
     25  N         22.9960  -21.3420  -13.1670 N.pl3   1  UNL1       -0.1480
     26  H         22.1460  -21.7170  -13.5720 H       1  UNL1        0.1490
     27  C         23.9900  -21.1110  -14.1100 C.cat   1  UNL1        0.2160
     28  N         24.7470  -20.0210  -13.9960 N.2     1  UNL1       -0.2230
     29  C         25.5810  -19.7660  -15.0210 C.2     1  UNL1        0.0360
     30  C         26.4750  -18.5690  -14.9010 C.3     1  UNL1        0.0700
     31  C         25.6180  -20.5560  -16.1540 C.2     1  UNL1        0.0530
     32  C         24.7460  -21.6310  -16.1910 C.2     1  UNL1        0.0360
     33  C         24.7040  -22.5270  -17.3910 C.3     1  UNL1        0.0700
     34  N         23.9020  -21.9090  -15.1770 N.2     1  UNL1       -0.2230
@<TRIPOS>BOND
     1    33    32    1
     2    32    31    1
     3    32    34    2
     4    31    29    2
     5    34    27    1
     6    29    30    1
     7    29    28    1
     8    27    28    2
     9    27    25    1
    10    26    25    1
    11    25    22    1
    12    24    22    2
    13    22     4    1
    14    22    23    2
    15     5     4    2
    16     5     6    1
    17     4     3    1
    18     6     1    2
    19     3     2    2
    20     1     2    1
    21     1     7    1
    22     9     8    2
    23     7     8   am
    24     7    10    1
    25     8    11    1
    26    11    12    1
    27    12    17    1
    28    12    13    2
    29    21    17    1
    30    21    19    2
    31    17    15    2
    32    13    14    1
    33    20    19    1
    34    19    18    1
    35    15    14    1
    36    15    16    1
    37    18    16    2
