@<TRIPOS>MOLECULE
13176_out_ligand_01.pdbqt
 29 32 0 0 0
SMALL
GASTEIGER

@<TRIPOS>ATOM
      1  O         22.5050  -23.9090   -9.5070 O.2     1  UNL1       -0.2920
      2  C         22.3500  -23.2130  -10.5080 C.2     1  UNL1        0.1620
      3  C         23.4660  -23.0330  -11.5120 C.3     1  UNL1        0.0950
      4  C         23.3980  -21.6490  -12.1490 C.3     1  UNL1        0.0560
      5  C         22.0280  -21.4240  -12.8030 C.3     1  UNL1        0.0690
      6  C         20.8940  -21.7900  -11.8820 C.2     1  UNL1        0.0270
      7  N         19.6610  -21.2440  -12.1710 N.am    1  UNL1       -0.3250
      8  C         18.5210  -21.4550  -11.4300 C.2     1  UNL1        0.2610
      9  O         17.4520  -20.9360  -11.7450 O.2     1  UNL1       -0.2670
     10  C         18.6520  -22.3380  -10.2340 C.2     1  UNL1        0.1010
     11  C         19.8670  -22.8600   -9.9700 C.2     1  UNL1        0.0400
     12  C         21.0220  -22.5870  -10.8060 C.2     1  UNL1        0.0340
     13  H         19.5480  -20.6360  -12.9770 H       1  UNL1        0.1690
     14  C         17.5130  -22.6750   -9.3170 C.2     1  UNL1        0.2610
     15  O         16.4720  -23.1350   -9.7770 O.2     1  UNL1       -0.2670
     16  N         17.7580  -22.4210   -7.9840 N.am    1  UNL1       -0.3230
     17  H         18.6740  -22.0340   -7.7550 H       1  UNL1        0.1690
     18  C         16.8930  -22.6280   -6.8880 C.2     1  UNL1        0.0370
     19  C         17.3930  -23.3940   -5.8240 C.2     1  UNL1        0.0290
     20  C         16.6090  -23.6530   -4.6940 C.2     1  UNL1        0.0050
     21  C         15.3150  -23.1470   -4.6230 C.2     1  UNL1        0.0420
     22  C         14.8220  -22.3890   -5.6770 C.2     1  UNL1        0.1180
     23  F         13.5760  -21.9020   -5.6050 F       1  UNL1       -0.2060
     24  C         15.5950  -22.1250   -6.8070 C.2     1  UNL1        0.0710
     25  C         24.4910  -21.4280  -13.1430 C.2     1  UNL1        0.0570
     26  C         25.7840  -21.8910  -13.2800 C.2     1  UNL1        0.0350
     27  C         26.2950  -21.3050  -14.4620 C.2     1  UNL1        0.0270
     28  C         25.2840  -20.5280  -14.9740 C.2     1  UNL1        0.1420
     29  O         24.1840  -20.6000  -14.1820 O.2     1  UNL1       -0.3270
@<TRIPOS>BOND
     1    28    27    2
     2    28    29    1
     3    27    26    1
     4    29    25    1
     5    26    25    2
     6    25     4    1
     7    13     7    1
     8     5     4    1
     9     5     6    1
    10     7     6    1
    11     7     8   am
    12     4     3    1
    13     6    12    2
    14     9     8    2
    15     3     2    1
    16     8    10    1
    17    12     2    1
    18    12    11    1
    19     2     1    2
    20    10    11    2
    21    10    14    1
    22    15    14    2
    23    14    16   am
    24    16    17    1
    25    16    18    1
    26    18    24    2
    27    18    19    1
    28    24    22    1
    29    19    20    2
    30    22    23    1
    31    22    21    2
    32    20    21    1
