@<TRIPOS>MOLECULE
13196_out_ligand_01.pdbqt
 35 38 0 0 0
SMALL
GASTEIGER

@<TRIPOS>ATOM
      1  N         21.7920  -23.5190   -9.6580 N.am    1  UNL1       -0.3050
      2  C         23.1720  -23.6580   -9.5940 C.2     1  UNL1        0.2490
      3  O         23.7530  -24.3630   -8.7720 O.2     1  UNL1       -0.2680
      4  C         23.9840  -22.8660  -10.5360 C.2     1  UNL1        0.0920
      5  C         23.4190  -22.0290  -11.4130 C.2     1  UNL1        0.0490
      6  C         21.9570  -21.9090  -11.4970 C.2     1  UNL1        0.0070
      7  C         21.3420  -21.0930  -12.4640 C.2     1  UNL1        0.0150
      8  C         19.9540  -20.9700  -12.5150 C.2     1  UNL1        0.0010
      9  C         19.1660  -21.6670  -11.6100 C.2     1  UNL1        0.0020
     10  C         19.7610  -22.5040  -10.6620 C.2     1  UNL1        0.0300
     11  C         21.1580  -22.6470  -10.6010 C.2     1  UNL1        0.0490
     12  C         20.9870  -24.3360   -8.7390 C.3     1  UNL1        0.2350
     13  C         20.0770  -23.5380   -7.7900 C.2     1  UNL1        0.2400
     14  N         18.8090  -24.0700   -7.6490 N.am    1  UNL1       -0.3260
     15  H         18.6340  -24.9150   -8.1760 H       1  UNL1        0.1690
     16  O         20.4880  -22.5000   -7.2790 O.2     1  UNL1       -0.2710
     17  C         17.7510  -23.6060   -6.8430 C.2     1  UNL1        0.0350
     18  C         16.7390  -22.8810   -7.4780 C.2     1  UNL1        0.0300
     19  C         15.6430  -22.4040   -6.7560 C.2     1  UNL1        0.0090
     20  C         15.5320  -22.6440   -5.3810 C.2     1  UNL1       -0.0560
     21  C         14.3360  -22.1190   -4.6350 C.3     1  UNL1        0.0490
     22  C         16.5580  -23.3530   -4.7260 C.2     1  UNL1       -0.0540
     23  C         17.6520  -23.8340   -5.4700 C.2     1  UNL1        0.0370
     24  C         16.5040  -23.6230   -3.2480 C.3     1  UNL1        0.0490
     25  C         24.3860  -21.2350  -12.2130 C.2     1  UNL1        0.2530
     26  O         25.4120  -20.7780  -11.7230 O.2     1  UNL1       -0.2680
     27  N         23.9900  -21.0540  -13.5160 N.am    1  UNL1       -0.3530
     28  H         23.1640  -21.5290  -13.8520 H       1  UNL1        0.1630
     29  C         24.8730  -20.4760  -14.5060 C.3     1  UNL1        0.1610
     30  C         24.8770  -21.3230  -15.7530 C.2     1  UNL1       -0.0410
     31  C         24.4800  -22.6690  -15.6940 C.2     1  UNL1        0.0090
     32  C         24.4330  -23.4460  -16.8520 C.2     1  UNL1        0.0010
     33  C         24.7800  -22.8880  -18.0800 C.2     1  UNL1        0.0000
     34  C         25.1740  -21.5510  -18.1530 C.2     1  UNL1        0.0010
     35  C         25.2170  -20.7700  -16.9960 C.2     1  UNL1        0.0090
@<TRIPOS>BOND
     1    34    33    2
     2    34    35    1
     3    33    32    1
     4    35    30    2
     5    32    31    2
     6    30    31    1
     7    30    29    1
     8    29    27    1
     9    28    27    1
    10    27    25   am
    11     8     7    1
    12     8     9    2
    13     7     6    2
    14    25    26    2
    15    25     5    1
    16     9    10    1
    17     6     5    1
    18     6    11    1
    19     5     4    2
    20    10    11    2
    21    11     1    1
    22     4     2    1
    23     1     2   am
    24     1    12    1
    25     2     3    2
    26    12    13    1
    27    15    14    1
    28    13    14   am
    29    13    16    2
    30    14    17    1
    31    18    17    2
    32    18    19    1
    33    17    23    1
    34    19    20    2
    35    23    22    2
    36    20    22    1
    37    20    21    1
    38    22    24    1
