@<TRIPOS>MOLECULE
13195_out_ligand_01.pdbqt
 37 40 0 0 0
SMALL
GASTEIGER

@<TRIPOS>ATOM
      1  C         22.6490  -21.9640  -10.9000 C.2     1  UNL1        0.0980
      2  C         22.1190  -21.4190  -12.0070 C.2     1  UNL1        0.1090
      3  N         20.7780  -21.2690  -12.2570 N.pl3   1  UNL1       -0.3640
      4  C         19.8240  -21.7930  -11.3770 C.2     1  UNL1        0.0460
      5  C         18.4580  -21.6800  -11.6450 C.2     1  UNL1        0.0320
      6  C         17.5170  -22.1670  -10.7330 C.2     1  UNL1        0.0270
      7  C         17.9460  -22.7550   -9.5390 C.2     1  UNL1        0.0810
      8  C         19.3060  -22.8810   -9.2530 C.2     1  UNL1        0.0430
      9  C         20.2380  -22.3800  -10.1670 C.2     1  UNL1        0.0430
     10  C         21.6930  -22.4580   -9.8680 C.2     1  UNL1        0.2010
     11  O         22.0750  -22.9190   -8.7960 O.2     1  UNL1       -0.2860
     12  H         20.4910  -20.9980  -13.1920 H       1  UNL1        0.1650
     13  C         24.1330  -22.0420  -10.7880 C.2     1  UNL1        0.2570
     14  N         24.6970  -23.2080  -11.2350 N.am    1  UNL1       -0.3560
     15  H         24.0930  -23.8920  -11.6940 H       1  UNL1        0.1620
     16  O         24.7960  -21.1100  -10.3380 O.2     1  UNL1       -0.2670
     17  C         26.1300  -23.3920  -11.3400 C.3     1  UNL1        0.1270
     18  C         26.7450  -22.6610  -12.5370 C.3     1  UNL1        0.0580
     19  C         25.9790  -22.8910  -13.8190 C.2     1  UNL1       -0.0570
     20  C         25.2850  -21.8400  -14.4330 C.2     1  UNL1        0.0070
     21  C         24.6020  -22.0490  -15.6330 C.2     1  UNL1        0.0070
     22  C         24.6110  -23.3060  -16.2470 C.2     1  UNL1       -0.0620
     23  C         23.8540  -23.5370  -17.5210 C.3     1  UNL1        0.0480
     24  C         25.2910  -24.3590  -15.6270 C.2     1  UNL1        0.0070
     25  C         25.9740  -24.1520  -14.4270 C.2     1  UNL1        0.0070
     26  S         16.7510  -23.3860   -8.3800 S.O2    1  UNL1        0.2630
     27  O         17.4120  -24.4080   -7.5960 O.2     1  UNL1       -0.2000
     28  O         15.5350  -23.6750   -9.1090 O.2     1  UNL1       -0.2000
     29  N         16.4960  -22.0840   -7.3400 N.pl3   1  UNL1       -0.2800
     30  H         15.8480  -21.4000   -7.7250 H       1  UNL1        0.1790
     31  C         16.5270  -22.2740   -5.9270 C.2     1  UNL1        0.0480
     32  C         15.3890  -22.7440   -5.2650 C.2     1  UNL1        0.0300
     33  C         15.3960  -22.9160   -3.8800 C.2     1  UNL1        0.0020
     34  C         16.5460  -22.6260   -3.1530 C.2     1  UNL1        0.0010
     35  C         17.6900  -22.1720   -3.8090 C.2     1  UNL1        0.0090
     36  C         17.6980  -21.9910   -5.2010 C.2     1  UNL1       -0.0350
     37  C         18.9630  -21.5260   -5.8670 C.3     1  UNL1        0.0500
@<TRIPOS>BOND
     1    23    22    1
     2    22    21    2
     3    22    24    1
     4    21    20    1
     5    24    25    2
     6    20    19    2
     7    25    19    1
     8    19    18    1
     9    12     3    1
    10    18    17    1
    11     3     2    1
    12     3     4    1
    13     2     1    2
    14    15    14    1
    15     5     4    2
    16     5     6    1
    17     4     9    1
    18    17    14    1
    19    14    13   am
    20     1    13    1
    21     1    10    1
    22    13    16    2
    23     6     7    2
    24     9    10    1
    25     9     8    2
    26    10    11    2
    27     7     8    1
    28     7    26    1
    29    28    26    2
    30    26    27    2
    31    26    29    1
    32    30    29    1
    33    29    31    1
    34    31    32    2
    35    31    36    1
    36    37    36    1
    37    32    33    1
    38    36    35    2
    39    33    34    2
    40    35    34    1
