@<TRIPOS>MOLECULE
13208_out_ligand_01.pdbqt
 35 38 0 0 0
SMALL
GASTEIGER

@<TRIPOS>ATOM
      1  N         19.1210  -22.4710  -10.9880 N.am    1  UNL1       -0.3050
      2  C         19.3930  -21.3860  -11.8050 C.2     1  UNL1        0.2490
      3  O         18.5130  -20.6690  -12.2830 O.2     1  UNL1       -0.2680
      4  C         20.8020  -21.0890  -12.1060 C.2     1  UNL1        0.0920
      5  C         21.7960  -21.7690  -11.5220 C.2     1  UNL1        0.0490
      6  C         21.5010  -22.7970  -10.5150 C.2     1  UNL1        0.0070
      7  C         22.5230  -23.4140   -9.7720 C.2     1  UNL1        0.0150
      8  C         22.2270  -24.3910   -8.8230 C.2     1  UNL1        0.0010
      9  C         20.9050  -24.7500   -8.5940 C.2     1  UNL1        0.0020
     10  C         19.8760  -24.1290   -9.3060 C.2     1  UNL1        0.0300
     11  C         20.1570  -23.1480  -10.2710 C.2     1  UNL1        0.0490
     12  C         17.7150  -22.8330  -10.8120 C.3     1  UNL1        0.2350
     13  C         17.1230  -22.2200   -9.5380 C.2     1  UNL1        0.2400
     14  O         16.6520  -21.0860   -9.5500 O.2     1  UNL1       -0.2710
     15  N         17.2120  -23.0670   -8.4450 N.am    1  UNL1       -0.3260
     16  H         17.6230  -23.9850   -8.6280 H       1  UNL1        0.1690
     17  C         16.7760  -22.8310   -7.1270 C.2     1  UNL1        0.0360
     18  C         15.4730  -23.0750   -6.6820 C.2     1  UNL1        0.0320
     19  C         15.1180  -22.8130   -5.3540 C.2     1  UNL1        0.0460
     20  C         16.0630  -22.3060   -4.4720 C.2     1  UNL1        0.1380
     21  F         15.7000  -22.0600   -3.2050 F       1  UNL1       -0.2040
     22  C         17.3640  -22.0600   -4.9020 C.2     1  UNL1        0.0740
     23 CL         18.5440  -21.4330   -3.8150 Cl      1  UNL1       -0.0810
     24  C         17.7210  -22.3210   -6.2260 C.2     1  UNL1        0.0560
     25  C         23.1530  -21.4020  -12.0100 C.2     1  UNL1        0.2530
     26  O         24.0320  -21.0280  -11.2420 O.2     1  UNL1       -0.2680
     27  N         23.2820  -21.4580  -13.3750 N.am    1  UNL1       -0.3530
     28  H         22.4530  -21.6060  -13.9360 H       1  UNL1        0.1630
     29  C         24.4480  -20.9330  -14.0490 C.3     1  UNL1        0.1610
     30  C         24.5640  -21.5140  -15.4340 C.2     1  UNL1       -0.0410
     31  C         24.4000  -22.8920  -15.6370 C.2     1  UNL1        0.0090
     32  C         24.5340  -23.4410  -16.9130 C.2     1  UNL1        0.0010
     33  C         24.8350  -22.6190  -17.9980 C.2     1  UNL1        0.0000
     34  C         25.0080  -21.2500  -17.8070 C.2     1  UNL1        0.0010
     35  C         24.8780  -20.6990  -16.5310 C.2     1  UNL1        0.0090
@<TRIPOS>BOND
     1    33    34    2
     2    33    32    1
     3    34    35    1
     4    32    31    2
     5    35    30    2
     6    31    30    1
     7    30    29    1
     8    29    27    1
     9    28    27    1
    10    27    25   am
    11     3     2    2
    12     4     2    1
    13     4     5    2
    14    25     5    1
    15    25    26    2
    16     2     1   am
    17     5     6    1
    18     1    12    1
    19     1    11    1
    20    12    13    1
    21     6    11    2
    22     6     7    1
    23    11    10    1
    24     7     8    2
    25    14    13    2
    26    13    15   am
    27    10     9    2
    28     8     9    1
    29    16    15    1
    30    15    17    1
    31    17    18    2
    32    17    24    1
    33    18    19    1
    34    24    22    2
    35    19    20    2
    36    22    20    1
    37    22    23    1
    38    20    21    1
