@<TRIPOS>MOLECULE
13205_out_ligand_01.pdbqt
 30 33 0 0 0
SMALL
GASTEIGER

@<TRIPOS>ATOM
      1  C         18.8700  -23.5050   -8.8920 C.2     1  UNL1       -0.0050
      2  C         20.3310  -23.7490   -9.2310 C.2     1  UNL1        0.0410
      3  C         21.1210  -24.7510   -8.4140 C.3     1  UNL1        0.0710
      4  N         20.9930  -23.1430  -10.1720 N.2     1  UNL1       -0.2330
      5  C         20.3430  -22.1790  -10.8830 C.2     1  UNL1        0.1680
      6  C         20.7490  -21.3820  -11.9430 C.2     1  UNL1        0.0980
      7  C         19.6210  -20.5770  -12.2020 C.2     1  UNL1        0.1600
      8  N         18.5930  -20.8220  -11.3950 N.2     1  UNL1       -0.1770
      9  N         19.0270  -21.8250  -10.5840 N.pl3   1  UNL1       -0.2190
     10  C         18.2990  -22.4830   -9.5750 C.2     1  UNL1        0.0430
     11  C         16.8990  -21.9810   -9.3470 C.3     1  UNL1        0.0710
     12  C         22.0530  -21.4030  -12.5930 C.2     1  UNL1        0.2570
     13  O         22.2390  -21.0360  -13.7490 O.2     1  UNL1       -0.2670
     14  N         23.0910  -21.8780  -11.8080 N.am    1  UNL1       -0.3520
     15  H         22.8950  -22.2680  -10.9000 H       1  UNL1        0.1630
     16  C         24.4280  -22.0740  -12.3520 C.3     1  UNL1        0.0840
     17  C         25.4840  -21.5770  -11.3550 C.3     1  UNL1        0.0250
     18  C         26.9010  -21.8260  -11.8630 C.3     1  UNL1        0.0020
     19  C         27.1210  -23.2950  -12.2120 C.3     1  UNL1        0.0000
     20  C         26.0760  -23.8000  -13.2040 C.3     1  UNL1        0.0020
     21  C         24.6560  -23.5510  -12.7020 C.3     1  UNL1        0.0250
     22  C         18.1950  -24.3940   -7.8730 C.3     1  UNL1        0.0820
     23  C         17.4870  -23.6890   -6.7230 C.2     1  UNL1       -0.0470
     24  C         16.1090  -23.8350   -6.4550 C.2     1  UNL1       -0.0550
     25  C         15.5450  -23.1380   -5.3720 C.2     1  UNL1        0.0080
     26  C         15.2020  -24.6940   -7.2920 C.3     1  UNL1        0.0490
     27  C         16.3280  -22.3360   -4.5430 C.2     1  UNL1        0.0070
     28  C         17.6960  -22.2010   -4.7810 C.2     1  UNL1       -0.0610
     29  C         18.5500  -21.3790   -3.8620 C.3     1  UNL1        0.0480
     30  C         18.2660  -22.8920   -5.8570 C.2     1  UNL1        0.0140
@<TRIPOS>BOND
     1    13    12    2
     2    20    21    1
     3    20    19    1
     4    21    16    1
     5    12     6    1
     6    12    14   am
     7    16    14    1
     8    16    17    1
     9    19    18    1
    10     7     6    1
    11     7     8    2
    12     6     5    2
    13    18    17    1
    14    14    15    1
    15     8     9    1
    16     5     9    1
    17     5     4    1
    18     9    10    1
    19     4     2    2
    20    10    11    1
    21    10     1    2
    22     2     1    1
    23     2     3    1
    24     1    22    1
    25    22    23    1
    26    26    24    1
    27    23    24    2
    28    23    30    1
    29    24    25    1
    30    30    28    2
    31    25    27    2
    32    28    27    1
    33    28    29    1
