@<TRIPOS>MOLECULE
1322_out_ligand_01.pdbqt
 32 35 0 0 0
SMALL
GASTEIGER

@<TRIPOS>ATOM
      1  C         22.8220  -22.5780  -11.4540 C.2     1  UNL1        0.0320
      2  C         21.5740  -22.0140  -11.7350 C.2     1  UNL1        0.0190
      3  C         20.5110  -22.1650  -10.8360 C.2     1  UNL1        0.0300
      4  C         20.6880  -22.8680   -9.6420 C.2     1  UNL1        0.0350
      5  C         21.9460  -23.4150   -9.3570 C.2     1  UNL1        0.0300
      6  C         23.0110  -23.2690  -10.2530 C.2     1  UNL1        0.0190
      7  N         19.6700  -23.0650   -8.6880 N.am    1  UNL1       -0.3230
      8  C         18.3310  -22.7450   -8.8090 C.2     1  UNL1        0.2570
      9  O         17.7720  -22.1930   -9.7470 O.2     1  UNL1       -0.2670
     10  H         19.9560  -23.4720   -7.8050 H       1  UNL1        0.1690
     11  C         17.5280  -23.0820   -7.6080 C.2     1  UNL1        0.0430
     12  C         16.5000  -24.0160   -7.7960 C.2     1  UNL1        0.0180
     13  C         15.6590  -24.3410   -6.7380 C.2     1  UNL1        0.0020
     14  C         15.8460  -23.7360   -5.4960 C.2     1  UNL1        0.0120
     15  C         16.8850  -22.8150   -5.2830 C.2     1  UNL1       -0.0250
     16  C         17.0650  -22.2320   -4.0180 C.2     1  UNL1        0.0120
     17  C         17.7620  -22.4800   -6.3440 C.2     1  UNL1       -0.0100
     18  C         18.1060  -21.3360   -3.7800 C.2     1  UNL1        0.0010
     19  C         18.9900  -21.0160   -4.8020 C.2     1  UNL1        0.0010
     20  C         18.8230  -21.5830   -6.0670 C.2     1  UNL1        0.0130
     21  C         23.9280  -22.3930  -12.4360 C.2     1  UNL1        0.2560
     22  N         23.6580  -21.4860  -13.4450 N.am    1  UNL1       -0.3230
     23  H         22.8000  -20.9550  -13.3670 H       1  UNL1        0.1690
     24  O         24.9680  -23.0160  -12.2620 O.2     1  UNL1       -0.2670
     25  C         24.4910  -21.1410  -14.5290 C.2     1  UNL1        0.0350
     26  C         25.2600  -19.9790  -14.4010 C.2     1  UNL1        0.0320
     27  C         26.1060  -19.5690  -15.4370 C.2     1  UNL1        0.0390
     28  C         26.1970  -20.3090  -16.6160 C.2     1  UNL1        0.0680
     29  C         25.4300  -21.4650  -16.7490 C.2     1  UNL1        0.0390
     30  C         24.5810  -21.8770  -15.7110 C.2     1  UNL1        0.0320
     31  O         27.0590  -19.8010  -17.5470 O.2     1  UNL1       -0.3560
     32  C         27.1170  -18.3840  -17.6580 C.3     1  UNL1        0.2100
@<TRIPOS>BOND
     1    32    31    1
     2    31    28    1
     3    29    28    2
     4    29    30    1
     5    28    27    1
     6    30    25    2
     7    27    26    2
     8    25    26    1
     9    25    22    1
    10    22    23    1
    11    22    21   am
    12    21    24    2
    13    21     1    1
    14     2     1    2
    15     2     3    1
    16     1     6    1
    17     3     4    2
    18     6     5    2
    19     9     8    2
    20     4     5    1
    21     4     7    1
    22     8     7   am
    23     8    11    1
    24     7    10    1
    25    12    11    2
    26    12    13    1
    27    11    17    1
    28    13    14    2
    29    17    20    1
    30    17    15    2
    31    20    19    2
    32    14    15    1
    33    15    16    1
    34    19    18    1
    35    16    18    2
