@<TRIPOS>MOLECULE
13235_out_ligand_01.pdbqt
 34 37 0 0 0
SMALL
GASTEIGER

@<TRIPOS>ATOM
      1  C         23.5880  -22.3130  -11.3040 C.2     1  UNL1       -0.0400
      2  C         22.3590  -21.8890  -11.8350 C.2     1  UNL1        0.0100
      3  C         21.1620  -22.2110  -11.1940 C.2     1  UNL1        0.0260
      4  C         21.1950  -22.9620  -10.0160 C.2     1  UNL1        0.0790
      5  C         22.4080  -23.3800   -9.4660 C.2     1  UNL1        0.0260
      6  C         23.6020  -23.0490  -10.1090 C.2     1  UNL1        0.0100
      7  S         19.6680  -23.3900   -9.2220 S.O2    1  UNL1        0.2630
      8  O         18.6560  -23.6190  -10.2310 O.2     1  UNL1       -0.2000
      9  O         19.9730  -24.3900   -8.2180 O.2     1  UNL1       -0.2000
     10  N         19.2780  -21.9750   -8.3700 N.pl3   1  UNL1       -0.2810
     11  H         20.0500  -21.3100   -8.4280 H       1  UNL1        0.1790
     12  C         18.6010  -22.1130   -7.1280 C.2     1  UNL1        0.0430
     13  C         19.1320  -21.5420   -5.9760 C.2     1  UNL1        0.0320
     14  C         18.4380  -21.6490   -4.7690 C.2     1  UNL1        0.0270
     15  C         17.2070  -22.3100   -4.7180 C.2     1  UNL1        0.0490
     16 CL         16.4190  -22.4020   -3.1850 Cl      1  UNL1       -0.0830
     17  C         16.6510  -22.8690   -5.8750 C.2     1  UNL1        0.0710
     18  C         17.3680  -22.7640   -7.0850 C.2     1  UNL1        0.0480
     19  C         15.3220  -23.5720   -5.8500 C.3     1  UNL1        0.4190
     20  F         15.1070  -24.3610   -6.9360 F       1  UNL1       -0.1660
     21  F         15.1760  -24.3970   -4.7700 F       1  UNL1       -0.1660
     22  F         14.2720  -22.7080   -5.7840 F       1  UNL1       -0.1660
     23  C         24.8850  -21.9270  -11.9780 C.3     1  UNL1        0.1740
     24  N         24.7960  -22.0760  -13.4130 N.am    1  UNL1       -0.2740
     25  C         24.6990  -21.0230  -14.2870 C.2     1  UNL1        0.2800
     26  C         24.6980  -21.6200  -15.6310 C.2     1  UNL1        0.1400
     27  O         24.6250  -19.8370  -14.0230 O.2     1  UNL1       -0.2650
     28  N         24.6160  -20.9600  -16.8000 N.2     1  UNL1       -0.2540
     29  C         24.7960  -22.9830  -15.4860 C.2     1  UNL1        0.0670
     30  C         24.6430  -21.7670  -17.8900 C.2     1  UNL1        0.1170
     31  C         24.7420  -23.1660  -17.8390 C.2     1  UNL1        0.0200
     32  C         24.8200  -23.7990  -16.5960 C.2     1  UNL1        0.0210
     33  C         24.8600  -23.2740  -14.0620 C.2     1  UNL1        0.2630
     34  O         24.9500  -24.3980  -13.6010 O.2     1  UNL1       -0.2670
@<TRIPOS>BOND
     1    30    31    2
     2    30    28    1
     3    31    32    1
     4    28    26    2
     5    32    29    2
     6    26    29    1
     7    26    25    1
     8    29    33    1
     9    25    27    2
    10    25    24   am
    11    33    34    2
    12    33    24   am
    13    24    23    1
    14    23     1    1
    15     2     1    2
    16     2     3    1
    17     1     6    1
    18     3     4    2
    19     8     7    2
    20     6     5    2
    21     4     5    1
    22     4     7    1
    23     7    10    1
    24     7     9    2
    25    11    10    1
    26    10    12    1
    27    12    18    2
    28    12    13    1
    29    18    17    1
    30    20    19    1
    31    13    14    2
    32    17    19    1
    33    17    15    2
    34    19    22    1
    35    19    21    1
    36    14    15    1
    37    15    16    1
