@<TRIPOS>MOLECULE
13241_out_ligand_01.pdbqt
 37 41 0 0 0
SMALL
GASTEIGER

@<TRIPOS>ATOM
      1  C         20.7770  -21.6930  -11.7410 C.2     1  UNL1        0.0320
      2  C         21.2380  -21.1240  -12.9330 C.2     1  UNL1        0.0170
      3  C         22.5480  -21.3510  -13.3620 C.2     1  UNL1        0.0100
      4  C         23.4200  -22.1440  -12.6030 C.2     1  UNL1       -0.0400
      5  C         22.9570  -22.6950  -11.3990 C.2     1  UNL1        0.0100
      6  C         21.6470  -22.4700  -10.9670 C.2     1  UNL1        0.0170
      7  C         19.3740  -21.4250  -11.3230 C.2     1  UNL1        0.2510
      8  N         18.7440  -22.4320  -10.6240 N.am    1  UNL1       -0.3530
      9  H         19.1600  -23.3520  -10.6230 H       1  UNL1        0.1630
     10  O         18.8310  -20.3680  -11.6300 O.2     1  UNL1       -0.2680
     11  C         17.3400  -22.3520  -10.2900 C.3     1  UNL1        0.1610
     12  C         17.0900  -22.8670   -8.8960 C.2     1  UNL1       -0.0380
     13  C         17.9350  -22.5100   -7.8330 C.2     1  UNL1        0.0480
     14  C         17.7150  -23.0090   -6.5440 C.2     1  UNL1        0.1020
     15  C         16.6390  -23.8880   -6.3090 C.2     1  UNL1        0.1010
     16  C         15.8030  -24.2510   -7.3700 C.2     1  UNL1        0.0400
     17  C         16.0290  -23.7470   -8.6520 C.2     1  UNL1        0.0120
     18  O         18.4920  -22.7070   -5.4520 O.2     1  UNL1       -0.3490
     19  C         18.4740  -21.3670   -4.9680 C.3     1  UNL1        0.1710
     20  C         18.4830  -21.4190   -3.4510 C.3     1  UNL1        0.0340
     21  O         16.4930  -24.3350   -5.0180 O.2     1  UNL1       -0.3530
     22  C         15.3950  -23.8340   -4.2700 C.3     1  UNL1        0.2100
     23  C         24.8490  -22.3700  -13.0570 C.3     1  UNL1        0.1720
     24  N         25.2400  -21.4820  -14.1440 N.am    1  UNL1       -0.2910
     25  C         25.7690  -20.2320  -13.8330 C.2     1  UNL1        0.2760
     26  O         25.9680  -19.8610  -12.6780 O.2     1  UNL1       -0.2650
     27  C         26.0750  -19.3920  -14.9630 C.2     1  UNL1        0.1080
     28  C         26.5980  -18.1120  -14.9960 C.2     1  UNL1        0.0370
     29  N         25.8630  -19.7980  -16.2560 N.pl3   1  UNL1       -0.3140
     30  C         26.7050  -17.7320  -16.3530 C.2     1  UNL1        0.0200
     31  C         26.2450  -18.7890  -17.1090 C.2     1  UNL1        0.0980
     32  C         25.3410  -21.0640  -16.5560 C.2     1  UNL1        0.0860
     33  C         25.1290  -21.4940  -17.8680 C.2     1  UNL1        0.0350
     34  C         25.0320  -21.9080  -15.4850 C.2     1  UNL1        0.1600
     35  C         24.6160  -22.7670  -18.0790 C.2     1  UNL1        0.0220
     36  C         24.3410  -23.5520  -16.9740 C.2     1  UNL1        0.1190
     37  N         24.5410  -23.1520  -15.6980 N.2     1  UNL1       -0.2410
@<TRIPOS>BOND
     1    35    33    1
     2    35    36    2
     3    33    32    2
     4    31    30    2
     5    31    29    1
     6    36    37    1
     7    32    29    1
     8    32    34    1
     9    30    28    1
    10    29    27    1
    11    37    34    2
    12    34    24    1
    13    28    27    2
    14    27    25    1
    15    24    25   am
    16    24    23    1
    17    25    26    2
    18     3     2    1
    19     3     4    2
    20    23     4    1
    21     2     1    2
    22     4     5    1
    23     1     7    1
    24     1     6    1
    25    10     7    2
    26     5     6    2
    27     7     8   am
    28     8     9    1
    29     8    11    1
    30    11    12    1
    31    12    17    2
    32    12    13    1
    33    17    16    1
    34    13    14    2
    35    16    15    2
    36    14    15    1
    37    14    18    1
    38    15    21    1
    39    18    19    1
    40    21    22    1
    41    19    20    1
