@<TRIPOS>MOLECULE
13243_out_ligand_01.pdbqt
 34 37 0 0 0
SMALL
GASTEIGER

@<TRIPOS>ATOM
      1  C         18.8280  -21.2760  -11.3850 C.2     1  UNL1        0.2600
      2  O         18.3420  -20.3440  -12.0160 O.2     1  UNL1       -0.2670
      3  N         18.0630  -22.0700  -10.5520 N.am    1  UNL1       -0.3560
      4  H         18.4970  -22.8480  -10.0690 H       1  UNL1        0.1620
      5  C         20.2350  -21.6310  -11.4240 C.ar    1  UNL1        0.1020
      6  C         21.0160  -22.3810  -10.5510 C.ar    1  UNL1        0.0740
      7  C         22.3940  -22.5110  -11.0090 C.ar    1  UNL1        0.0350
      8  C         23.6100  -23.0060  -10.4440 C.2     1  UNL1       -0.0450
      9  C         22.5090  -21.9550  -12.2860 C.ar    1  UNL1        0.1110
     10  C         24.7460  -23.0340  -11.2760 C.2     1  UNL1        0.0340
     11  C         23.8090  -23.4640   -9.0200 C.3     1  UNL1        0.0490
     12  C         24.6890  -22.5220  -12.5640 C.2     1  UNL1        0.0320
     13  C         25.9160  -22.5460  -13.4290 C.3     1  UNL1        0.0700
     14  N         23.5920  -21.9520  -13.0870 N.2     1  UNL1       -0.2460
     15  S         21.1080  -21.1560  -12.8110 S.2     1  UNL1       -0.0620
     16  N         20.4950  -22.9620   -9.3500 N.pl3   1  UNL1       -0.3310
     17  C         20.2270  -22.3120   -8.1620 C.2     1  UNL1        0.0970
     18  C         19.6600  -23.2010   -7.2730 C.2     1  UNL1        0.0190
     19  C         19.5390  -24.4350   -7.9420 C.2     1  UNL1        0.0190
     20  C         20.0380  -24.2570   -9.2140 C.2     1  UNL1        0.0970
     21  C         16.6490  -21.8170  -10.3690 C.3     1  UNL1        0.1270
     22  C         15.9000  -23.0150   -9.7800 C.3     1  UNL1        0.0580
     23  C         16.0380  -23.1550   -8.2800 C.2     1  UNL1       -0.0570
     24  C         15.9880  -24.4220   -7.6730 C.2     1  UNL1        0.0090
     25  C         16.1070  -24.5530   -6.2890 C.2     1  UNL1        0.0250
     26  C         16.2600  -23.4100   -5.5020 C.2     1  UNL1        0.0740
     27  C         16.3200  -22.1420   -6.0890 C.2     1  UNL1        0.0250
     28  C         16.2050  -22.0170   -7.4760 C.2     1  UNL1        0.0090
     29  S         16.4200  -23.5670   -3.7430 S.O2    1  UNL1        0.2390
     30  O         15.5890  -24.6610   -3.3010 O.2     1  UNL1       -0.2060
     31  O         17.8190  -23.4600   -3.4020 O.2     1  UNL1       -0.2060
     32  N         15.6500  -22.1670   -3.2080 N.3     1  UNL1       -0.2250
     33  H         15.5690  -21.5170   -3.9920 H       1  UNL1        0.1360
     34  H         16.1010  -21.7440   -2.3980 H       1  UNL1        0.1360
@<TRIPOS>BOND
     1    13    12    1
     2    14    12    2
     3    14     9    1
     4    15     9   ar
     5    15     5   ar
     6    12    10    1
     7     9     7   ar
     8     2     1    2
     9     5     1    1
    10     5     6   ar
    11     1     3   am
    12    10     8    2
    13     7     6   ar
    14     7     8    1
    15     3    21    1
    16     3     4    1
    17     6    16    1
    18     8    11    1
    19    21    22    1
    20    22    23    1
    21    16    20    1
    22    16    17    1
    23    20    19    2
    24    23    24    2
    25    23    28    1
    26    17    18    2
    27    19    18    1
    28    24    25    1
    29    28    27    2
    30    25    26    2
    31    27    26    1
    32    26    29    1
    33    33    32    1
    34    29    31    2
    35    29    30    2
    36    29    32    1
    37    32    34    1
