@<TRIPOS>MOLECULE
13258_out_ligand_01.pdbqt
 32 36 0 0 0
SMALL
GASTEIGER

@<TRIPOS>ATOM
      1  N         19.2330  -23.5690   -9.1010 N.pl3   1  UNL1       -0.2810
      2  C         19.1350  -22.6820  -10.0480 C.ar    1  UNL1        0.1620
      3  C         17.8680  -21.9340  -10.3570 C.ar    1  UNL1        0.0840
      4  C         16.6540  -22.0960   -9.7950 C.3     1  UNL1        0.0580
      5  C         17.9430  -20.8380  -11.4120 C.ar    1  UNL1        0.2830
      6  O         16.9660  -20.1350  -11.6550 O.2     1  UNL1       -0.2650
      7  N         19.1260  -20.6600  -12.0990 N.ar    1  UNL1       -0.1820
      8  C         20.1400  -21.3850  -11.7870 C.ar    1  UNL1        0.2010
      9  S         21.6720  -21.2140  -12.6040 S.2     1  UNL1       -0.0280
     10  C         22.2980  -22.4750  -11.5430 C.ar    1  UNL1        0.1330
     11  N         21.4600  -22.9770  -10.6800 N.ar    1  UNL1       -0.1550
     12  N         20.2280  -22.3580  -10.8290 N.ar    1  UNL1       -0.1890
     13  H         20.2080  -23.9030   -9.1140 H       1  UNL1        0.1880
     14  C         16.2650  -23.0530   -8.8210 C.2     1  UNL1        0.0770
     15  C         15.8900  -24.3860   -8.9300 C.2     1  UNL1        0.0400
     16  C         15.5400  -24.8510   -7.6400 C.2     1  UNL1        0.0470
     17  C         15.6820  -23.7790   -6.7880 C.2     1  UNL1        0.1130
     18  O         16.1000  -22.6950   -7.4990 O.2     1  UNL1       -0.3040
     19  S         15.3760  -23.7320   -5.0740 S.3     1  UNL1       -0.1000
     20  C         17.0660  -23.9070   -4.4320 C.3     1  UNL1        0.1200
     21  C         17.9130  -22.6970   -4.7460 C.2     1  UNL1       -0.0490
     22  C         17.9530  -21.6060   -3.8630 C.2     1  UNL1        0.0080
     23  C         18.7290  -20.4850   -4.1570 C.2     1  UNL1        0.0010
     24  C         19.4810  -20.4450   -5.3330 C.2     1  UNL1        0.0000
     25  C         19.4620  -21.5280   -6.2110 C.2     1  UNL1        0.0010
     26  C         18.6840  -22.6510   -5.9190 C.2     1  UNL1        0.0080
     27  C         23.7050  -22.9140  -11.6480 C.2     1  UNL1        0.0190
     28  C         24.3130  -23.3230  -12.8380 C.2     1  UNL1        0.0170
     29  C         25.6510  -23.7230  -12.8290 C.2     1  UNL1        0.0200
     30  C         26.3410  -23.6990  -11.6280 C.2     1  UNL1        0.1160
     31  N         25.7890  -23.3100  -10.4610 N.2     1  UNL1       -0.2720
     32  C         24.4880  -22.9280  -10.4950 C.2     1  UNL1        0.1300
@<TRIPOS>BOND
     1    28    29    1
     2    28    27    2
     3    29    30    2
     4     9     8   ar
     5     9    10   ar
     6     7     8   ar
     7     7     5   ar
     8     8    12   ar
     9     6     5    2
    10    27    10    1
    11    27    32    1
    12    30    31    1
    13    10    11   ar
    14     5     3   ar
    15    12    11   ar
    16    12     2   ar
    17    32    31    2
    18     3     2   ar
    19     3     4    1
    20     2     1    1
    21     4    14    1
    22    13     1    1
    23    15    14    2
    24    15    16    1
    25    14    18    1
    26    16    17    2
    27    18    17    1
    28    17    19    1
    29    25    26    1
    30    25    24    2
    31    26    21    2
    32    24    23    1
    33    19    20    1
    34    21    20    1
    35    21    22    1
    36    23    22    2
