@<TRIPOS>MOLECULE
1325_out_ligand_01.pdbqt
 32 35 0 0 0
SMALL
GASTEIGER

@<TRIPOS>ATOM
      1  C         20.8000  -22.3680  -10.7240 C.2     1  UNL1        0.0340
      2  C         20.1910  -21.7970  -11.8460 C.2     1  UNL1        0.0170
      3  C         18.8540  -21.4080  -11.7800 C.2     1  UNL1        0.0030
      4  C         18.1220  -21.5970  -10.6020 C.2     1  UNL1        0.0290
      5  C         18.7140  -22.1840   -9.4830 C.2     1  UNL1        0.0350
      6  C         20.0560  -22.5740   -9.5530 C.2     1  UNL1        0.0460
      7  N         18.0380  -22.4250   -8.2700 N.am    1  UNL1       -0.3230
      8  C         16.7610  -22.9310   -8.1050 C.2     1  UNL1        0.2570
      9  O         15.9470  -23.2060   -8.9770 O.2     1  UNL1       -0.2670
     10  H         18.5410  -22.1880   -7.4230 H       1  UNL1        0.1690
     11  C         16.3560  -23.0810   -6.6860 C.2     1  UNL1        0.0430
     12  C         15.2060  -23.8500   -6.4520 C.2     1  UNL1        0.0180
     13  C         14.7200  -23.9920   -5.1590 C.2     1  UNL1        0.0020
     14  C         15.3810  -23.3710   -4.1000 C.2     1  UNL1        0.0120
     15  C         16.5480  -22.6170   -4.3110 C.2     1  UNL1       -0.0250
     16  C         17.2060  -22.0150   -3.2260 C.2     1  UNL1        0.0120
     17  C         17.0680  -22.4690   -5.6210 C.2     1  UNL1       -0.0100
     18  C         18.3780  -21.2840   -3.4110 C.2     1  UNL1        0.0010
     19  C         18.9150  -21.1500   -4.6840 C.2     1  UNL1        0.0010
     20  C         18.2730  -21.7390   -5.7750 C.2     1  UNL1        0.0130
     21  C         22.2250  -22.8040  -10.7410 C.2     1  UNL1        0.2560
     22  N         23.0140  -22.1760  -11.6870 N.am    1  UNL1       -0.3230
     23  H         22.5940  -21.4120  -12.2010 H       1  UNL1        0.1690
     24  O         22.5830  -23.6330   -9.9130 O.2     1  UNL1       -0.2670
     25  C         24.3800  -22.4110  -11.9590 C.2     1  UNL1        0.0370
     26  C         25.2850  -21.4130  -11.5720 C.2     1  UNL1        0.0290
     27  C         26.6500  -21.5650  -11.8100 C.2     1  UNL1        0.0050
     28  C         27.1200  -22.7150  -12.4380 C.2     1  UNL1        0.0370
     29  C         26.2330  -23.7180  -12.8330 C.2     1  UNL1        0.0700
     30  C         24.8640  -23.5600  -12.5940 C.2     1  UNL1        0.0660
     31  O         26.8250  -24.7930  -13.4410 O.2     1  UNL1       -0.3560
     32  C         26.5730  -24.9620  -14.8300 C.3     1  UNL1        0.2100
@<TRIPOS>BOND
     1    32    31    1
     2    31    29    1
     3    29    30    1
     4    29    28    2
     5    30    25    2
     6    28    27    1
     7    23    22    1
     8    25    22    1
     9    25    26    1
    10     2     3    1
    11     2     1    2
    12    27    26    2
    13     3     4    2
    14    22    21   am
    15    21     1    1
    16    21    24    2
    17     1     6    1
    18     4     5    1
    19     6     5    2
    20     5     7    1
    21     9     8    2
    22     7     8   am
    23     7    10    1
    24     8    11    1
    25    11    12    2
    26    11    17    1
    27    12    13    1
    28    20    17    1
    29    20    19    2
    30    17    15    2
    31    13    14    2
    32    19    18    1
    33    15    14    1
    34    15    16    1
    35    18    16    2
