@<TRIPOS>MOLECULE
13257_out_ligand_01.pdbqt
 36 40 0 0 0
SMALL
GASTEIGER

@<TRIPOS>ATOM
      1  C         20.9650  -22.9380   -8.4380 C.2     1  UNL1        0.0320
      2  C         20.3690  -24.2030   -8.4250 C.2     1  UNL1        0.0190
      3  C         19.2460  -24.4500   -7.6210 C.2     1  UNL1        0.0320
      4  C         18.7040  -23.4340   -6.8240 C.2     1  UNL1        0.0570
      5  C         19.3370  -22.1750   -6.8160 C.2     1  UNL1        0.0320
      6  C         20.4590  -21.9310   -7.6150 C.2     1  UNL1        0.0190
      7  C         22.1590  -22.6460   -9.2780 C.2     1  UNL1        0.2560
      8  O         23.2170  -22.4030   -8.7120 O.2     1  UNL1       -0.2670
      9  N         21.9170  -22.6420  -10.6390 N.am    1  UNL1       -0.3230
     10  H         20.9540  -22.7250  -10.9350 H       1  UNL1        0.1690
     11  C         22.8530  -22.4290  -11.6720 C.2     1  UNL1        0.0350
     12  C         22.4670  -21.6110  -12.7320 C.2     1  UNL1        0.0320
     13  C         23.3470  -21.3550  -13.7930 C.2     1  UNL1        0.0310
     14  C         24.6420  -21.8940  -13.8360 C.2     1  UNL1        0.0300
     15  C         24.9940  -22.7400  -12.7770 C.2     1  UNL1        0.0310
     16  C         24.1220  -22.9990  -11.7070 C.2     1  UNL1        0.0320
     17  N         25.4760  -21.6170  -14.9190 N.pl3   1  UNL1       -0.3770
     18  C         24.9280  -21.5100  -16.2880 C.3     1  UNL1        0.1490
     19  C         24.9380  -22.8730  -17.0000 C.3     1  UNL1        0.1870
     20  O         26.2520  -23.4580  -17.0070 O.3     1  UNL1       -0.3880
     21  C         26.7280  -23.6250  -15.6610 C.3     1  UNL1        0.1870
     22  C         26.8040  -22.2770  -14.9240 C.3     1  UNL1        0.1490
     23  N         17.5570  -23.6250   -5.9970 N.ar    1  UNL1       -0.2170
     24  N         17.6960  -24.2160   -4.7770 N.ar    1  UNL1        0.0030
     25  N         16.4820  -24.3290   -4.2670 N.ar    1  UNL1        0.0190
     26  N         15.5500  -23.7800   -5.0950 N.ar    1  UNL1       -0.1350
     27  C         16.2060  -23.3320   -6.1440 C.ar    1  UNL1        0.2030
     28  S         15.4660  -22.3940   -7.3970 S.3     1  UNL1       -0.0850
     29  C         15.8830  -23.3870   -8.8610 C.3     1  UNL1        0.1210
     30  C         16.7490  -22.6280   -9.8380 C.2     1  UNL1       -0.0480
     31  C         17.8440  -23.2570  -10.4570 C.2     1  UNL1        0.0110
     32  C         18.6540  -22.5510  -11.3470 C.2     1  UNL1        0.0430
     33  C         18.3750  -21.2170  -11.6180 C.2     1  UNL1        0.1160
     34  F         19.1550  -20.5390  -12.4710 F       1  UNL1       -0.2060
     35  C         17.3000  -20.5740  -11.0170 C.2     1  UNL1        0.0430
     36  C         16.4860  -21.2780  -10.1270 C.2     1  UNL1        0.0110
@<TRIPOS>BOND
     1    20    19    1
     2    20    21    1
     3    19    18    1
     4    18    17    1
     5    21    22    1
     6    22    17    1
     7    17    14    1
     8    14    13    2
     9    14    15    1
    10    13    12    1
    11    15    16    2
    12    12    11    2
    13    34    33    1
    14    16    11    1
    15    11     9    1
    16    33    32    2
    17    33    35    1
    18    32    31    1
    19    35    36    2
    20    10     9    1
    21     9     7   am
    22    31    30    2
    23    36    30    1
    24    30    29    1
    25     7     8    2
    26     7     1    1
    27    29    28    1
    28     1     2    2
    29     1     6    1
    30     2     3    1
    31     3     4    2
    32     6     5    2
    33    28    27    1
    34     4     5    1
    35     4    23    1
    36    27    23   ar
    37    27    26   ar
    38    23    24   ar
    39    26    25   ar
    40    24    25   ar
