@<TRIPOS>MOLECULE
13262_out_ligand_01.pdbqt
 36 40 0 0 0
SMALL
GASTEIGER

@<TRIPOS>ATOM
      1  C         23.7260  -22.1430  -10.9480 C.ar    1  UNL1        0.1690
      2  N         23.3940  -22.9480   -9.9940 N.ar    1  UNL1       -0.2280
      3  C         22.0450  -23.1840   -9.8460 C.ar    1  UNL1        0.0520
      4  C         21.0890  -22.6410  -10.6190 C.ar    1  UNL1        0.0630
      5  C         21.5140  -21.7300  -11.7000 C.ar    1  UNL1        0.2570
      6  O         20.7200  -21.1980  -12.4660 O.2     1  UNL1       -0.2670
      7  N         22.8570  -21.5200  -11.7800 N.ar    1  UNL1       -0.3020
      8  C         19.6200  -22.8970  -10.4460 C.3     1  UNL1        0.3190
      9  N         19.2460  -23.5020   -9.1470 N.3     1  UNL1        0.0970
     10  C         20.1900  -24.5840   -8.8200 C.3     1  UNL1        0.2790
     11  C         21.6590  -24.1370   -8.7400 C.3     1  UNL1        0.0900
     12  H         23.2050  -20.9330  -12.5210 H       1  UNL1        0.1710
     13  S         25.3820  -21.7620  -11.2920 S.3     1  UNL1       -0.0830
     14  C         25.9340  -23.4060  -11.8400 C.3     1  UNL1        0.1850
     15  C         25.5070  -23.6680  -13.2830 C.2     1  UNL1        0.2310
     16  N         25.3240  -22.5000  -14.0100 N.am    1  UNL1       -0.3260
     17  H         25.4850  -21.6370  -13.5110 H       1  UNL1        0.1690
     18  O         25.3670  -24.8150  -13.6980 O.2     1  UNL1       -0.2720
     19  C         25.0460  -22.3630  -15.3930 C.2     1  UNL1        0.0410
     20  C         24.5730  -23.4330  -16.1600 C.2     1  UNL1        0.0300
     21  C         24.3520  -23.2910  -17.5290 C.2     1  UNL1        0.0030
     22  C         24.6050  -22.0750  -18.1530 C.2     1  UNL1        0.0070
     23  C         25.0730  -20.9770  -17.4170 C.2     1  UNL1       -0.0540
     24  C         25.3190  -19.6860  -18.1530 C.3     1  UNL1        0.0490
     25  C         25.2820  -21.1090  -16.0200 C.2     1  UNL1       -0.0290
     26  C         25.7480  -19.9240  -15.2050 C.3     1  UNL1        0.0510
     27  C         19.1590  -22.5090   -8.0630 C.3     1  UNL1        0.3110
     28  C         17.9620  -22.7240   -7.1590 C.2     1  UNL1       -0.0270
     29  C         16.6680  -22.3340   -7.5820 C.2     1  UNL1        0.0120
     30  C         15.5550  -22.5240   -6.7590 C.2     1  UNL1        0.0400
     31  C         15.7600  -23.1010   -5.5250 C.2     1  UNL1        0.1050
     32  C         17.0110  -23.4840   -5.1030 C.2     1  UNL1        0.1050
     33  O         14.7980  -23.3610   -4.6000 O.2     1  UNL1       -0.3230
     34  C         18.1280  -23.3100   -5.8930 C.2     1  UNL1        0.0480
     35  O         16.9950  -24.0310   -3.8590 O.2     1  UNL1       -0.3230
     36  C         15.5870  -23.9630   -3.5520 C.3     1  UNL1        0.3520
@<TRIPOS>BOND
     1    24    23    1
     2    22    21    2
     3    22    23    1
     4    21    20    1
     5    23    25    2
     6    20    19    2
     7    25    19    1
     8    25    26    1
     9    19    16    1
    10    16    17    1
    11    16    15   am
    12    18    15    2
    13    15    14    1
    14    12     7    1
    15     6     5    2
    16    14    13    1
    17     7     5   ar
    18     7     1   ar
    19     5     4   ar
    20    13     1    1
    21     1     2   ar
    22     4     8    1
    23     4     3   ar
    24     8     9    1
    25     2     3   ar
    26     3    11    1
    27     9    10    1
    28     9    27    1
    29    10    11    1
    30    27    28    1
    31    29    28    2
    32    29    30    1
    33    28    34    1
    34    30    31    2
    35    34    32    2
    36    31    32    1
    37    31    33    1
    38    32    35    1
    39    33    36    1
    40    35    36    1
