@<TRIPOS>MOLECULE
13271_out_ligand_01.pdbqt
 35 39 0 0 0
SMALL
GASTEIGER

@<TRIPOS>ATOM
      1  C         16.3010  -21.7990   -9.9650 C.3     1  UNL1        0.1210
      2  C         17.6770  -21.7050  -10.5820 C.2     1  UNL1       -0.0480
      3  C         18.1950  -20.4660  -10.9870 C.2     1  UNL1        0.0090
      4  C         19.4680  -20.3790  -11.5620 C.2     1  UNL1        0.0170
      5  C         20.2430  -21.5320  -11.7300 C.2     1  UNL1        0.0320
      6  C         19.7190  -22.7750  -11.3510 C.2     1  UNL1        0.0170
      7  C         18.4470  -22.8600  -10.7790 C.2     1  UNL1        0.0090
      8  C         21.6060  -21.4950  -12.3300 C.2     1  UNL1        0.2520
      9  O         21.7730  -21.0110  -13.4440 O.2     1  UNL1       -0.2680
     10  N         22.6250  -22.0480  -11.5800 N.am    1  UNL1       -0.3520
     11  H         22.4200  -22.4540  -10.6790 H       1  UNL1        0.1630
     12  C         24.0220  -22.0070  -12.0160 C.3     1  UNL1        0.0840
     13  C         24.4150  -23.3810  -12.5760 C.3     1  UNL1        0.0250
     14  C         25.8340  -23.5190  -13.1370 C.3     1  UNL1        0.0020
     15  C         26.4760  -22.2160  -13.6030 C.2     1  UNL1        0.0000
     16  C         26.8820  -21.2370  -12.4920 C.2     1  UNL1        0.0000
     17  C         26.4140  -21.5780  -11.0790 C.3     1  UNL1        0.0020
     18  C         24.9030  -21.5210  -10.8590 C.3     1  UNL1        0.0250
     19  S         15.8960  -23.4810   -9.4150 S.3     1  UNL1       -0.0870
     20  C         15.9900  -23.3190   -7.6920 C.ar    1  UNL1        0.1710
     21  N         15.1820  -22.5780   -6.9640 N.ar    1  UNL1       -0.2210
     22  C         15.6280  -22.7310   -5.6780 C.ar    1  UNL1        0.1050
     23  C         15.1750  -22.1770   -4.4750 C.2     1  UNL1        0.0370
     24  C         16.7190  -23.5890   -5.6270 C.ar    1  UNL1        0.1610
     25  C         15.8630  -22.5270   -3.3120 C.2     1  UNL1        0.0220
     26  C         16.9470  -23.3960   -3.4000 C.2     1  UNL1        0.1190
     27  N         17.4210  -23.9610   -4.5380 N.2     1  UNL1       -0.2410
     28  N         16.9260  -23.9740   -6.9290 N.ar    1  UNL1       -0.3040
     29  C         18.0000  -24.8490   -7.3630 C.3     1  UNL1        0.1710
     30  C         19.2650  -24.0870   -7.6810 C.2     1  UNL1       -0.0400
     31  C         20.2970  -24.6880   -8.4170 C.2     1  UNL1        0.0090
     32  C         21.4630  -23.9820   -8.7150 C.2     1  UNL1        0.0010
     33  C         21.6100  -22.6650   -8.2840 C.2     1  UNL1        0.0000
     34  C         20.5920  -22.0540   -7.5550 C.2     1  UNL1        0.0010
     35  C         19.4270  -22.7600   -7.2550 C.2     1  UNL1        0.0090
@<TRIPOS>BOND
     1    15    14    1
     2    15    16    2
     3     9     8    2
     4    14    13    1
     5    13    12    1
     6    16    17    1
     7     8     5    1
     8     8    10   am
     9    12    10    1
    10    12    18    1
    11     5     4    2
    12     5     6    1
    13    10    11    1
    14     4     3    1
    15     6     7    2
    16    17    18    1
    17     3     2    2
    18     7     2    1
    19     2     1    1
    20     1    19    1
    21    19    20    1
    22    32    31    1
    23    32    33    2
    24    31    30    2
    25    33    34    1
    26    20    21   ar
    27    20    28   ar
    28    30    29    1
    29    30    35    1
    30    34    35    2
    31    29    28    1
    32    21    22   ar
    33    28    24   ar
    34    22    24   ar
    35    22    23    1
    36    24    27    1
    37    27    26    2
    38    23    25    2
    39    26    25    1
