@<TRIPOS>MOLECULE
13280_out_ligand_01.pdbqt
 36 40 0 0 0
SMALL
GASTEIGER

@<TRIPOS>ATOM
      1  C         20.2830  -21.5790  -11.7910 C.2     1  UNL1        0.0320
      2  C         19.5150  -20.4210  -11.6250 C.2     1  UNL1        0.0170
      3  C         18.2530  -20.4940  -11.0340 C.2     1  UNL1        0.0090
      4  C         17.7350  -21.7230  -10.6010 C.2     1  UNL1       -0.0480
      5  C         18.4960  -22.8850  -10.7960 C.2     1  UNL1        0.0090
      6  C         19.7610  -22.8150  -11.3890 C.2     1  UNL1        0.0170
      7  C         16.3750  -21.7940   -9.9500 C.3     1  UNL1        0.1210
      8  S         15.8840  -23.4550   -9.4160 S.3     1  UNL1       -0.0870
      9  C         16.0220  -23.2950   -7.6970 C.ar    1  UNL1        0.1700
     10  N         15.1950  -22.5910   -6.9620 N.ar    1  UNL1       -0.2220
     11  C         15.6640  -22.7020   -5.6800 C.ar    1  UNL1        0.0890
     12  C         15.1570  -22.1550   -4.5000 C.2     1  UNL1        0.0530
     13  C         16.8130  -23.4860   -5.6380 C.ar    1  UNL1        0.0830
     14  C         15.8710  -22.4400   -3.3490 C.2     1  UNL1        0.1180
     15  N         16.9990  -23.1880   -3.3050 N.2     1  UNL1       -0.2710
     16  C         17.4870  -23.7220   -4.4490 C.2     1  UNL1        0.1480
     17  N         17.0050  -23.8890   -6.9440 N.ar    1  UNL1       -0.3190
     18  C         18.0920  -24.7380   -7.4120 C.3     1  UNL1        0.1700
     19  C         19.3560  -23.9620   -7.6950 C.2     1  UNL1       -0.0400
     20  C         19.5120  -22.6370   -7.2600 C.2     1  UNL1        0.0090
     21  C         20.6790  -21.9260   -7.5460 C.2     1  UNL1        0.0010
     22  C         21.7020  -22.5260   -8.2750 C.2     1  UNL1        0.0000
     23  C         21.5600  -23.8360   -8.7200 C.2     1  UNL1        0.0010
     24  C         20.3940  -24.5500   -8.4340 C.2     1  UNL1        0.0090
     25  C         21.6330  -21.4460  -12.4070 C.2     1  UNL1        0.2520
     26  N         22.6810  -22.0430  -11.7290 N.am    1  UNL1       -0.3520
     27  H         22.5240  -22.3380  -10.7740 H       1  UNL1        0.1630
     28  O         21.7820  -20.7940  -13.4360 O.2     1  UNL1       -0.2680
     29  C         24.0630  -21.8490  -12.1490 C.3     1  UNL1        0.0880
     30  C         24.4510  -22.9040  -13.1910 C.3     1  UNL1        0.0250
     31  C         25.8930  -22.7380  -13.6600 C.3     1  UNL1        0.0020
     32  C         26.8800  -22.6960  -12.4940 C.3     1  UNL1        0.0050
     33  C         26.5100  -21.6610  -11.4200 C.3     1  UNL1       -0.0130
     34  C         25.0410  -21.8230  -10.9470 C.3     1  UNL1        0.0080
     35  C         26.7860  -20.2330  -11.9090 C.3     1  UNL1        0.0100
     36  C         24.9050  -23.0640  -10.0490 C.3     1  UNL1        0.0120
@<TRIPOS>BOND
     1    31    30    1
     2    31    32    1
     3    28    25    2
     4    30    29    1
     5    32    33    1
     6    25     1    1
     7    25    26   am
     8    29    26    1
     9    29    34    1
    10    35    33    1
    11     1     2    2
    12     1     6    1
    13    26    27    1
    14     2     3    1
    15    33    34    1
    16     6     5    2
    17     3     4    2
    18    34    36    1
    19     5     4    1
    20     4     7    1
    21     7     8    1
    22     8     9    1
    23    23    24    1
    24    23    22    2
    25    24    19    2
    26    22    21    1
    27     9    10   ar
    28     9    17   ar
    29    19    18    1
    30    19    20    1
    31    21    20    2
    32    18    17    1
    33    10    11   ar
    34    17    13   ar
    35    11    13   ar
    36    11    12    1
    37    13    16    1
    38    12    14    2
    39    16    15    2
    40    14    15    1
