@<TRIPOS>MOLECULE
13299_out_ligand_01.pdbqt
 31 34 0 0 0
SMALL
GASTEIGER

@<TRIPOS>ATOM
      1  C         21.1900  -21.7970  -11.3020 C.2     1  UNL1        0.0360
      2  C         19.9700  -21.2950  -11.7470 C.2     1  UNL1        0.0320
      3  C         18.7710  -21.8050  -11.2380 C.2     1  UNL1        0.0400
      4  C         18.7810  -22.8040  -10.2610 C.2     1  UNL1        0.0920
      5  C         19.9860  -23.3130   -9.8040 C.2     1  UNL1        0.0680
      6  C         21.1890  -22.8080  -10.3340 C.2     1  UNL1        0.0490
      7  C         20.0940  -24.3850   -8.7940 C.2     1  UNL1        0.2590
      8  O         21.0890  -25.1120   -8.7900 O.2     1  UNL1       -0.2670
      9  N         19.1800  -24.5120   -7.7790 N.am    1  UNL1       -0.3200
     10  C         17.9740  -23.8370   -7.5610 C.2     1  UNL1        0.0700
     11  C         17.4620  -23.8500   -6.2570 C.2     1  UNL1        0.0560
     12  C         16.2550  -23.2090   -5.9670 C.2     1  UNL1        0.0360
     13 CL         15.6560  -23.2120   -4.3540 Cl      1  UNL1       -0.0840
     14  C         15.5320  -22.5770   -6.9720 C.2     1  UNL1        0.0260
     15  C         16.0200  -22.5910   -8.2790 C.2     1  UNL1        0.0410
     16  C         17.2420  -23.2110   -8.5690 C.2     1  UNL1        0.1020
     17  O         17.5580  -23.2960   -9.9010 O.2     1  UNL1       -0.3070
     18  H         19.5140  -25.1370   -7.0520 H       1  UNL1        0.1690
     19  N         22.4420  -21.3460  -11.7570 N.am    1  UNL1       -0.3230
     20  C         23.5250  -22.1030  -12.1630 C.2     1  UNL1        0.2590
     21  O         23.5960  -23.3280  -12.1430 O.2     1  UNL1       -0.2670
     22  H         22.5620  -20.3390  -11.8150 H       1  UNL1        0.1690
     23  C         24.7110  -21.3320  -12.6490 C.2     1  UNL1        0.0650
     24  C         25.6720  -20.9530  -11.6980 C.2     1  UNL1        0.0200
     25  C         26.7970  -20.2130  -12.0740 C.2     1  UNL1        0.0010
     26  C         26.9750  -19.8430  -13.4060 C.2     1  UNL1        0.0030
     27  C         26.0360  -20.2210  -14.3640 C.2     1  UNL1        0.0380
     28  C         24.9210  -20.9800  -13.9910 C.2     1  UNL1        0.0840
     29  O         24.0230  -21.3000  -14.9780 O.2     1  UNL1       -0.3500
     30  C         24.7010  -21.8270  -16.1260 C.3     1  UNL1        0.1710
     31  C         24.7900  -23.3330  -15.9570 C.3     1  UNL1        0.0340
@<TRIPOS>BOND
     1    30    31    1
     2    30    29    1
     3    29    28    1
     4    27    28    1
     5    27    26    2
     6    28    23    2
     7    26    25    1
     8    23    20    1
     9    23    24    1
    10    20    21    2
    11    20    19   am
    12    25    24    2
    13    22    19    1
    14    19     1    1
    15     2     1    2
    16     2     3    1
    17     1     6    1
    18     3     4    2
    19     6     5    2
    20     4    17    1
    21     4     5    1
    22    17    16    1
    23     5     7    1
    24     7     8    2
    25     7     9   am
    26    16    15    1
    27    16    10    2
    28    15    14    2
    29     9    10    1
    30     9    18    1
    31    10    11    1
    32    14    12    1
    33    11    12    2
    34    12    13    1
