@<TRIPOS>MOLECULE
132_out_ligand_01.pdbqt
 30 32 0 0 0
SMALL
GASTEIGER

@<TRIPOS>ATOM
      1  C         17.3690  -22.9190   -8.9940 C.2     1  UNL1        0.0800
      2  C         16.8060  -22.1630  -10.0260 C.2     1  UNL1        0.0260
      3  C         17.6300  -21.6130  -11.0110 C.2     1  UNL1        0.0090
      4  C         19.0200  -21.8120  -10.9780 C.2     1  UNL1       -0.0460
      5  C         19.8780  -21.1750  -12.0350 C.3     1  UNL1        0.0490
      6  C         19.5590  -22.6140   -9.9520 C.2     1  UNL1        0.0390
      7  C         18.7420  -23.1610   -8.9570 C.2     1  UNL1        0.0420
      8  S         16.3220  -23.6280   -7.7500 S.O2    1  UNL1        0.2630
      9  O         15.6020  -22.5380   -7.1220 O.2     1  UNL1       -0.2000
     10  O         15.6090  -24.7480   -8.3240 O.2     1  UNL1       -0.2000
     11  N         17.4280  -24.1730   -6.5940 N.pl3   1  UNL1       -0.2810
     12  H         18.1920  -24.6790   -7.0410 H       1  UNL1        0.1790
     13  C         17.7730  -23.2880   -5.5350 C.2     1  UNL1        0.0430
     14  C         17.3750  -23.5850   -4.2330 C.2     1  UNL1        0.0300
     15  C         17.6610  -22.6930   -3.2020 C.2     1  UNL1        0.0030
     16  C         18.3470  -21.5070   -3.4730 C.2     1  UNL1        0.0070
     17  C         18.7600  -21.2070   -4.7770 C.2     1  UNL1       -0.0600
     18  C         19.4500  -19.9100   -5.0760 C.3     1  UNL1        0.0480
     19  C         18.4530  -22.1020   -5.8110 C.2     1  UNL1        0.0370
     20  C         21.0090  -22.8900   -9.8540 C.2     1  UNL1        0.2520
     21  O         21.4090  -24.0450   -9.7920 O.2     1  UNL1       -0.2680
     22  N         21.8110  -21.7760   -9.8510 N.am    1  UNL1       -0.3510
     23  H         21.3920  -20.8580   -9.7920 H       1  UNL1        0.1630
     24  C         23.2220  -21.8670   -9.5400 C.3     1  UNL1        0.1820
     25  C         24.0610  -21.6460  -10.7770 C.2     1  UNL1        0.0510
     26  C         23.6650  -22.1830  -12.0000 C.2     1  UNL1        0.0290
     27  C         24.4810  -22.0000  -13.1110 C.2     1  UNL1        0.0030
     28  C         25.6710  -21.2960  -12.9730 C.2     1  UNL1        0.0190
     29  C         26.0010  -20.8070  -11.7210 C.2     1  UNL1        0.1170
     30  N         25.2320  -20.9730  -10.6210 N.2     1  UNL1       -0.2640
@<TRIPOS>BOND
     1    27    28    2
     2    27    26    1
     3    28    29    1
     4     5     4    1
     5    26    25    2
     6    29    30    2
     7     3     4    2
     8     3     2    1
     9     4     6    1
    10    25    30    1
    11    25    24    1
    12     2     1    2
    13     6    20    1
    14     6     7    2
    15    20    22   am
    16    20    21    2
    17    22    23    1
    18    22    24    1
    19     1     7    1
    20     1     8    1
    21    10     8    2
    22     8     9    2
    23     8    11    1
    24    12    11    1
    25    11    13    1
    26    19    13    2
    27    19    17    1
    28    13    14    1
    29    18    17    1
    30    17    16    2
    31    14    15    2
    32    16    15    1
