@<TRIPOS>MOLECULE
13350_out_ligand_01.pdbqt
 37 41 0 0 0
SMALL
GASTEIGER

@<TRIPOS>ATOM
      1  C         20.7870  -21.1900  -12.6620 C.2     1  UNL1        0.0540
      2  C         22.0860  -21.4640  -12.4440 C.2     1  UNL1        0.1450
      3  O         22.4780  -22.2050  -11.3480 O.2     1  UNL1       -0.3030
      4  C         23.8030  -22.5140  -11.2110 C.2     1  UNL1        0.1030
      5  C         24.1270  -23.2560  -10.0690 C.2     1  UNL1        0.0390
      6  C         25.4450  -23.6260   -9.8300 C.2     1  UNL1        0.0030
      7  C         26.4340  -23.2510  -10.7300 C.2     1  UNL1        0.0020
      8  C         26.1050  -22.5080  -11.8710 C.2     1  UNL1        0.0330
      9  C         24.7800  -22.1320  -12.1350 C.2     1  UNL1        0.0710
     10  N         24.3970  -21.3720  -13.2770 N.am    1  UNL1       -0.3050
     11  C         23.0760  -20.9720  -13.4560 C.2     1  UNL1        0.2820
     12  O         22.7090  -20.2590  -14.3930 O.2     1  UNL1       -0.2650
     13  C         19.6970  -21.6510  -11.7990 C.2     1  UNL1       -0.0330
     14  C         18.4450  -21.0370  -11.9000 C.2     1  UNL1        0.0120
     15  C         17.3860  -21.4480  -11.0840 C.2     1  UNL1        0.0180
     16  C         17.5790  -22.4690  -10.1440 C.2     1  UNL1        0.0320
     17  C         18.8290  -23.0950  -10.0530 C.2     1  UNL1        0.0180
     18  C         19.8840  -22.6860  -10.8750 C.2     1  UNL1        0.0120
     19  C         16.4800  -22.9330   -9.2480 C.2     1  UNL1        0.2520
     20  O         15.5510  -23.5910   -9.6980 O.2     1  UNL1       -0.2680
     21  N         16.6080  -22.5970   -7.9150 N.am    1  UNL1       -0.3520
     22  H         17.5080  -22.2720   -7.5960 H       1  UNL1        0.1630
     23  C         15.6460  -23.0220   -6.9030 C.3     1  UNL1        0.0840
     24  C         15.9190  -24.4370   -6.3770 C.3     1  UNL1        0.0250
     25  C         17.3660  -24.7420   -6.0000 C.3     1  UNL1        0.0020
     26  C         17.8650  -24.0490   -4.7400 C.3     1  UNL1        0.0000
     27  C         17.8230  -22.5260   -4.7820 C.3     1  UNL1        0.0000
     28  C         16.4220  -21.9560   -4.6030 C.3     1  UNL1        0.0020
     29  C         15.4940  -21.9470   -5.8200 C.3     1  UNL1        0.0250
     30  C         25.3460  -21.0190  -14.3300 C.3     1  UNL1        0.1710
     31  C         25.0040  -21.6560  -15.6640 C.2     1  UNL1       -0.0370
     32  C         25.1710  -20.9330  -16.8580 C.2     1  UNL1        0.0090
     33  C         24.8390  -21.4950  -18.0940 C.2     1  UNL1        0.0040
     34  C         24.3310  -22.7890  -18.1530 C.2     1  UNL1        0.0420
     35  C         24.1620  -23.5090  -16.9760 C.2     1  UNL1        0.1170
     36  F         23.6710  -24.7550  -17.0300 F       1  UNL1       -0.2060
     37  C         24.4930  -22.9590  -15.7400 C.2     1  UNL1        0.0510
@<TRIPOS>BOND
     1    34    33    2
     2    34    35    1
     3    33    32    1
     4    36    35    1
     5    35    37    2
     6    32    31    2
     7    37    31    1
     8    31    30    1
     9    12    11    2
    10    30    10    1
    11    11    10   am
    12    11     2    1
    13    10     9    1
    14     1     2    2
    15     1    13    1
    16     2     3    1
    17     9     8    1
    18     9     4    2
    19    14    13    2
    20    14    15    1
    21     8     7    2
    22    13    18    1
    23     3     4    1
    24     4     5    1
    25    15    16    2
    26    18    17    2
    27     7     6    1
    28    16    17    1
    29    16    19    1
    30     5     6    2
    31    20    19    2
    32    19    21   am
    33    21    22    1
    34    21    23    1
    35    23    24    1
    36    23    29    1
    37    24    25    1
    38    25    26    1
    39    29    28    1
    40    27    26    1
    41    27    28    1
