@<TRIPOS>MOLECULE
1335_out_ligand_01.pdbqt
 28 31 0 0 0
SMALL
GASTEIGER

@<TRIPOS>ATOM
      1  C         16.9900  -23.0800   -8.7740 C.2     1  UNL1        0.0330
      2  C         16.6430  -22.1880   -9.8170 C.2     1  UNL1        0.0180
      3  C         17.6220  -21.6670  -10.6750 C.2     1  UNL1        0.0190
      4  C         18.9330  -22.0480  -10.4570 C.2     1  UNL1        0.0480
      5  C         19.2800  -22.9020   -9.4370 C.2     1  UNL1        0.0490
      6  C         18.3370  -23.4350   -8.5780 C.2     1  UNL1        0.0350
      7  C         20.7270  -23.0860   -9.4870 C.2     1  UNL1        0.2660
      8  O         21.2830  -23.8180   -8.6880 O.2     1  UNL1       -0.2670
      9  N         21.2030  -22.3260  -10.5390 N.am    1  UNL1       -0.2440
     10  C         20.1540  -21.6820  -11.1660 C.2     1  UNL1        0.2660
     11  O         20.1050  -20.9330  -12.1250 O.2     1  UNL1       -0.2670
     12  C         15.9850  -23.6670   -7.8380 C.2     1  UNL1        0.2510
     13  O         15.5460  -24.7920   -8.0520 O.2     1  UNL1       -0.2680
     14  N         15.5710  -22.8920   -6.7790 N.am    1  UNL1       -0.3540
     15  H         16.0120  -22.0120   -6.5570 H       1  UNL1        0.1620
     16  C         14.7190  -23.4260   -5.7280 C.3     1  UNL1        0.1550
     17  C         15.4690  -23.5780   -4.4010 C.3     1  UNL1        0.1390
     18  C         15.9660  -22.2610   -3.8100 C.3     1  UNL1        0.0350
     19  C         17.4550  -22.2950   -4.0530 C.3     1  UNL1        0.0290
     20  C         17.7520  -23.7730   -3.9860 C.3     1  UNL1        0.1680
     21  O         16.6300  -24.4180   -4.6010 O.3     1  UNL1       -0.3840
     22  C         22.5790  -22.2280  -10.9240 C.2     1  UNL1        0.0460
     23  C         23.0700  -22.8620  -12.0790 C.2     1  UNL1        0.0310
     24  C         24.4170  -22.7680  -12.4590 C.2     1  UNL1        0.0210
     25  C         25.3040  -22.0310  -11.6880 C.2     1  UNL1        0.0110
     26 BR         27.1170  -21.8970  -12.1970 Br      1  UNL1       -0.0510
     27  C         24.8550  -21.3920  -10.5400 C.2     1  UNL1        0.0210
     28  C         23.5070  -21.4920  -10.1650 C.2     1  UNL1        0.0310
@<TRIPOS>BOND
     1    24    23    1
     2    24    25    2
     3    26    25    1
     4    11    10    2
     5    23    22    2
     6    25    27    1
     7    10     9   am
     8    10     4    1
     9    22     9    1
    10    22    28    1
    11     3     4    2
    12     3     2    1
    13    27    28    2
    14     9     7   am
    15     4     5    1
    16     2     1    2
    17     7     5    1
    18     7     8    2
    19     5     6    2
    20     1     6    1
    21     1    12    1
    22    13    12    2
    23    12    14   am
    24    14    15    1
    25    14    16    1
    26    16    17    1
    27    21    17    1
    28    21    20    1
    29    17    18    1
    30    19    20    1
    31    19    18    1
