@<TRIPOS>MOLECULE
13368_out_ligand_01.pdbqt
 31 33 0 0 0
SMALL
GASTEIGER

@<TRIPOS>ATOM
      1  C         19.6650  -23.3630   -7.8000 C.2     1  UNL1       -0.0400
      2  C         20.5560  -22.2860   -7.6560 C.2     1  UNL1        0.0100
      3  C         21.8220  -22.3050   -8.2460 C.2     1  UNL1        0.0250
      4  C         22.2270  -23.4140   -8.9830 C.2     1  UNL1        0.0220
      5  C         21.3650  -24.4960   -9.1450 C.2     1  UNL1        0.0250
      6  C         20.1000  -24.4700   -8.5530 C.2     1  UNL1        0.0100
      7  N         23.4840  -23.3850   -9.6710 N.pl3   1  UNL1       -0.1810
      8  H         23.6040  -24.2110  -10.2600 H       1  UNL1        0.1460
      9  S         23.6740  -22.0100  -10.6760 S.O2    1  UNL1        0.2460
     10  O         24.4290  -20.9900   -9.9800 O.2     1  UNL1       -0.2050
     11  O         22.3540  -21.7180  -11.1930 O.2     1  UNL1       -0.2050
     12  C         24.7180  -22.6980  -11.9790 C.2     1  UNL1        0.0860
     13  C         24.3490  -22.4870  -13.3340 C.2     1  UNL1       -0.0380
     14  C         23.1290  -21.7150  -13.7660 C.3     1  UNL1        0.0500
     15  C         25.1390  -23.0490  -14.3550 C.2     1  UNL1        0.0150
     16  C         26.2760  -23.8030  -14.0630 C.2     1  UNL1       -0.0610
     17  C         27.1210  -24.3700  -15.1660 C.3     1  UNL1        0.0480
     18  C         26.6450  -23.9790  -12.7290 C.2     1  UNL1        0.0150
     19  C         25.8830  -23.4420  -11.6720 C.2     1  UNL1       -0.0380
     20  C         26.3820  -23.7160  -10.2770 C.3     1  UNL1        0.0500
     21  C         18.2430  -23.2870   -7.2290 C.3     1  UNL1        0.0680
     22  C         17.7380  -24.4640   -6.3920 C.3     1  UNL1        0.0260
     23  C         18.1400  -23.1980   -5.7040 C.3     1  UNL1        0.0260
     24  C         17.1970  -22.5440   -8.0510 C.2     1  UNL1        0.2310
     25  N         17.3730  -22.5860   -9.4170 N.am    1  UNL1       -0.3600
     26  H         18.2410  -22.9590   -9.7750 H       1  UNL1        0.1620
     27  O         16.2600  -21.9690   -7.5080 O.2     1  UNL1       -0.2720
     28  C         16.5410  -21.8030  -10.3040 C.3     1  UNL1        0.1220
     29  C         17.3450  -21.1440  -11.4220 C.3     1  UNL1        0.0190
     30  C         18.8180  -21.5660  -11.4120 C.3     1  UNL1       -0.0030
     31  C         19.7420  -20.3660  -11.5500 C.3     1  UNL1        0.0050
@<TRIPOS>BOND
     1    17    16    1
     2    15    16    2
     3    15    13    1
     4    16    18    1
     5    14    13    1
     6    13    12    2
     7    18    19    2
     8    12    19    1
     9    12     9    1
    10    19    20    1
    11    31    30    1
    12    29    30    1
    13    29    28    1
    14    11     9    2
    15     9    10    2
    16     9     7    1
    17    28    25    1
    18     8     7    1
    19    26    25    1
    20     7     4    1
    21    25    24   am
    22     5     4    2
    23     5     6    1
    24     4     3    1
    25     6     1    2
    26     3     2    2
    27    24    27    2
    28    24    21    1
    29     1     2    1
    30     1    21    1
    31    21    22    1
    32    21    23    1
    33    22    23    1
