@<TRIPOS>MOLECULE
13366_out_ligand_01.pdbqt
 36 39 0 0 0
SMALL
GASTEIGER

@<TRIPOS>ATOM
      1  N         21.4360  -22.5670   -9.2710 N.3     1  UNL1        0.1080
      2  C         21.0340  -23.5090   -8.1960 C.3     1  UNL1        0.2530
      3  C         20.7870  -24.9130   -8.7780 C.3     1  UNL1        0.0480
      4  C         19.9050  -23.0310   -7.2820 C.2     1  UNL1       -0.0250
      5  C         19.9210  -21.7800   -6.6440 C.2     1  UNL1        0.0090
      6  C         18.8700  -21.3860   -5.8090 C.2     1  UNL1        0.0010
      7  C         17.7850  -22.2310   -5.6020 C.2     1  UNL1        0.0000
      8  C         17.7440  -23.4700   -6.2340 C.2     1  UNL1        0.0010
      9  C         18.7930  -23.8630   -7.0680 C.2     1  UNL1        0.0090
     10  C         20.8280  -22.8870  -10.5770 C.3     1  UNL1        0.3120
     11  C         19.4780  -22.2290  -10.7930 C.2     1  UNL1       -0.0290
     12  C         19.3670  -21.0860  -11.5950 C.2     1  UNL1        0.0090
     13  C         18.1310  -20.4650  -11.7780 C.2     1  UNL1        0.0010
     14  C         16.9930  -20.9730  -11.1510 C.2     1  UNL1        0.0160
     15  C         17.0790  -22.1030  -10.3250 C.2     1  UNL1        0.0480
     16  C         18.3280  -22.7220  -10.1540 C.2     1  UNL1        0.0250
     17  C         15.8510  -22.6680   -9.6570 C.3     1  UNL1        0.4170
     18  F         15.7290  -22.2920   -8.3520 F       1  UNL1       -0.1660
     19  F         15.8230  -24.0300   -9.6520 F       1  UNL1       -0.1660
     20  F         14.7000  -22.2710  -10.2670 F       1  UNL1       -0.1660
     21  C         22.8950  -22.3860   -9.4080 C.3     1  UNL1        0.3590
     22  C         23.3930  -22.3410  -10.8300 C.2     1  UNL1        0.1740
     23  N         23.0800  -21.4630  -11.7700 N.2     1  UNL1       -0.2190
     24  C         23.8400  -21.8610  -12.8620 C.2     1  UNL1        0.1490
     25  C         24.5790  -22.9680  -12.5230 C.2     1  UNL1        0.1810
     26  O         24.3090  -23.2800  -11.2280 O.2     1  UNL1       -0.3030
     27  C         23.8490  -21.1740  -14.1450 C.2     1  UNL1        0.2720
     28  O         22.8540  -20.6520  -14.6340 O.2     1  UNL1       -0.2660
     29  N         25.0820  -21.2020  -14.7520 N.am    1  UNL1       -0.3530
     30  H         25.8230  -21.6800  -14.2480 H       1  UNL1        0.1620
     31  C         25.3410  -20.6360  -16.0580 C.3     1  UNL1        0.1550
     32  C         25.7610  -21.6880  -17.0990 C.3     1  UNL1        0.1390
     33  C         25.8860  -23.1030  -16.5530 C.3     1  UNL1        0.0350
     34  C         24.4960  -23.6550  -16.7420 C.3     1  UNL1        0.0290
     35  C         24.0840  -23.0170  -18.0500 C.3     1  UNL1        0.1680
     36  O         24.7460  -21.7460  -18.1230 O.3     1  UNL1       -0.3840
@<TRIPOS>BOND
     1    36    35    1
     2    36    32    1
     3    35    34    1
     4    32    33    1
     5    32    31    1
     6    34    33    1
     7    31    29    1
     8    29    30    1
     9    29    27   am
    10    28    27    2
    11    27    24    1
    12    24    25    2
    13    24    23    1
    14    25    26    1
    15    13    12    1
    16    13    14    2
    17    23    22    2
    18    12    11    2
    19    26    22    1
    20    14    15    1
    21    22    21    1
    22    11    10    1
    23    11    16    1
    24    10     1    1
    25    15    16    2
    26    15    17    1
    27    20    17    1
    28    17    19    1
    29    17    18    1
    30    21     1    1
    31     1     2    1
    32     3     2    1
    33     2     4    1
    34     4     9    2
    35     4     5    1
    36     9     8    1
    37     5     6    2
    38     8     7    2
    39     6     7    1
