@<TRIPOS>MOLECULE
13378_out_ligand_01.pdbqt
 32 35 0 0 0
SMALL
GASTEIGER

@<TRIPOS>ATOM
      1  C         22.3810  -22.2580   -9.8720 C.2     1  UNL1        0.0320
      2  C         22.3250  -22.1220   -8.4800 C.2     1  UNL1        0.0170
      3  C         21.0960  -22.1990   -7.8190 C.2     1  UNL1        0.0110
      4  C         19.9050  -22.4320   -8.5310 C.2     1  UNL1       -0.0250
      5  C         19.9770  -22.5650   -9.9300 C.2     1  UNL1        0.0110
      6  C         21.2050  -22.4920  -10.5930 C.2     1  UNL1        0.0170
      7  C         18.5780  -22.4850   -7.7860 C.3     1  UNL1        0.1810
      8  N         18.8180  -22.4930   -6.3580 N.pl3   1  UNL1       -0.2700
      9  C         17.7050  -22.5930   -5.5130 C.2     1  UNL1        0.0330
     10  H         19.4390  -21.7360   -6.0770 H       1  UNL1        0.1290
     11  C         17.8490  -22.2670   -4.1580 C.2     1  UNL1        0.0250
     12  C         16.4860  -23.1500   -5.9090 C.2     1  UNL1        0.0950
     13  C         16.7910  -22.4360   -3.2550 C.2     1  UNL1        0.0020
     14  C         15.5760  -22.9650   -3.6870 C.2     1  UNL1        0.0020
     15  C         15.4210  -23.3340   -5.0190 C.2     1  UNL1        0.0270
     16  S         16.2930  -23.6610   -7.5780 S.O2    1  UNL1        0.2440
     17  O         15.5900  -22.6080   -8.2750 O.2     1  UNL1       -0.2060
     18  O         15.8340  -25.0320   -7.5820 O.2     1  UNL1       -0.2060
     19  N         17.8660  -23.6870   -8.1320 N.3     1  UNL1       -0.1930
     20  H         18.3450  -24.5380   -7.8540 H       1  UNL1        0.1420
     21  C         23.6690  -22.1900  -10.6160 C.2     1  UNL1        0.2560
     22  N         23.8020  -23.1210  -11.6300 N.am    1  UNL1       -0.3230
     23  H         23.0810  -23.8270  -11.7030 H       1  UNL1        0.1690
     24  O         24.4980  -21.3610  -10.2610 O.2     1  UNL1       -0.2670
     25  C         24.8840  -23.2620  -12.5260 C.2     1  UNL1        0.0360
     26  C         26.0920  -23.8790  -12.1980 C.2     1  UNL1        0.0290
     27  C         27.1210  -23.9640  -13.1390 C.2     1  UNL1        0.0040
     28  C         26.9500  -23.4350  -14.4190 C.2     1  UNL1        0.0180
     29  C         25.7440  -22.8260  -14.7670 C.2     1  UNL1        0.0020
     30  C         24.7220  -22.7310  -13.8130 C.2     1  UNL1        0.0480
     31  S         25.4790  -22.1200  -16.3850 S.3     1  UNL1       -0.1340
     32  C         24.4080  -23.3880  -17.1160 C.3     1  UNL1        0.0950
@<TRIPOS>BOND
     1    32    31    1
     2    31    29    1
     3    29    28    2
     4    29    30    1
     5    28    27    1
     6    30    25    2
     7    27    26    2
     8    25    26    1
     9    25    22    1
    10    23    22    1
    11    22    21   am
    12    21    24    2
    13    21     1    1
    14     6     5    1
    15     6     1    2
    16     5     4    2
    17     1     2    1
    18     4     3    1
    19     4     7    1
    20     2     3    2
    21    17    16    2
    22    19    20    1
    23    19     7    1
    24    19    16    1
    25     7     8    1
    26    18    16    2
    27    16    12    1
    28     8    10    1
    29     8     9    1
    30    12     9    2
    31    12    15    1
    32     9    11    1
    33    15    14    2
    34    11    13    2
    35    14    13    1
