@<TRIPOS>MOLECULE
13375_out_ligand_01.pdbqt
 39 43 0 0 0
SMALL
GASTEIGER

@<TRIPOS>ATOM
      1  C         21.3820  -22.2090   -8.0600 C.ar    1  UNL1        0.1640
      2  N         22.5330  -21.6000   -7.8210 N.ar    1  UNL1       -0.1280
      3  N         23.3530  -21.7480   -8.9010 N.ar    1  UNL1       -0.1220
      4  C         22.6990  -22.4390   -9.8000 C.ar    1  UNL1        0.1920
      5  N         21.4580  -22.7740   -9.3220 N.ar    1  UNL1       -0.3030
      6  S         23.3180  -22.8840  -11.3520 S.3     1  UNL1       -0.0810
      7  C         25.1120  -22.8470  -11.0450 C.3     1  UNL1        0.1850
      8  C         25.8680  -22.2210  -12.2130 C.2     1  UNL1        0.2310
      9  O         26.9260  -22.7100  -12.6030 O.2     1  UNL1       -0.2720
     10  N         25.2450  -21.1050  -12.7490 N.am    1  UNL1       -0.3260
     11  H         24.4890  -20.7060  -12.1890 H       1  UNL1        0.1690
     12  C         25.6160  -20.3840  -13.8980 C.2     1  UNL1        0.0370
     13  C         26.3690  -19.2060  -13.8630 C.2     1  UNL1        0.0290
     14  C         26.7280  -18.5480  -15.0470 C.2     1  UNL1        0.0050
     15  C         26.3290  -19.0570  -16.2810 C.2     1  UNL1        0.0360
     16  C         25.5740  -20.2360  -16.3170 C.2     1  UNL1        0.1050
     17  C         25.2230  -20.9050  -15.1370 C.2     1  UNL1        0.0650
     18  N         25.1570  -20.7860  -17.6180 N.pl3   1  UNL1       -0.1160
     19  O         25.8900  -21.6310  -18.1520 O.2     1  UNL1       -0.5320
     20  O         24.0930  -20.3770  -18.1020 O.2     1  UNL1       -0.5320
     21  C         20.4240  -23.4850  -10.0590 C.3     1  UNL1        0.1710
     22  C         19.3060  -22.5880  -10.5470 C.2     1  UNL1       -0.0400
     23  C         19.5250  -21.4660  -11.3730 C.2     1  UNL1        0.0090
     24  C         18.4630  -20.6370  -11.7540 C.2     1  UNL1        0.0010
     25  C         17.1630  -20.9390  -11.3530 C.2     1  UNL1        0.0000
     26  C         16.9230  -22.0690  -10.5710 C.2     1  UNL1        0.0010
     27  C         17.9840  -22.8900  -10.1740 C.2     1  UNL1        0.0090
     28  C         20.2270  -22.1550   -7.1510 C.2     1  UNL1        0.0130
     29  C         20.2020  -21.1410   -6.1820 C.2     1  UNL1        0.0170
     30  C         19.1330  -20.9890   -5.2910 C.2     1  UNL1        0.0310
     31  C         18.0680  -21.8850   -5.4070 C.ar    1  UNL1        0.0430
     32  N         16.8980  -21.9720   -4.6900 N.ar    1  UNL1       -0.3590
     33  C         18.0500  -22.9180   -6.3400 C.ar    1  UNL1       -0.0010
     34  C         16.1220  -23.0110   -5.1510 C.ar    1  UNL1        0.0120
     35  H         16.6560  -21.3610   -3.9210 H       1  UNL1        0.1660
     36  C         14.7920  -23.2930   -4.5470 C.3     1  UNL1        0.0680
     37  C         16.8080  -23.6200   -6.1870 C.ar    1  UNL1       -0.0270
     38  C         16.3480  -24.7750   -7.0070 C.3     1  UNL1        0.0510
     39  C         19.1610  -23.0690   -7.2010 C.2     1  UNL1        0.0290
@<TRIPOS>BOND
     1    19    18    2
     2    20    18    2
     3    18    16    1
     4    16    15    2
     5    16    17    1
     6    15    14    1
     7    17    12    2
     8    14    13    2
     9    12    13    1
    10    12    10    1
    11    10     8   am
    12    10    11    1
    13     9     8    2
    14     8     7    1
    15    24    23    1
    16    24    25    2
    17    23    22    2
    18    25    26    1
    19     6     7    1
    20     6     4    1
    21    26    27    2
    22    22    27    1
    23    22    21    1
    24    21     5    1
    25     4     5   ar
    26     4     3   ar
    27     5     1   ar
    28     3     2   ar
    29     1     2   ar
    30     1    28    1
    31    39    28    2
    32    39    33    1
    33    28    29    1
    34    38    37    1
    35    33    37   ar
    36    33    31   ar
    37    37    34   ar
    38    29    30    2
    39    31    30    1
    40    31    32   ar
    41    34    32   ar
    42    34    36    1
    43    32    35    1
