@<TRIPOS>MOLECULE
13370_out_ligand_01.pdbqt
 36 39 0 0 0
SMALL
GASTEIGER

@<TRIPOS>ATOM
      1  N         18.8760  -23.8560   -8.1280 N.3     1  UNL1        0.1080
      2  C         18.1100  -23.9640   -9.3800 C.3     1  UNL1        0.3130
      3  C         18.2480  -22.7470  -10.2860 C.2     1  UNL1       -0.0240
      4  C         17.1790  -21.8580  -10.5270 C.2     1  UNL1       -0.0540
      5  C         17.3870  -20.7470  -11.3610 C.2     1  UNL1        0.0080
      6  C         15.8140  -22.0660   -9.9290 C.3     1  UNL1        0.0490
      7  C         18.6350  -20.4980  -11.9350 C.2     1  UNL1        0.0070
      8  C         19.7110  -21.3490  -11.6740 C.2     1  UNL1       -0.0610
      9  C         21.0470  -21.1120  -12.3130 C.3     1  UNL1        0.0480
     10  C         19.5080  -22.4640  -10.8540 C.2     1  UNL1        0.0160
     11  C         20.1760  -24.5520   -8.2200 C.3     1  UNL1        0.3590
     12  C         21.3300  -23.6330   -8.4940 C.2     1  UNL1        0.1740
     13  N         22.3270  -23.7720   -9.3470 N.2     1  UNL1       -0.2190
     14  C         23.0740  -22.6130   -9.2040 C.2     1  UNL1        0.1490
     15  C         22.4720  -21.8240   -8.2460 C.2     1  UNL1        0.1810
     16  O         21.3620  -22.4630   -7.7830 O.2     1  UNL1       -0.3030
     17  C         24.2820  -22.3300   -9.9810 C.2     1  UNL1        0.2720
     18  O         24.5720  -21.2020  -10.3730 O.2     1  UNL1       -0.2660
     19  N         25.0790  -23.4240  -10.2540 N.am    1  UNL1       -0.3550
     20  H         24.6850  -24.3560  -10.1560 H       1  UNL1        0.1620
     21  C         26.1890  -23.3360  -11.1810 C.3     1  UNL1        0.1290
     22  C         25.7800  -23.7200  -12.6040 C.3     1  UNL1        0.0790
     23  C         25.5750  -22.5160  -13.4980 C.2     1  UNL1        0.0350
     24  C         24.2910  -22.0540  -13.7750 C.2     1  UNL1        0.0270
     25  C         24.1400  -20.9300  -14.5810 C.2     1  UNL1        0.0030
     26  C         25.2670  -20.2930  -15.0830 C.2     1  UNL1        0.0190
     27  C         26.5080  -20.8090  -14.7550 C.2     1  UNL1        0.1170
     28  N         26.6910  -21.8990  -13.9760 N.2     1  UNL1       -0.2660
     29  C         18.0950  -24.2030   -6.9200 C.3     1  UNL1        0.2530
     30  C         16.6480  -24.6390   -7.2110 C.3     1  UNL1        0.0480
     31  C         18.2380  -23.0990   -5.8660 C.2     1  UNL1       -0.0250
     32  C         17.7630  -23.3540   -4.5650 C.2     1  UNL1        0.0090
     33  C         17.8670  -22.3950   -3.5570 C.2     1  UNL1        0.0010
     34  C         18.4470  -21.1610   -3.8310 C.2     1  UNL1        0.0000
     35  C         18.9230  -20.8870   -5.1110 C.2     1  UNL1        0.0010
     36  C         18.8200  -21.8490   -6.1220 C.2     1  UNL1        0.0090
@<TRIPOS>BOND
     1    26    27    2
     2    26    25    1
     3    27    28    1
     4    25    24    2
     5    28    23    2
     6    24    23    1
     7    23    22    1
     8    22    21    1
     9     9     8    1
    10     7     8    2
    11     7     5    1
    12     8    10    1
    13     5     4    2
    14    21    19    1
    15    10     3    2
    16     4     3    1
    17     4     6    1
    18    18    17    2
    19     3     2    1
    20    19    20    1
    21    19    17   am
    22    17    14    1
    23     2     1    1
    24    13    14    1
    25    13    12    2
    26    14    15    2
    27    12    11    1
    28    12    16    1
    29    15    16    1
    30    11     1    1
    31     1    29    1
    32    30    29    1
    33    29    31    1
    34    36    31    2
    35    36    35    1
    36    31    32    1
    37    35    34    2
    38    32    33    2
    39    34    33    1
