@<TRIPOS>MOLECULE
13385_out_ligand_01.pdbqt
 34 38 0 0 0
SMALL
GASTEIGER

@<TRIPOS>ATOM
      1  C         18.8580  -22.9980  -10.4400 C.3     1  UNL1        0.1570
      2  C         18.0880  -22.2520  -11.5430 C.3     1  UNL1        0.0350
      3  C         17.2820  -21.1980  -10.7990 C.3     1  UNL1        0.0230
      4  C         16.9070  -21.9190   -9.5130 C.3     1  UNL1        0.1360
      5  N         18.1300  -22.6700   -9.1920 N.3     1  UNL1       -0.2950
      6  C         20.3080  -22.5960  -10.3940 C.ar    1  UNL1        0.1230
      7  N         21.0220  -22.5850   -9.2820 N.ar    1  UNL1       -0.1440
      8  N         22.3230  -22.1820   -9.4930 N.ar    1  UNL1       -0.1360
      9  C         22.5510  -21.9120  -10.7640 C.ar    1  UNL1        0.1890
     10  S         21.2100  -22.1530  -11.7960 S.2     1  UNL1       -0.0440
     11  C         23.8460  -21.4600  -11.2560 C.2     1  UNL1        0.2830
     12  O         24.7360  -21.0310  -10.5260 O.2     1  UNL1       -0.2650
     13  N         23.9440  -21.5640  -12.6390 N.am    1  UNL1       -0.3210
     14  H         23.1130  -21.9380  -13.0930 H       1  UNL1        0.1690
     15  C         25.0280  -21.2270  -13.4720 C.2     1  UNL1        0.0370
     16  C         26.0780  -22.0950  -13.7830 C.2     1  UNL1        0.0290
     17  C         27.1210  -21.6830  -14.6220 C.2     1  UNL1        0.0050
     18  C         27.1210  -20.3970  -15.1550 C.2     1  UNL1        0.0420
     19  C         26.0780  -19.5360  -14.8450 C.2     1  UNL1        0.1180
     20  F         26.0710  -18.2980  -15.3560 F       1  UNL1       -0.2060
     21  C         25.0360  -19.9360  -14.0130 C.2     1  UNL1        0.0710
     22  S         18.1510  -23.7520   -7.9080 S.O2    1  UNL1        0.2630
     23  O         16.8300  -24.3520   -7.8680 O.2     1  UNL1       -0.2000
     24  O         19.3110  -24.6060   -8.0360 O.2     1  UNL1       -0.2000
     25  C         18.2920  -22.7480   -6.4470 C.2     1  UNL1        0.1090
     26  C         19.2540  -21.7190   -6.4590 C.2     1  UNL1        0.0280
     27  C         19.3790  -20.8680   -5.3710 C.2     1  UNL1        0.0030
     28  C         18.5360  -21.0330   -4.2800 C.2     1  UNL1        0.0140
     29  C         17.5670  -22.0500   -4.2720 C.2     1  UNL1       -0.0060
     30  C         16.7180  -22.1960   -3.1660 C.2     1  UNL1        0.0150
     31  C         17.4250  -22.9380   -5.3660 C.2     1  UNL1        0.0900
     32  C         15.7560  -23.1940   -3.1530 C.2     1  UNL1        0.0200
     33  C         15.6830  -24.0240   -4.2480 C.2     1  UNL1        0.1170
     34  N         16.4970  -23.9200   -5.3210 N.2     1  UNL1       -0.2590
@<TRIPOS>BOND
     1    20    19    1
     2    18    19    2
     3    18    17    1
     4    19    21    1
     5    17    16    2
     6    21    15    2
     7    16    15    1
     8    15    13    1
     9    14    13    1
    10    13    11   am
    11    10     9   ar
    12    10     6   ar
    13     2     3    1
    14     2     1    1
    15    11     9    1
    16    11    12    2
    17     3     4    1
    18     9     8   ar
    19     1     6    1
    20     1     5    1
    21     6     7   ar
    22     4     5    1
    23     8     7   ar
    24     5    22    1
    25    24    22    2
    26    22    23    2
    27    22    25    1
    28    26    25    2
    29    26    27    1
    30    25    31    1
    31    27    28    2
    32    31    34    1
    33    31    29    2
    34    34    33    2
    35    28    29    1
    36    29    30    1
    37    33    32    1
    38    30    32    2
