@<TRIPOS>MOLECULE
13390_out_ligand_01.pdbqt
 32 35 0 0 0
SMALL
GASTEIGER

@<TRIPOS>ATOM
      1  C         22.9330  -23.0340   -9.3770 C.2     1  UNL1        0.0340
      2  C         21.9410  -23.9950   -9.5980 C.2     1  UNL1        0.0300
      3  C         20.7320  -23.9540   -8.8890 C.2     1  UNL1        0.0160
      4  C         20.4930  -22.9500   -7.9450 C.2     1  UNL1       -0.0090
      5  C         21.4920  -21.9950   -7.7240 C.2     1  UNL1        0.0160
      6  C         22.6990  -22.0340   -8.4350 C.2     1  UNL1        0.0300
      7  N         24.1190  -23.1510  -10.1290 N.am    1  UNL1       -0.3270
      8  C         24.9150  -22.1310  -10.6240 C.2     1  UNL1        0.2260
      9  O         24.7230  -20.9270  -10.4800 O.2     1  UNL1       -0.2730
     10  H         24.3900  -24.0960  -10.3760 H       1  UNL1        0.1690
     11  C         26.1630  -22.6240  -11.3500 C.3     1  UNL1        0.1410
     12  C         25.9580  -22.9280  -12.8170 C.2     1  UNL1       -0.0470
     13  C         25.6730  -21.8970  -13.7180 C.2     1  UNL1        0.0100
     14  C         25.4570  -22.1770  -15.0690 C.2     1  UNL1        0.0400
     15  C         25.5310  -23.4900  -15.5430 C.2     1  UNL1        0.1010
     16  C         25.8340  -24.5340  -14.6460 C.2     1  UNL1        0.1020
     17  C         26.0450  -24.2460  -13.2920 C.2     1  UNL1        0.0470
     18  O         25.3260  -23.8580  -16.8490 O.2     1  UNL1       -0.3530
     19  C         24.0630  -23.5580  -17.4270 C.3     1  UNL1        0.2100
     20  O         25.8850  -25.7960  -15.1850 O.2     1  UNL1       -0.3530
     21  C         27.1210  -26.4930  -15.1210 C.3     1  UNL1        0.2100
     22  C         19.2380  -22.8970   -7.1940 C.2     1  UNL1        0.0430
     23  C         18.8390  -22.0600   -6.1650 C.2     1  UNL1        0.0440
     24  C         17.5170  -22.4130   -5.7800 C.2     1  UNL1       -0.0040
     25  C         16.6180  -21.9310   -4.8090 C.2     1  UNL1        0.0560
     26  C         17.1200  -23.4670   -6.6000 C.2     1  UNL1        0.0430
     27  C         15.3640  -22.5310   -4.7060 C.2     1  UNL1        0.1170
     28  F         14.5010  -22.0830   -3.7830 F       1  UNL1       -0.2060
     29  C         14.9840  -23.5820   -5.5340 C.2     1  UNL1        0.0440
     30  C         15.8610  -24.0740   -6.5040 C.2     1  UNL1        0.0330
     31  N         18.1730  -23.7330   -7.4460 N.pl3   1  UNL1       -0.3550
     32  H         18.1540  -24.4360   -8.1720 H       1  UNL1        0.1660
@<TRIPOS>BOND
     1    19    18    1
     2    18    15    1
     3    15    14    2
     4    15    16    1
     5    20    21    1
     6    20    16    1
     7    14    13    1
     8    16    17    2
     9    13    12    2
    10    17    12    1
    11    12    11    1
    12    11     8    1
    13     8     9    2
    14     8     7   am
    15    10     7    1
    16     7     1    1
    17     2     1    2
    18     2     3    1
    19     1     6    1
    20     3     4    2
    21     6     5    2
    22    32    31    1
    23     4     5    1
    24     4    22    1
    25    31    22    1
    26    31    26    1
    27    22    23    2
    28    26    30    1
    29    26    24    2
    30    30    29    2
    31    23    24    1
    32    24    25    1
    33    29    27    1
    34    25    27    2
    35    27    28    1
