@<TRIPOS>MOLECULE
13397_out_ligand_01.pdbqt
 31 34 0 0 0
SMALL
GASTEIGER

@<TRIPOS>ATOM
      1  C         21.1830  -23.2400   -8.4260 C.2     1  UNL1        0.0320
      2  C         20.4540  -24.4290   -8.4390 C.2     1  UNL1        0.0190
      3  C         19.2680  -24.5330   -7.7040 C.2     1  UNL1        0.0320
      4  C         18.8020  -23.4550   -6.9240 C.2     1  UNL1        0.0570
      5  C         19.5420  -22.2670   -6.9180 C.2     1  UNL1        0.0320
      6  C         20.7290  -22.1620   -7.6590 C.2     1  UNL1        0.0190
      7  N         17.5890  -23.6200   -6.1890 N.ar    1  UNL1       -0.2170
      8  N         17.6130  -24.2700   -4.9900 N.ar    1  UNL1        0.0030
      9  N         16.3610  -24.3520   -4.5740 N.ar    1  UNL1        0.0190
     10  N         15.5160  -23.7290   -5.4420 N.ar    1  UNL1       -0.1350
     11  C         16.2630  -23.2660   -6.4200 C.ar    1  UNL1        0.2030
     12  S         15.6550  -22.2440   -7.6800 S.3     1  UNL1       -0.0850
     13  C         16.0790  -23.2110   -9.1600 C.3     1  UNL1        0.1210
     14  C         17.0220  -22.4680  -10.0790 C.2     1  UNL1       -0.0480
     15  C         16.6990  -21.1850  -10.5510 C.2     1  UNL1        0.0110
     16  C         17.5740  -20.4990  -11.3940 C.2     1  UNL1        0.0430
     17  C         18.7710  -21.0960  -11.7740 C.2     1  UNL1        0.1160
     18  F         19.6090  -20.4400  -12.5870 F       1  UNL1       -0.2060
     19  C         19.1080  -22.3670  -11.3260 C.2     1  UNL1        0.0430
     20  C         18.2330  -23.0560  -10.4830 C.2     1  UNL1        0.0110
     21  C         22.4430  -23.1660   -9.2150 C.2     1  UNL1        0.2560
     22  O         23.3330  -23.9690   -8.9620 O.2     1  UNL1       -0.2670
     23  N         22.4530  -22.1960  -10.2010 N.am    1  UNL1       -0.3230
     24  H         21.5780  -21.7230  -10.3860 H       1  UNL1        0.1690
     25  C         23.5220  -21.8630  -11.0600 C.2     1  UNL1        0.0350
     26  C         23.2950  -21.9870  -12.4400 C.2     1  UNL1        0.0320
     27  C         24.3010  -21.6670  -13.3550 C.2     1  UNL1        0.0440
     28  C         25.5340  -21.2230  -12.8930 C.2     1  UNL1        0.1160
     29  F         26.4980  -20.9160  -13.7710 F       1  UNL1       -0.2060
     30  C         25.7760  -21.0900  -11.5330 C.2     1  UNL1        0.0440
     31  C         24.7690  -21.4110  -10.6160 C.2     1  UNL1        0.0320
@<TRIPOS>BOND
     1    29    28    1
     2    27    28    2
     3    27    26    1
     4    28    30    1
     5    18    17    1
     6    26    25    2
     7    17    16    2
     8    17    19    1
     9    30    31    2
    10    16    15    1
    11    19    20    2
    12    25    31    1
    13    25    23    1
    14    15    14    2
    15    20    14    1
    16    24    23    1
    17    23    21   am
    18    14    13    1
    19    21    22    2
    20    21     1    1
    21    13    12    1
    22     2     1    2
    23     2     3    1
    24     1     6    1
    25     3     4    2
    26    12    11    1
    27     6     5    2
    28     4     5    1
    29     4     7    1
    30    11     7   ar
    31    11    10   ar
    32     7     8   ar
    33    10     9   ar
    34     8     9   ar
