@<TRIPOS>MOLECULE
13398_out_ligand_01.pdbqt
 31 35 0 0 0
SMALL
GASTEIGER

@<TRIPOS>ATOM
      1  C         23.0060  -21.7290  -12.8120 C.2     1  UNL1        0.0350
      2  C         23.8530  -22.1220  -11.7660 C.2     1  UNL1        0.0310
      3  C         23.3330  -22.4530  -10.5110 C.2     1  UNL1        0.0270
      4  C         21.9540  -22.4030  -10.3020 C.2     1  UNL1        0.0790
      5  C         21.1010  -21.9950  -11.3280 C.2     1  UNL1        0.0270
      6  C         21.6280  -21.6700  -12.5820 C.2     1  UNL1        0.0310
      7  S         21.3050  -22.8090   -8.7040 S.O2    1  UNL1        0.2590
      8  O         21.3330  -24.2530   -8.5950 O.2     1  UNL1       -0.2010
      9  O         21.9420  -21.9740   -7.7120 O.2     1  UNL1       -0.2010
     10  N         19.6910  -22.4040   -8.8130 N.3     1  UNL1       -0.3050
     11  H         19.4980  -21.7080   -9.5320 H       1  UNL1        0.1730
     12  C         18.5860  -22.8360   -7.9440 C.3     1  UNL1        0.0410
     13  C         18.5670  -24.3450   -7.6360 C.3     1  UNL1        0.0360
     14  C         17.3490  -24.7040   -6.7640 C.3     1  UNL1       -0.0120
     15  C         16.0600  -24.3390   -7.5180 C.3     1  UNL1        0.0090
     16  C         17.4140  -23.9050   -5.4510 C.3     1  UNL1        0.0090
     17  C         16.0430  -22.8340   -7.8260 C.3     1  UNL1       -0.0120
     18  C         16.1100  -22.0420   -6.5100 C.3     1  UNL1        0.0090
     19  C         17.2680  -22.4830   -8.6860 C.3     1  UNL1        0.0360
     20  C         17.3980  -22.3960   -5.7500 C.3     1  UNL1       -0.0120
     21  C         18.6170  -22.0400   -6.6210 C.3     1  UNL1        0.0360
     22  N         23.6140  -21.4230  -14.0470 N.am    1  UNL1       -0.3230
     23  C         24.5080  -22.1960  -14.7640 C.2     1  UNL1        0.2580
     24  O         24.8640  -23.3320  -14.4760 O.2     1  UNL1       -0.2670
     25  H         23.3010  -20.5730  -14.4920 H       1  UNL1        0.1690
     26  C         24.9920  -21.5660  -15.9910 C.2     1  UNL1        0.0630
     27  C         25.6200  -20.2860  -16.0840 C.2     1  UNL1        0.0440
     28  C         25.9110  -20.0800  -17.4080 C.2     1  UNL1        0.1430
     29  O         25.4850  -21.1290  -18.1510 O.2     1  UNL1       -0.3260
     30  C         24.9040  -22.0220  -17.2990 C.2     1  UNL1        0.0640
     31  C         24.3080  -23.2090  -17.9530 C.3     1  UNL1        0.0770
@<TRIPOS>BOND
     1    29    28    1
     2    29    30    1
     3    31    30    1
     4    28    27    2
     5    30    26    2
     6    27    26    1
     7    26    23    1
     8    23    24    2
     9    23    22   am
    10    25    22    1
    11    22     1    1
    12     1     6    2
    13     1     2    1
    14     6     5    1
    15     2     3    2
    16     5     4    2
    17     3     4    1
    18     4     7    1
    19    11    10    1
    20    10     7    1
    21    10    12    1
    22     7     8    2
    23     7     9    2
    24    19    12    1
    25    19    17    1
    26    12    13    1
    27    12    21    1
    28    17    15    1
    29    17    18    1
    30    13    14    1
    31    15    14    1
    32    14    16    1
    33    21    20    1
    34    18    20    1
    35    20    16    1
