@<TRIPOS>MOLECULE
133_out_ligand_01.pdbqt
 39 42 0 0 0
SMALL
GASTEIGER

@<TRIPOS>ATOM
      1  C         19.5540  -22.2920  -10.6340 C.2     1  UNL1        0.0330
      2  C         19.1110  -21.1750  -11.3570 C.2     1  UNL1        0.0170
      3  C         17.7530  -20.8480  -11.3760 C.2     1  UNL1        0.0030
      4  C         16.8360  -21.6200  -10.6630 C.2     1  UNL1        0.0250
      5  C         17.2880  -22.7170   -9.9230 C.2     1  UNL1        0.0800
      6  C         18.6400  -23.0660   -9.9120 C.2     1  UNL1        0.0420
      7  C         20.9940  -22.6620  -10.5670 C.2     1  UNL1        0.2560
      8  O         21.3010  -23.6300   -9.8810 O.2     1  UNL1       -0.2670
      9  N         21.8340  -21.8740  -11.3290 N.am    1  UNL1       -0.3230
     10  H         21.3990  -21.1830  -11.9280 H       1  UNL1        0.1690
     11  C         23.2360  -21.9780  -11.4380 C.2     1  UNL1        0.0360
     12  C         24.1340  -21.4450  -10.5090 C.2     1  UNL1        0.0290
     13  C         25.5170  -21.5840  -10.6870 C.2     1  UNL1        0.0040
     14  C         26.0180  -22.2600  -11.7950 C.2     1  UNL1        0.0250
     15  C         25.1240  -22.7960  -12.7190 C.2     1  UNL1        0.0760
     16  C         23.7410  -22.6520  -12.5540 C.2     1  UNL1        0.0540
     17  S         25.7200  -23.6710  -14.1410 S.O2    1  UNL1        0.2430
     18  O         27.1190  -23.3310  -14.2990 O.2     1  UNL1       -0.2060
     19  O         25.2860  -25.0490  -14.0550 O.2     1  UNL1       -0.2060
     20  N         24.8570  -22.9360  -15.4040 N.3     1  UNL1       -0.2060
     21  C         24.6390  -23.7380  -16.6340 C.3     1  UNL1        0.1070
     22  C         24.4520  -22.6930  -17.7220 C.3     1  UNL1        0.0170
     23  C         25.4660  -21.6390  -17.3280 C.3     1  UNL1        0.0170
     24  C         25.3500  -21.5900  -15.8090 C.3     1  UNL1        0.1070
     25  S         16.1410  -23.6930   -8.9800 S.O2    1  UNL1        0.2630
     26  O         15.1780  -24.2640   -9.8970 O.2     1  UNL1       -0.2000
     27  O         16.9220  -24.5290   -8.0920 O.2     1  UNL1       -0.2000
     28  N         15.3740  -22.5430   -8.0080 N.pl3   1  UNL1       -0.2810
     29  H         14.3810  -22.4690   -8.2220 H       1  UNL1        0.1790
     30  C         15.7720  -22.4090   -6.6490 C.2     1  UNL1        0.0430
     31  C         14.9450  -22.9200   -5.6490 C.2     1  UNL1        0.0300
     32  C         15.3380  -22.8410   -4.3130 C.2     1  UNL1        0.0030
     33  C         16.5560  -22.2470   -3.9770 C.2     1  UNL1        0.0160
     34  C         17.3910  -21.7190   -4.9740 C.2     1  UNL1        0.0500
     35  C         16.9880  -21.8130   -6.3160 C.2     1  UNL1        0.0460
     36  C         18.7190  -21.0960   -4.6210 C.3     1  UNL1        0.4170
     37  F         19.7170  -21.4370   -5.4820 F       1  UNL1       -0.1660
     38  F         18.6850  -19.7330   -4.6140 F       1  UNL1       -0.1660
     39  F         19.1460  -21.4650   -3.3820 F       1  UNL1       -0.1660
@<TRIPOS>BOND
     1    22    23    1
     2    22    21    1
     3    23    24    1
     4    21    20    1
     5    24    20    1
     6    20    17    1
     7    18    17    2
     8    17    19    2
     9    17    15    1
    10    15    16    1
    11    15    14    2
    12    16    11    2
    13    10     9    1
    14    14    13    1
    15    11     9    1
    16    11    12    1
    17     3     2    1
    18     3     4    2
    19     2     1    2
    20     9     7   am
    21    13    12    2
    22     4     5    1
    23     1     7    1
    24     1     6    1
    25     7     8    2
    26     5     6    2
    27     5    25    1
    28    26    25    2
    29    25    27    2
    30    25    28    1
    31    29    28    1
    32    28    30    1
    33    30    35    2
    34    30    31    1
    35    35    34    1
    36    31    32    2
    37    37    36    1
    38    34    36    1
    39    34    33    2
    40    36    38    1
    41    36    39    1
    42    32    33    1
