@<TRIPOS>MOLECULE
13406_out_ligand_01.pdbqt
 32 36 0 0 0
SMALL
GASTEIGER

@<TRIPOS>ATOM
      1  C         23.6310  -22.0020  -12.9490 C.2     1  UNL1        0.0320
      2  C         22.4590  -21.3230  -13.2980 C.2     1  UNL1        0.0180
      3  C         21.3170  -21.4400  -12.4980 C.2     1  UNL1        0.0150
      4  C         21.3230  -22.2310  -11.3390 C.2     1  UNL1       -0.0080
      5  C         22.5090  -22.8900  -10.9870 C.2     1  UNL1        0.0150
      6  C         23.6540  -22.7740  -11.7830 C.2     1  UNL1        0.0180
      7  C         20.1190  -22.3430  -10.5180 C.2     1  UNL1        0.0620
      8  C         19.9160  -22.8540   -9.2510 C.2     1  UNL1        0.0660
      9  C         18.5330  -22.6880   -8.9730 C.2     1  UNL1        0.0900
     10  N         17.9130  -22.0890   -9.9980 N.2     1  UNL1       -0.1740
     11  N         18.8830  -21.8920  -10.9020 N.pl3   1  UNL1       -0.2770
     12  H         18.6360  -21.4230  -11.7670 H       1  UNL1        0.1890
     13  C         17.8310  -23.0620   -7.7470 C.2     1  UNL1        0.0050
     14  C         16.8630  -24.0760   -7.8410 C.2     1  UNL1        0.0150
     15  C         16.1440  -24.4750   -6.7190 C.2     1  UNL1        0.0020
     16  C         16.3840  -23.8600   -5.4930 C.2     1  UNL1        0.0120
     17  C         17.3420  -22.8430   -5.3660 C.2     1  UNL1       -0.0250
     18  C         17.5610  -22.2340   -4.1190 C.2     1  UNL1        0.0120
     19  C         18.0870  -22.4250   -6.5000 C.2     1  UNL1       -0.0130
     20  C         18.5030  -21.2180   -3.9680 C.2     1  UNL1        0.0010
     21  C         19.2400  -20.7950   -5.0650 C.2     1  UNL1        0.0010
     22  C         19.0340  -21.3900   -6.3130 C.2     1  UNL1        0.0130
     23  C         24.8760  -21.9090  -13.7630 C.2     1  UNL1        0.2510
     24  O         25.8020  -22.6840  -13.5540 O.2     1  UNL1       -0.2680
     25  N         24.8910  -20.9490  -14.7510 N.am    1  UNL1       -0.3520
     26  H         24.0200  -20.5230  -15.0310 H       1  UNL1        0.1630
     27  C         25.9790  -20.8690  -15.7010 C.3     1  UNL1        0.1690
     28  C         26.2110  -19.4280  -16.0310 C.2     1  UNL1        0.0000
     29  C         26.4400  -18.3820  -15.1580 C.2     1  UNL1        0.0170
     30  C         26.6210  -17.1410  -15.8340 C.2     1  UNL1        0.0080
     31  C         26.5260  -17.2810  -17.1990 C.2     1  UNL1        0.0500
     32  S         26.2240  -18.8990  -17.6600 S.3     1  UNL1       -0.1050
@<TRIPOS>BOND
     1    32    31    1
     2    32    28    1
     3    31    30    2
     4    28    27    1
     5    28    29    2
     6    30    29    1
     7    27    25    1
     8    26    25    1
     9    25    23   am
    10    23    24    2
    11    23     1    1
    12     2     1    2
    13     2     3    1
    14     1     6    1
    15     3     4    2
    16     6     5    2
    17    12    11    1
    18     4     5    1
    19     4     7    1
    20    11     7    1
    21    11    10    1
    22     7     8    2
    23    10     9    2
    24     8     9    1
    25     9    13    1
    26    14    13    2
    27    14    15    1
    28    13    19    1
    29    15    16    2
    30    19    22    1
    31    19    17    2
    32    22    21    2
    33    16    17    1
    34    17    18    1
    35    21    20    1
    36    18    20    2
