@<TRIPOS>MOLECULE
13422_out_ligand_01.pdbqt
 40 44 0 0 0
SMALL
GASTEIGER

@<TRIPOS>ATOM
      1  N         22.1330  -21.8550   -9.8270 N.3     1  UNL1        0.1080
      2  C         22.0430  -22.6980   -8.6060 C.3     1  UNL1        0.2530
      3  C         21.8300  -24.2000   -8.8770 C.3     1  UNL1        0.0480
      4  C         21.1100  -22.0900   -7.5580 C.2     1  UNL1       -0.0250
      5  C         19.8190  -22.5760   -7.2950 C.2     1  UNL1        0.0090
      6  C         19.0090  -21.9740   -6.3270 C.2     1  UNL1        0.0010
      7  C         19.4760  -20.8800   -5.6020 C.2     1  UNL1        0.0000
      8  C         20.7540  -20.3870   -5.8400 C.2     1  UNL1        0.0010
      9  C         21.5650  -20.9890   -6.8060 C.2     1  UNL1        0.0090
     10  C         21.3910  -22.3530  -11.0020 C.3     1  UNL1        0.3120
     11  C         19.9180  -22.0040  -11.0100 C.2     1  UNL1       -0.0280
     12  C         19.4690  -20.7810  -11.5320 C.2     1  UNL1        0.0090
     13  C         18.1050  -20.4750  -11.5510 C.2     1  UNL1        0.0030
     14  C         17.1770  -21.3810  -11.0340 C.2     1  UNL1        0.0370
     15  C         17.6180  -22.5840  -10.4780 C.2     1  UNL1        0.0760
     16  C         18.9790  -22.8960  -10.4700 C.2     1  UNL1        0.0460
     17  O         16.7530  -23.5400   -9.9970 O.2     1  UNL1       -0.3110
     18  C         16.3560  -23.4250   -8.6850 C.2     1  UNL1        0.0760
     19  C         16.6230  -24.5070   -7.8450 C.2     1  UNL1        0.0370
     20  C         16.2870  -24.4350   -6.4920 C.2     1  UNL1        0.0030
     21  C         15.6990  -23.2780   -5.9790 C.2     1  UNL1        0.0000
     22  C         15.4520  -22.1890   -6.8170 C.2     1  UNL1        0.0030
     23  C         15.7870  -22.2580   -8.1710 C.2     1  UNL1        0.0370
     24  C         23.5450  -21.5750  -10.1750 C.3     1  UNL1        0.3590
     25  C         23.9390  -22.0590  -11.5410 C.2     1  UNL1        0.1740
     26  N         23.9680  -21.3890  -12.6790 N.2     1  UNL1       -0.2190
     27  C         24.4350  -22.3250  -13.5950 C.2     1  UNL1        0.1490
     28  C         24.6620  -23.5190  -12.9540 C.2     1  UNL1        0.1810
     29  O         24.3390  -23.3670  -11.6420 O.2     1  UNL1       -0.3030
     30  C         24.6310  -22.0570  -15.0130 C.2     1  UNL1        0.2720
     31  O         23.7550  -22.2300  -15.8530 O.2     1  UNL1       -0.2660
     32  N         25.8900  -21.5770  -15.2920 N.am    1  UNL1       -0.3510
     33  H         26.4780  -21.3720  -14.4930 H       1  UNL1        0.1630
     34  C         26.2540  -21.0750  -16.5920 C.3     1  UNL1        0.1610
     35  C         26.3080  -19.5680  -16.5930 C.2     1  UNL1       -0.0410
     36  C         26.6140  -18.8700  -15.4150 C.2     1  UNL1        0.0090
     37  C         26.6880  -17.4760  -15.4180 C.2     1  UNL1        0.0010
     38  C         26.4660  -16.7680  -16.5980 C.2     1  UNL1        0.0000
     39  C         26.1730  -17.4520  -17.7770 C.2     1  UNL1        0.0010
     40  C         26.0980  -18.8460  -17.7770 C.2     1  UNL1        0.0090
@<TRIPOS>BOND
     1    40    39    1
     2    40    35    2
     3    39    38    2
     4    38    37    1
     5    35    34    1
     6    35    36    1
     7    34    32    1
     8    31    30    2
     9    37    36    2
    10    32    30   am
    11    32    33    1
    12    30    27    1
    13    27    28    2
    14    27    26    1
    15    28    29    1
    16    26    25    2
    17    29    25    1
    18    13    12    1
    19    13    14    2
    20    25    24    1
    21    12    11    2
    22    14    15    1
    23    11    10    1
    24    11    16    1
    25    10     1    1
    26    15    16    2
    27    15    17    1
    28    24     1    1
    29    17    18    1
    30     1     2    1
    31     3     2    1
    32    18    23    2
    33    18    19    1
    34     2     4    1
    35    23    22    1
    36    19    20    2
    37     4     5    2
    38     4     9    1
    39     5     6    1
    40    22    21    2
    41     9     8    2
    42    20    21    1
    43     6     7    2
    44     8     7    1
