@<TRIPOS>MOLECULE
13449_out_ligand_01.pdbqt
 32 35 0 0 0
SMALL
GASTEIGER

@<TRIPOS>ATOM
      1  N         27.0640  -23.9000  -10.3420 N.1     1  UNL1       -0.1910
      2  C         26.5480  -23.4100  -11.2590 C.1     1  UNL1        0.1020
      3  C         25.8590  -22.7880  -12.3500 C.2     1  UNL1        0.0740
      4  C         26.6240  -22.1840  -13.3610 C.2     1  UNL1        0.0640
      5  C         25.9500  -21.5610  -14.3880 C.2     1  UNL1        0.1060
      6  C         24.5790  -21.5140  -14.4280 C.2     1  UNL1        0.1070
      7  C         23.7980  -22.0960  -13.4500 C.2     1  UNL1        0.0710
      8  C         24.4390  -22.7710  -12.4030 C.2     1  UNL1        0.0660
      9  O         24.1170  -20.8370  -15.5130 O.2     1  UNL1       -0.3230
     10  C         25.3550  -20.4590  -16.1500 C.3     1  UNL1        0.3520
     11  O         26.5240  -20.9240  -15.4410 O.2     1  UNL1       -0.3230
     12  N         23.6720  -23.3950  -11.3630 N.pl3   1  UNL1       -0.2790
     13  H         22.9600  -24.0880  -11.6080 H       1  UNL1        0.1790
     14  S         23.2630  -22.5710   -9.9480 S.O2    1  UNL1        0.2630
     15  O         23.8460  -21.2480   -9.9880 O.2     1  UNL1       -0.2000
     16  O         23.5330  -23.4760   -8.8540 O.2     1  UNL1       -0.2000
     17  C         21.4980  -22.4030  -10.0670 C.2     1  UNL1        0.0800
     18  C         20.9250  -21.8660  -11.2240 C.2     1  UNL1        0.0250
     19  C         19.5380  -21.7480  -11.3170 C.2     1  UNL1        0.0030
     20  C         18.7300  -22.1550  -10.2530 C.2     1  UNL1        0.0170
     21  C         19.3120  -22.6720   -9.0860 C.2     1  UNL1        0.0330
     22  C         20.7020  -22.8030   -8.9920 C.2     1  UNL1        0.0420
     23  C         18.4770  -23.1400   -7.9490 C.2     1  UNL1        0.2560
     24  O         18.4400  -24.3440   -7.7330 O.2     1  UNL1       -0.2670
     25  N         17.8460  -22.1340   -7.2420 N.am    1  UNL1       -0.3230
     26  H         18.0800  -21.1810   -7.4870 H       1  UNL1        0.1690
     27  C         16.9680  -22.2820   -6.1490 C.2     1  UNL1        0.0350
     28  C         15.6100  -22.4720   -6.4390 C.2     1  UNL1        0.0290
     29  C         14.6760  -22.6330   -5.4130 C.2     1  UNL1        0.0020
     30  C         15.0910  -22.6070   -4.0840 C.2     1  UNL1        0.0000
     31  C         16.4380  -22.4200   -3.7860 C.2     1  UNL1        0.0020
     32  C         17.3740  -22.2600   -4.8140 C.2     1  UNL1        0.0290
@<TRIPOS>BOND
     1    10     9    1
     2    10    11    1
     3     9     6    1
     4    11     5    1
     5     6     5    2
     6     6     7    1
     7     5     4    1
     8     7     8    2
     9     4     3    2
    10     8     3    1
    11     8    12    1
    12     3     2    1
    13    13    12    1
    14    12    14    1
    15    19    18    1
    16    19    20    2
    17     2     1    3
    18    18    17    2
    19    20    21    1
    20    17    14    1
    21    17    22    1
    22    15    14    2
    23    14    16    2
    24    21    22    2
    25    21    23    1
    26    23    24    2
    27    23    25   am
    28    26    25    1
    29    25    27    1
    30    28    27    2
    31    28    29    1
    32    27    32    1
    33    29    30    2
    34    32    31    2
    35    30    31    1
