@<TRIPOS>MOLECULE
13454_out_ligand_01.pdbqt
 36 39 0 0 0
SMALL
GASTEIGER

@<TRIPOS>ATOM
      1  C         19.0920  -22.0520  -10.7500 C.2     1  UNL1        0.0320
      2  C         19.4550  -21.0510  -11.6540 C.2     1  UNL1        0.0190
      3  C         20.7910  -20.9210  -12.0500 C.2     1  UNL1        0.0300
      4  C         21.7730  -21.7910  -11.5550 C.2     1  UNL1        0.0360
      5  C         21.4010  -22.7820  -10.6460 C.2     1  UNL1        0.0300
      6  C         20.0680  -22.9050  -10.2330 C.2     1  UNL1        0.0190
      7  N         23.0860  -21.6100  -12.0380 N.am    1  UNL1       -0.3090
      8  C         24.2470  -21.4300  -11.3140 C.2     1  UNL1        0.3270
      9  O         24.2840  -21.2610  -10.0980 O.2     1  UNL1       -0.2460
     10  N         25.4200  -21.3770  -12.0840 N.am    1  UNL1       -0.2960
     11  C         26.5560  -20.6400  -11.5250 C.3     1  UNL1        0.1440
     12  C         25.5330  -21.7160  -13.4680 C.2     1  UNL1        0.0800
     13  C         26.6110  -19.2400  -12.1110 C.3     1  UNL1        0.1010
     14  S         26.9300  -19.2850  -13.9010 S.3     1  UNL1       -0.1060
     15  C         26.1710  -20.8370  -14.3670 C.2     1  UNL1        0.1210
     16  N         26.2550  -21.0800  -15.6970 N.2     1  UNL1       -0.2440
     17  C         25.7340  -22.2250  -16.1810 C.2     1  UNL1        0.0320
     18  C         25.8280  -22.4560  -17.6610 C.3     1  UNL1        0.0700
     19  C         25.1430  -23.1740  -15.3590 C.2     1  UNL1        0.0350
     20  C         25.0610  -22.9440  -13.9780 C.2     1  UNL1       -0.0300
     21  C         24.5250  -24.0620  -13.1260 C.3     1  UNL1        0.0500
     22  H         23.1750  -21.5200  -13.0410 H       1  UNL1        0.1700
     23  C         17.6840  -22.2260  -10.3150 C.2     1  UNL1        0.2510
     24  N         17.4620  -23.2680   -9.4470 N.am    1  UNL1       -0.3570
     25  H         18.2580  -23.7230   -9.0110 H       1  UNL1        0.1620
     26  O         16.8130  -21.4550  -10.7000 O.2     1  UNL1       -0.2680
     27  C         16.1670  -23.4670   -8.8260 C.3     1  UNL1        0.1270
     28  C         16.2270  -24.4150   -7.6280 C.3     1  UNL1        0.0610
     29  C         16.2060  -23.6840   -6.2990 C.2     1  UNL1       -0.0230
     30  C         14.9880  -23.5950   -5.6050 C.2     1  UNL1        0.0100
     31  C         14.9140  -22.9230   -4.3890 C.2     1  UNL1        0.0010
     32  C         16.0530  -22.3270   -3.8570 C.2     1  UNL1        0.0030
     33  C         17.2680  -22.3990   -4.5420 C.2     1  UNL1        0.0370
     34  C         17.3560  -23.0710   -5.7630 C.2     1  UNL1        0.0740
     35  O         18.4980  -23.1670   -6.5160 O.2     1  UNL1       -0.3550
     36  C         19.2770  -21.9860   -6.6670 C.3     1  UNL1        0.2100
@<TRIPOS>BOND
     1    18    17    1
     2    17    16    2
     3    17    19    1
     4    16    15    1
     5    19    20    2
     6    15    14    1
     7    15    12    2
     8    20    12    1
     9    20    21    1
    10    14    13    1
    11    12    10    1
    12    22     7    1
    13    13    11    1
    14    10    11    1
    15    10     8   am
    16     3     2    1
    17     3     4    2
    18     7     4    1
    19     7     8   am
    20     2     1    2
    21     4     5    1
    22     8     9    2
    23     1    23    1
    24     1     6    1
    25    26    23    2
    26     5     6    2
    27    23    24   am
    28    24    25    1
    29    24    27    1
    30    27    28    1
    31    28    29    1
    32    36    35    1
    33    35    34    1
    34    29    34    2
    35    29    30    1
    36    34    33    1
    37    30    31    2
    38    33    32    2
    39    31    32    1
