@<TRIPOS>MOLECULE
13459_out_ligand_01.pdbqt
 32 35 0 0 0
SMALL
GASTEIGER

@<TRIPOS>ATOM
      1  C         21.0850  -22.9610  -10.2430 C.2     1  UNL1        0.0320
      2  C         20.5600  -22.1290  -11.2350 C.2     1  UNL1        0.0190
      3  C         21.3970  -21.5980  -12.2220 C.2     1  UNL1        0.0300
      4  C         22.7670  -21.8950  -12.2370 C.2     1  UNL1        0.0350
      5  C         23.2800  -22.7460  -11.2550 C.2     1  UNL1        0.0300
      6  C         22.4460  -23.2810  -10.2650 C.2     1  UNL1        0.0190
      7  C         20.1610  -23.5070   -9.2070 C.2     1  UNL1        0.2560
      8  O         20.4490  -24.5810   -8.6930 O.2     1  UNL1       -0.2670
      9  N         19.0340  -22.7400   -8.9740 N.am    1  UNL1       -0.3220
     10  H         18.8920  -21.9650   -9.6020 H       1  UNL1        0.1690
     11  C         18.0030  -22.9610   -8.0210 C.2     1  UNL1        0.0460
     12  C         16.8890  -23.7510   -8.3330 C.2     1  UNL1        0.0300
     13  C         15.8840  -23.9790   -7.3950 C.2     1  UNL1        0.0030
     14  C         15.9810  -23.4240   -6.1260 C.2     1  UNL1        0.0120
     15  C         17.0800  -22.6340   -5.7710 C.2     1  UNL1       -0.0240
     16  C         17.1440  -22.0900   -4.4760 C.2     1  UNL1        0.0120
     17  C         18.1160  -22.3850   -6.7120 C.2     1  UNL1        0.0010
     18  C         18.2160  -21.2980   -4.0790 C.2     1  UNL1        0.0010
     19  C         19.2400  -21.0360   -4.9750 C.2     1  UNL1        0.0010
     20  C         19.1920  -21.5680   -6.2690 C.2     1  UNL1        0.0140
     21  N         23.5360  -21.3160  -13.2700 N.am    1  UNL1       -0.3210
     22  C         24.4500  -21.9470  -14.1040 C.2     1  UNL1        0.2800
     23  O         24.7460  -23.1350  -14.0300 O.2     1  UNL1       -0.2650
     24  H         23.4170  -20.3220  -13.3900 H       1  UNL1        0.1690
     25  C         25.0590  -21.0660  -15.0970 C.2     1  UNL1        0.1460
     26  C         25.3330  -21.1910  -16.4540 C.2     1  UNL1        0.0470
     27  C         25.9460  -19.9800  -16.8740 C.2     1  UNL1        0.0660
     28  C         26.0090  -19.1960  -15.7500 C.2     1  UNL1        0.2150
     29  O         25.4830  -19.8280  -14.6710 O.2     1  UNL1       -0.2830
     30  N         26.5180  -17.8760  -15.5390 N.pl3   1  UNL1       -0.0900
     31  O         27.1200  -17.6920  -14.4720 O.2     1  UNL1       -0.5300
     32  O         26.3270  -17.0300  -16.4200 O.2     1  UNL1       -0.5300
@<TRIPOS>BOND
     1    27    26    1
     2    27    28    2
     3    26    25    2
     4    32    30    2
     5    28    30    1
     6    28    29    1
     7    30    31    2
     8    25    29    1
     9    25    22    1
    10    22    23    2
    11    22    21   am
    12    24    21    1
    13    21     4    1
    14     4     3    2
    15     4     5    1
    16     3     2    1
    17     5     6    2
    18     2     1    2
    19     6     1    1
    20     1     7    1
    21    10     9    1
    22     7     9   am
    23     7     8    2
    24     9    11    1
    25    12    11    2
    26    12    13    1
    27    11    17    1
    28    13    14    2
    29    17    20    1
    30    17    15    2
    31    20    19    2
    32    14    15    1
    33    15    16    1
    34    19    18    1
    35    16    18    2
