@<TRIPOS>MOLECULE
1346_out_ligand_01.pdbqt
 36 40 0 0 0
SMALL
GASTEIGER

@<TRIPOS>ATOM
      1  C         18.6410  -23.4470   -8.9750 C.2     1  UNL1        0.0800
      2  C         19.5830  -24.2140   -8.2910 C.2     1  UNL1        0.0270
      3  C         20.9230  -24.1710   -8.6860 C.2     1  UNL1        0.0310
      4  C         21.3310  -23.3710   -9.7610 C.2     1  UNL1        0.0340
      5  C         20.3800  -22.5930  -10.4200 C.2     1  UNL1        0.0310
      6  C         19.0400  -22.6160  -10.0200 C.2     1  UNL1        0.0270
      7  N         22.6950  -23.4090  -10.1060 N.am    1  UNL1       -0.3260
      8  C         23.6320  -22.3970   -9.9840 C.2     1  UNL1        0.2400
      9  O         23.4520  -21.3040   -9.4520 O.2     1  UNL1       -0.2710
     10  H         23.0380  -24.2810  -10.4910 H       1  UNL1        0.1690
     11  C         25.0290  -22.7880  -10.4740 C.3     1  UNL1        0.2350
     12  N         25.4050  -22.1290  -11.7080 N.am    1  UNL1       -0.3040
     13  C         25.8440  -20.8160  -11.8230 C.2     1  UNL1        0.2590
     14  O         26.0400  -20.0060  -10.9390 O.2     1  UNL1       -0.2670
     15  C         26.1020  -20.6110  -13.2630 C.2     1  UNL1        0.0450
     16  C         26.5390  -19.5180  -13.9830 C.2     1  UNL1        0.0180
     17  C         25.8400  -21.8020  -13.8870 C.2     1  UNL1        0.0170
     18  C         26.7000  -19.6760  -15.3690 C.2     1  UNL1        0.0020
     19  C         26.4310  -20.9140  -16.0030 C.2     1  UNL1        0.0120
     20  C         25.9860  -22.0240  -15.2500 C.2     1  UNL1       -0.0230
     21  C         25.6720  -23.3270  -15.6870 C.2     1  UNL1        0.0120
     22  C         25.2460  -24.3070  -14.7580 C.2     1  UNL1        0.0030
     23  C         25.1190  -24.0160  -13.3860 C.2     1  UNL1        0.0310
     24  C         25.4240  -22.7360  -12.9740 C.2     1  UNL1        0.0500
     25  S         16.9330  -23.4850   -8.4750 S.O2    1  UNL1        0.2630
     26  O         16.1290  -23.2910   -9.6650 O.2     1  UNL1       -0.2000
     27  O         16.7450  -24.6430   -7.6270 O.2     1  UNL1       -0.2000
     28  N         16.7480  -22.0740   -7.5650 N.pl3   1  UNL1       -0.2800
     29  H         17.2480  -21.2760   -7.9590 H       1  UNL1        0.1790
     30  C         16.6090  -22.1530   -6.1460 C.2     1  UNL1        0.0480
     31  C         15.3640  -22.4890   -5.6020 C.2     1  UNL1        0.0300
     32  C         15.2130  -22.6300   -4.2240 C.2     1  UNL1        0.0020
     33  C         16.3070  -22.4340   -3.3840 C.2     1  UNL1        0.0010
     34  C         17.5470  -22.0850   -3.9220 C.2     1  UNL1        0.0090
     35  C         17.7180  -21.9460   -5.3090 C.2     1  UNL1       -0.0350
     36  C         19.0720  -21.5580   -5.8380 C.3     1  UNL1        0.0500
@<TRIPOS>BOND
     1    19    18    2
     2    19    20    1
     3    21    20    1
     4    21    22    2
     5    18    16    1
     6    20    17    2
     7    22    23    1
     8    16    15    2
     9    17    15    1
    10    17    24    1
    11    23    24    2
    12    15    13    1
    13    24    12    1
    14    13    12   am
    15    13    14    2
    16    12    11    1
    17    10     7    1
    18    11     8    1
    19     5     6    1
    20     5     4    2
    21     7     8   am
    22     7     4    1
    23     6     1    2
    24     8     9    2
    25     4     3    1
    26    26    25    2
    27     1    25    1
    28     1     2    1
    29     3     2    2
    30    25    27    2
    31    25    28    1
    32    29    28    1
    33    28    30    1
    34    30    31    2
    35    30    35    1
    36    36    35    1
    37    31    32    1
    38    35    34    2
    39    32    33    2
    40    34    33    1
