@<TRIPOS>MOLECULE
13474_out_ligand_01.pdbqt
 33 36 0 0 0
SMALL
GASTEIGER

@<TRIPOS>ATOM
      1  C         21.0300  -23.0020   -8.4680 C.2     1  UNL1        0.0320
      2  C         20.3630  -24.2290   -8.4370 C.2     1  UNL1        0.0190
      3  C         19.2400  -24.3930   -7.6180 C.2     1  UNL1        0.0320
      4  C         18.7510  -23.3310   -6.8320 C.2     1  UNL1        0.0570
      5  C         19.4270  -22.1070   -6.8690 C.2     1  UNL1        0.0320
      6  C         20.5530  -21.9440   -7.6890 C.2     1  UNL1        0.0190
      7  N         17.5940  -23.5570   -6.0270 N.ar    1  UNL1       -0.2170
      8  N         17.6960  -24.3420   -4.9160 N.ar    1  UNL1        0.0030
      9  N         16.5120  -24.3290   -4.3290 N.ar    1  UNL1        0.0190
     10  N         15.6170  -23.5960   -5.0480 N.ar    1  UNL1       -0.1350
     11  C         16.2710  -23.1330   -6.0930 C.ar    1  UNL1        0.2030
     12  S         15.5100  -22.2670   -7.3850 S.3     1  UNL1       -0.0850
     13  C         15.9400  -23.3080   -8.8160 C.3     1  UNL1        0.1210
     14  C         16.8010  -22.5720   -9.8200 C.2     1  UNL1       -0.0480
     15  C         17.8890  -23.2180  -10.4340 C.2     1  UNL1        0.0110
     16  C         18.6910  -22.5340  -11.3520 C.2     1  UNL1        0.0430
     17  C         18.4100  -21.2070  -11.6540 C.2     1  UNL1        0.1160
     18  F         19.1820  -20.5520  -12.5310 F       1  UNL1       -0.2060
     19  C         17.3430  -20.5490  -11.0540 C.2     1  UNL1        0.0430
     20  C         16.5370  -21.2310  -10.1380 C.2     1  UNL1        0.0110
     21  C         22.2200  -22.7700   -9.3360 C.2     1  UNL1        0.2560
     22  N         21.9830  -22.8680  -10.6950 N.am    1  UNL1       -0.3230
     23  H         21.0640  -23.1850  -10.9830 H       1  UNL1        0.1690
     24  O         23.2950  -22.5460   -8.7910 O.2     1  UNL1       -0.2670
     25  C         22.9000  -22.6380  -11.7410 C.2     1  UNL1        0.0350
     26  C         24.1240  -23.2990  -11.8660 C.2     1  UNL1        0.0300
     27  C         24.9910  -23.0080  -12.9300 C.2     1  UNL1        0.0170
     28  C         24.6410  -22.0470  -13.8850 C.2     1  UNL1        0.0090
     29  C         23.4190  -21.3780  -13.7560 C.2     1  UNL1        0.0170
     30  C         22.5560  -21.6710  -12.6950 C.2     1  UNL1        0.0300
     31  C         25.5280  -21.7020  -15.0360 C.2     1  UNL1        0.1550
     32  C         24.9370  -20.9920  -16.2270 C.3     1  UNL1        0.0960
     33  O         26.7180  -22.0120  -15.0030 O.2     1  UNL1       -0.2930
@<TRIPOS>BOND
     1    32    31    1
     2    31    33    2
     3    31    28    1
     4    28    29    2
     5    28    27    1
     6    29    30    1
     7    27    26    2
     8    30    25    2
     9    18    17    1
    10    26    25    1
    11    25    22    1
    12    17    16    2
    13    17    19    1
    14    16    15    1
    15    19    20    2
    16    23    22    1
    17    22    21   am
    18    15    14    2
    19    20    14    1
    20    14    13    1
    21    21    24    2
    22    21     1    1
    23    13    12    1
    24     1     2    2
    25     1     6    1
    26     2     3    1
    27     6     5    2
    28     3     4    2
    29    12    11    1
    30     5     4    1
    31     4     7    1
    32    11     7   ar
    33    11    10   ar
    34     7     8   ar
    35    10     9   ar
    36     8     9   ar
