@<TRIPOS>MOLECULE
13480_out_ligand_01.pdbqt
 32 35 0 0 0
SMALL
GASTEIGER

@<TRIPOS>ATOM
      1  N         18.1270  -22.7800   -8.6140 N.am    1  UNL1       -0.2440
      2  C         17.7710  -22.0820   -9.7540 C.2     1  UNL1        0.2660
      3  O         16.7130  -21.6150  -10.1380 O.2     1  UNL1       -0.2670
      4  C         18.9730  -21.9400  -10.5680 C.2     1  UNL1        0.0480
      5  C         19.1570  -21.3400  -11.7990 C.2     1  UNL1        0.0190
      6  C         20.4470  -21.3710  -12.3420 C.2     1  UNL1        0.0180
      7  C         21.5190  -21.9830  -11.6470 C.2     1  UNL1        0.0330
      8  C         21.2960  -22.5950  -10.4050 C.2     1  UNL1        0.0350
      9  C         20.0080  -22.5470   -9.8960 C.2     1  UNL1        0.0490
     10  C         19.4750  -23.0820   -8.6500 C.2     1  UNL1        0.2660
     11  O         20.2140  -23.6590   -7.8740 O.2     1  UNL1       -0.2670
     12  C         22.8630  -21.9900  -12.2930 C.2     1  UNL1        0.2560
     13  O         23.7670  -22.5890  -11.7220 O.2     1  UNL1       -0.2670
     14  N         22.9380  -21.3350  -13.5080 N.am    1  UNL1       -0.3230
     15  H         22.0740  -20.9950  -13.9100 H       1  UNL1        0.1690
     16  C         24.0860  -21.1540  -14.3120 C.2     1  UNL1        0.0360
     17  C         25.0510  -20.1710  -14.0850 C.2     1  UNL1        0.0290
     18  C         26.1590  -20.0520  -14.9300 C.2     1  UNL1        0.0030
     19  C         26.3140  -20.9150  -16.0130 C.2     1  UNL1        0.0180
     20  C         25.3530  -21.9010  -16.2550 C.2     1  UNL1        0.0390
     21  C         24.2430  -22.0160  -15.4040 C.2     1  UNL1        0.0480
     22  C         25.4620  -22.8470  -17.3900 C.2     1  UNL1        0.1760
     23  O         24.5790  -23.5860  -17.7830 O.2     1  UNL1       -0.6460
     24  O         26.6690  -22.8210  -17.9800 O.3     1  UNL1       -0.7730
     25  H         26.4840  -23.0670  -18.9110 H       1  UNL1        0.1670
     26  C         17.2330  -23.1310   -7.5510 C.2     1  UNL1        0.0460
     27  C         16.2220  -24.0890   -7.7270 C.2     1  UNL1        0.0300
     28  C         15.3430  -24.4290   -6.6910 C.2     1  UNL1        0.0030
     29  C         15.4560  -23.8220   -5.4470 C.2     1  UNL1        0.0070
     30  C         16.4570  -22.8770   -5.2260 C.2     1  UNL1       -0.0600
     31  C         16.5730  -22.1870   -3.8990 C.3     1  UNL1        0.0480
     32  C         17.3240  -22.5330   -6.2810 C.2     1  UNL1        0.0370
@<TRIPOS>BOND
     1    25    24    1
     2    24    22    1
     3    23    22    2
     4    22    20    1
     5    20    19    2
     6    20    21    1
     7    19    18    1
     8    21    16    2
     9    18    17    2
    10    16    17    1
    11    16    14    1
    12    15    14    1
    13    14    12   am
    14     6     5    1
    15     6     7    2
    16    12    13    2
    17    12     7    1
    18     5     4    2
    19     7     8    1
    20     4     9    1
    21     4     2    1
    22     8     9    2
    23     3     2    2
    24     9    10    1
    25     2     1   am
    26    10     1   am
    27    10    11    2
    28     1    26    1
    29    27    26    2
    30    27    28    1
    31    26    32    1
    32    28    29    2
    33    32    30    2
    34    29    30    1
    35    30    31    1
