@<TRIPOS>MOLECULE
13496_out_ligand_01.pdbqt
 35 39 0 0 0
SMALL
GASTEIGER

@<TRIPOS>ATOM
      1  S         15.8820  -23.3840   -9.4920 S.3     1  UNL1       -0.0870
      2  C         15.9090  -23.2280   -7.7680 C.ar    1  UNL1        0.1700
      3  N         16.8200  -23.8710   -6.9650 N.ar    1  UNL1       -0.3190
      4  C         16.5550  -23.4940   -5.6640 C.ar    1  UNL1        0.0830
      5  C         17.1370  -23.7900   -4.4390 C.2     1  UNL1        0.1480
      6  C         15.4550  -22.6500   -5.7630 C.ar    1  UNL1        0.0890
      7  N         16.6080  -23.2440   -3.3190 N.2     1  UNL1       -0.2710
      8  C         15.5360  -22.4260   -3.4220 C.2     1  UNL1        0.1180
      9  C         14.9100  -22.0860   -4.6100 C.2     1  UNL1        0.0530
     10  N         15.0680  -22.4990   -7.0700 N.ar    1  UNL1       -0.2220
     11  C         17.9190  -24.7290   -7.3870 C.3     1  UNL1        0.1700
     12  C         19.1910  -23.9610   -7.6480 C.2     1  UNL1       -0.0400
     13  C         20.2400  -24.5590   -8.3600 C.2     1  UNL1        0.0090
     14  C         21.4190  -23.8570   -8.6210 C.2     1  UNL1        0.0070
     15  C         21.5680  -22.5350   -8.1900 C.2     1  UNL1       -0.0620
     16  C         22.8460  -21.7910   -8.4380 C.3     1  UNL1        0.0480
     17  C         20.5280  -21.9350   -7.4730 C.2     1  UNL1        0.0070
     18  C         19.3480  -22.6370   -7.2120 C.2     1  UNL1        0.0090
     19  C         16.3500  -21.7070  -10.0100 C.3     1  UNL1        0.1210
     20  C         17.7350  -21.6580  -10.6120 C.2     1  UNL1       -0.0480
     21  C         18.2850  -20.4400  -11.0390 C.2     1  UNL1        0.0090
     22  C         19.5620  -20.3960  -11.6090 C.2     1  UNL1        0.0170
     23  C         20.3070  -21.5720  -11.7560 C.2     1  UNL1        0.0320
     24  C         19.7530  -22.7920  -11.3530 C.2     1  UNL1        0.0170
     25  C         18.4790  -22.8340  -10.7820 C.2     1  UNL1        0.0090
     26  C         21.6700  -21.5760  -12.3580 C.2     1  UNL1        0.2510
     27  O         21.9060  -20.9140  -13.3640 O.2     1  UNL1       -0.2680
     28  N         22.6080  -22.3840  -11.7490 N.am    1  UNL1       -0.3540
     29  H         22.2740  -23.1370  -11.1610 H       1  UNL1        0.1620
     30  C         23.9060  -22.6070  -12.3690 C.3     1  UNL1        0.1550
     31  C         25.0470  -22.3790  -11.3660 C.3     1  UNL1        0.1390
     32  C         26.4210  -22.6280  -11.9730 C.3     1  UNL1        0.0350
     33  C         26.8170  -21.2630  -12.4790 C.3     1  UNL1        0.0290
     34  C         26.2320  -20.3590  -11.4190 C.3     1  UNL1        0.1680
     35  O         25.0260  -20.9880  -10.9640 O.3     1  UNL1       -0.3840
@<TRIPOS>BOND
     1    27    26    2
     2    33    32    1
     3    33    34    1
     4    30    28    1
     5    30    31    1
     6    26    23    1
     7    26    28   am
     8    32    31    1
     9    23    22    2
    10    23    24    1
    11    28    29    1
    12    22    21    1
    13    34    35    1
    14    31    35    1
    15    24    25    2
    16    21    20    2
    17    25    20    1
    18    20    19    1
    19    19     1    1
    20     1     2    1
    21    14    13    1
    22    14    15    2
    23    16    15    1
    24    13    12    2
    25    15    17    1
    26     2    10   ar
    27     2     3   ar
    28    12    11    1
    29    12    18    1
    30    17    18    2
    31    11     3    1
    32    10     6   ar
    33     3     4   ar
    34     6     4   ar
    35     6     9    1
    36     4     5    1
    37     9     8    2
    38     5     7    2
    39     8     7    1
