@<TRIPOS>MOLECULE
13516_out_ligand_01.pdbqt
 35 38 0 0 0
SMALL
GASTEIGER

@<TRIPOS>ATOM
      1  C         21.3910  -22.3460   -9.7780 C.2     1  UNL1        0.0340
      2  C         21.5030  -22.4130  -11.1700 C.2     1  UNL1        0.0310
      3  C         22.7220  -22.1400  -11.8000 C.2     1  UNL1        0.0270
      4  C         23.8330  -21.7850  -11.0320 C.2     1  UNL1        0.0800
      5  C         23.7450  -21.7380   -9.6390 C.2     1  UNL1        0.0270
      6  C         22.5240  -22.0150   -9.0190 C.2     1  UNL1        0.0310
      7  N         20.2020  -22.6060   -9.0680 N.am    1  UNL1       -0.3260
      8  C         19.8440  -23.7680   -8.3990 C.2     1  UNL1        0.2350
      9  O         20.5320  -24.7870   -8.3420 O.2     1  UNL1       -0.2720
     10  H         19.5070  -21.8670   -9.0960 H       1  UNL1        0.1690
     11  C         18.4900  -23.7020   -7.6510 C.3     1  UNL1        0.1440
     12  C         17.2990  -23.4390   -8.5810 C.2     1  UNL1       -0.0410
     13  C         17.3230  -22.3050   -9.4120 C.2     1  UNL1        0.0080
     14  C         16.2410  -22.0010  -10.2400 C.2     1  UNL1        0.0010
     15  C         15.1180  -22.8240  -10.2490 C.2     1  UNL1        0.0000
     16  C         15.0760  -23.9510   -9.4320 C.2     1  UNL1        0.0010
     17  C         16.1560  -24.2560   -8.6000 C.2     1  UNL1        0.0080
     18  C         18.5310  -22.8210   -6.4010 C.2     1  UNL1       -0.0410
     19  C         19.2560  -21.6200   -6.3400 C.2     1  UNL1        0.0080
     20  C         19.2430  -20.8380   -5.1830 C.2     1  UNL1        0.0010
     21  C         18.5030  -21.2380   -4.0730 C.2     1  UNL1        0.0000
     22  C         17.7730  -22.4230   -4.1180 C.2     1  UNL1        0.0010
     23  C         17.7850  -23.2080   -5.2720 C.2     1  UNL1        0.0080
     24  S         25.3770  -21.4250  -11.8380 S.O2    1  UNL1        0.2630
     25  O         25.9830  -22.6890  -12.1990 O.2     1  UNL1       -0.2000
     26  O         26.0880  -20.4540  -11.0340 O.2     1  UNL1       -0.2000
     27  N         24.8850  -20.7070  -13.2860 N.pl3   1  UNL1       -0.2810
     28  H         24.8870  -19.6900  -13.2230 H       1  UNL1        0.1790
     29  C         25.2650  -21.3010  -14.5210 C.2     1  UNL1        0.0420
     30  C         26.4950  -21.0000  -15.1100 C.2     1  UNL1        0.0330
     31  C         26.8340  -21.5640  -16.3410 C.2     1  UNL1        0.0440
     32  C         25.9390  -22.4230  -16.9700 C.2     1  UNL1        0.1160
     33  F         26.2620  -22.9610  -18.1520 F       1  UNL1       -0.2060
     34  C         24.7130  -22.7300  -16.3900 C.2     1  UNL1        0.0440
     35  C         24.3730  -22.1680  -15.1580 C.2     1  UNL1        0.0330
@<TRIPOS>BOND
     1    33    32    1
     2    32    34    2
     3    32    31    1
     4    34    35    1
     5    31    30    2
     6    35    29    2
     7    30    29    1
     8    29    27    1
     9    27    28    1
    10    27    24    1
    11    25    24    2
    12    24    26    2
    13    24     4    1
    14     3     2    1
    15     3     4    2
    16     2     1    2
    17     4     5    1
    18    15    14    2
    19    15    16    1
    20    14    13    1
    21     1     7    1
    22     1     6    1
    23     5     6    2
    24    16    17    2
    25    13    12    2
    26    10     7    1
    27     7     8   am
    28    17    12    1
    29    12    11    1
    30     8     9    2
    31     8    11    1
    32    11    18    1
    33    18    19    2
    34    18    23    1
    35    19    20    1
    36    23    22    2
    37    20    21    2
    38    22    21    1
