@<TRIPOS>MOLECULE
13543_out_ligand_01.pdbqt
 29 31 0 0 0
SMALL
GASTEIGER

@<TRIPOS>ATOM
      1  C         18.7600  -23.0920   -6.8070 C.2     1  UNL1       -0.0050
      2  C         19.0320  -24.1750   -7.6610 C.2     1  UNL1        0.0150
      3  C         20.1940  -24.2120   -8.4400 C.2     1  UNL1        0.0180
      4  C         21.1090  -23.1550   -8.3810 C.2     1  UNL1        0.0320
      5  C         20.8680  -22.0860   -7.5090 C.2     1  UNL1        0.0180
      6  C         19.7080  -22.0570   -6.7300 C.2     1  UNL1        0.0150
      7  C         17.5320  -23.0740   -5.9910 C.2     1  UNL1        0.0930
      8  N         17.7210  -23.5440   -4.7270 N.2     1  UNL1       -0.2580
      9  C         16.6630  -23.5330   -3.8930 C.2     1  UNL1        0.1170
     10  C         15.4100  -23.0830   -4.2560 C.2     1  UNL1        0.0220
     11  C         15.2210  -22.6220   -5.5580 C.2     1  UNL1        0.0330
     12  C         16.2830  -22.6150   -6.4640 C.2     1  UNL1        0.0640
     13  N         16.1390  -22.2000   -7.8140 N.am    1  UNL1       -0.3250
     14  C         15.8490  -22.9840   -8.9190 C.2     1  UNL1        0.2210
     15  O         15.6490  -24.1930   -8.9230 O.2     1  UNL1       -0.2730
     16  H         16.2810  -21.2130   -7.9930 H       1  UNL1        0.1690
     17  C         15.8010  -22.1490  -10.1910 C.3     1  UNL1        0.0980
     18  C         17.1710  -21.6520  -10.6150 C.3     1  UNL1        0.0140
     19  C         22.3640  -23.1430   -9.1900 C.2     1  UNL1        0.2560
     20  O         23.1940  -24.0200   -8.9810 O.2     1  UNL1       -0.2670
     21  N         22.4800  -22.0930  -10.0820 N.am    1  UNL1       -0.3230
     22  H         21.7700  -21.3740  -10.0430 H       1  UNL1        0.1690
     23  C         23.5320  -21.8560  -10.9920 C.2     1  UNL1        0.0350
     24  C         24.8010  -21.4050  -10.6200 C.2     1  UNL1        0.0310
     25  C         25.7940  -21.2000  -11.5850 C.2     1  UNL1        0.0210
     26  C         25.5210  -21.4470  -12.9270 C.2     1  UNL1        0.0110
     27 BR         26.8620  -21.1700  -14.2280 Br      1  UNL1       -0.0510
     28  C         24.2630  -21.9010  -13.3140 C.2     1  UNL1        0.0210
     29  C         23.2740  -22.1050  -12.3480 C.2     1  UNL1        0.0310
@<TRIPOS>BOND
     1    27    26    1
     2    28    26    2
     3    28    29    1
     4    26    25    1
     5    29    23    2
     6    25    24    2
     7    23    24    1
     8    23    21    1
     9    18    17    1
    10    17    14    1
    11    21    22    1
    12    21    19   am
    13    19    20    2
    14    19     4    1
    15    15    14    2
    16    14    13   am
    17     3     4    2
    18     3     2    1
    19     4     5    1
    20    16    13    1
    21    13    12    1
    22     2     1    2
    23     5     6    2
    24     1     6    1
    25     1     7    1
    26    12     7    2
    27    12    11    1
    28     7     8    1
    29    11    10    2
    30     8     9    2
    31    10     9    1
