@<TRIPOS>MOLECULE
13559_out_ligand_01.pdbqt
 32 35 0 0 0
SMALL
GASTEIGER

@<TRIPOS>ATOM
      1  C         21.1290  -22.2080  -11.1290 C.2     1  UNL1        0.0350
      2  C         20.5410  -21.4190  -12.1240 C.2     1  UNL1        0.0290
      3  C         19.2130  -21.0070  -12.0120 C.2     1  UNL1        0.0030
      4  C         18.4590  -21.3790  -10.9000 C.2     1  UNL1        0.0140
      5  C         19.0260  -22.1640   -9.8890 C.2     1  UNL1       -0.0070
      6  C         20.3640  -22.5750  -10.0170 C.2     1  UNL1        0.0430
      7  N         22.4760  -22.5830  -11.3220 N.am    1  UNL1       -0.3270
      8  C         23.6020  -22.0540  -10.7180 C.2     1  UNL1        0.2260
      9  O         23.6170  -21.1680   -9.8660 O.2     1  UNL1       -0.2730
     10  H         22.6310  -23.3030  -12.0200 H       1  UNL1        0.1690
     11  C         24.9080  -22.7220  -11.1360 C.3     1  UNL1        0.1410
     12  C         25.0770  -22.9370  -12.6240 C.2     1  UNL1       -0.0470
     13  C         24.9270  -21.8640  -13.5120 C.2     1  UNL1        0.0100
     14  C         25.0650  -22.0670  -14.8840 C.2     1  UNL1        0.0400
     15  C         25.3800  -23.3340  -15.3750 C.2     1  UNL1        0.1010
     16  C         25.5240  -24.4280  -14.5070 C.2     1  UNL1        0.1020
     17  C         25.3800  -24.2150  -13.1300 C.2     1  UNL1        0.0470
     18  O         25.4730  -23.4550  -16.7410 O.2     1  UNL1       -0.3530
     19  C         24.1770  -23.4550  -17.3410 C.3     1  UNL1        0.2100
     20  O         25.7820  -25.6420  -15.0880 O.2     1  UNL1       -0.3530
     21  C         27.1200  -26.1210  -15.0520 C.3     1  UNL1        0.2100
     22  C         18.2430  -22.5630   -8.7140 C.2     1  UNL1        0.0430
     23  C         16.9740  -23.1100   -8.6220 C.2     1  UNL1        0.0440
     24  C         16.6690  -23.3260   -7.2490 C.2     1  UNL1       -0.0040
     25  C         15.5500  -23.8330   -6.5620 C.2     1  UNL1        0.0560
     26  C         17.7830  -22.9190   -6.5170 C.2     1  UNL1        0.0430
     27  C         15.6010  -23.9080   -5.1710 C.2     1  UNL1        0.1170
     28  F         14.5400  -24.3870   -4.5050 F       1  UNL1       -0.2060
     29  C         16.7200  -23.5020   -4.4560 C.2     1  UNL1        0.0440
     30  C         17.8430  -22.9970   -5.1190 C.2     1  UNL1        0.0330
     31  N         18.7180  -22.4720   -7.4230 N.pl3   1  UNL1       -0.3550
     32  H         19.6370  -22.1360   -7.1730 H       1  UNL1        0.1660
@<TRIPOS>BOND
     1    19    18    1
     2    18    15    1
     3    15    14    2
     4    15    16    1
     5    20    21    1
     6    20    16    1
     7    14    13    1
     8    16    17    2
     9    13    12    2
    10    17    12    1
    11    12    11    1
    12     2     3    1
    13     2     1    2
    14    10     7    1
    15     3     4    2
    16     7     1    1
    17     7     8   am
    18    11     8    1
    19     1     6    1
    20     4     5    1
    21     8     9    2
    22     6     5    2
    23     5    22    1
    24    22    23    2
    25    22    31    1
    26    23    24    1
    27    31    32    1
    28    31    26    1
    29    24    25    2
    30    24    26    1
    31    25    27    1
    32    26    30    2
    33    27    28    1
    34    27    29    2
    35    30    29    1
