@<TRIPOS>MOLECULE
13568_out_ligand_01.pdbqt
 30 33 0 0 0
SMALL
GASTEIGER

@<TRIPOS>ATOM
      1  C         17.2540  -23.1310   -5.8220 C.2     1  UNL1        0.0410
      2  C         17.1940  -22.5050   -4.5700 C.2     1  UNL1        0.0300
      3  C         15.9990  -22.4410   -3.8480 C.2     1  UNL1        0.0020
      4  C         14.8410  -23.0050   -4.3640 C.2     1  UNL1        0.0010
      5  C         14.8770  -23.6300   -5.6070 C.2     1  UNL1        0.0090
      6  C         16.0720  -23.6990   -6.3530 C.2     1  UNL1       -0.0310
      7  N         18.4580  -23.2220   -6.5610 N.am    1  UNL1       -0.3270
      8  C         19.4630  -22.2740   -6.6750 C.2     1  UNL1        0.2220
      9  O         19.4450  -21.1350   -6.2210 O.2     1  UNL1       -0.2730
     10  H         18.6260  -24.0990   -7.0330 H       1  UNL1        0.1690
     11  C         20.6280  -22.7610   -7.5240 C.3     1  UNL1        0.1080
     12  C         21.7270  -21.7080   -7.6470 C.3     1  UNL1        0.0470
     13  C         22.7730  -22.1030   -8.6620 C.2     1  UNL1       -0.0580
     14  C         23.1910  -23.4370   -8.7680 C.2     1  UNL1        0.0070
     15  C         24.1350  -23.8080   -9.7260 C.2     1  UNL1        0.0010
     16  C         24.6690  -22.8510  -10.5880 C.2     1  UNL1        0.0000
     17  C         24.2590  -21.5230  -10.4920 C.2     1  UNL1        0.0010
     18  C         23.3130  -21.1500   -9.5350 C.2     1  UNL1        0.0070
     19  C         15.9930  -24.3360   -7.7290 C.3     1  UNL1        0.0480
     20  C         15.6260  -23.3410   -8.8370 C.3     1  UNL1        0.0830
     21  C         16.8210  -22.8530   -9.5850 C.ar    1  UNL1        0.1050
     22  N         17.9900  -23.4530   -9.6730 N.ar    1  UNL1       -0.2330
     23  C         18.7620  -22.6400  -10.4680 C.ar    1  UNL1        0.0850
     24  C         20.0880  -22.7990  -10.8920 C.2     1  UNL1        0.0340
     25  C         18.0490  -21.5180  -10.8740 C.ar    1  UNL1        0.0620
     26  C         20.6510  -21.8160  -11.7190 C.2     1  UNL1        0.0020
     27  C         19.9080  -20.7010  -12.1130 C.2     1  UNL1        0.0020
     28  C         18.5820  -20.5260  -11.6980 C.2     1  UNL1        0.0320
     29  N         16.8170  -21.6730  -10.2920 N.ar    1  UNL1       -0.3430
     30  H         16.0280  -21.0520  -10.4010 H       1  UNL1        0.1670
@<TRIPOS>BOND
     1    27    26    2
     2    27    28    1
     3    26    24    1
     4    28    25    2
     5    24    23    2
     6    25    23   ar
     7    25    29   ar
     8    16    17    2
     9    16    15    1
    10    17    18    1
    11    23    22   ar
    12    30    29    1
    13    29    21   ar
    14    15    14    2
    15    22    21   ar
    16    21    20    1
    17    18    13    2
    18    20    19    1
    19    14    13    1
    20    13    12    1
    21    19     6    1
    22    12    11    1
    23    11     8    1
    24    10     7    1
    25     8     7   am
    26     8     9    2
    27     7     1    1
    28     6     1    2
    29     6     5    1
    30     1     2    1
    31     5     4    2
    32     2     3    2
    33     4     3    1
