@<TRIPOS>MOLECULE
13574_out_ligand_01.pdbqt
 29 31 0 0 0
SMALL
GASTEIGER

@<TRIPOS>ATOM
      1  C         18.6770  -22.8010   -6.5700 C.2     1  UNL1       -0.0050
      2  C         19.6500  -21.7860   -6.5400 C.2     1  UNL1        0.0150
      3  C         20.7900  -21.8500   -7.3480 C.2     1  UNL1        0.0180
      4  C         20.9770  -22.9370   -8.2110 C.2     1  UNL1        0.0320
      5  C         20.0330  -23.9710   -8.2270 C.2     1  UNL1        0.0180
      6  C         18.8970  -23.9040   -7.4130 C.2     1  UNL1        0.0150
      7  C         17.4830  -22.7200   -5.7080 C.2     1  UNL1        0.0930
      8  N         17.7690  -22.8600   -4.3830 N.2     1  UNL1       -0.2580
      9  C         16.7370  -22.8350   -3.5160 C.2     1  UNL1        0.1170
     10  C         15.4220  -22.6660   -3.9020 C.2     1  UNL1        0.0220
     11  C         15.1420  -22.5020   -5.2570 C.2     1  UNL1        0.0330
     12  C         16.1740  -22.5160   -6.1980 C.2     1  UNL1        0.0640
     13  N         15.9540  -22.3090   -7.5850 N.am    1  UNL1       -0.3250
     14  C         15.6950  -23.2610   -8.5570 C.2     1  UNL1        0.2210
     15  O         15.6220  -24.4720   -8.3900 O.2     1  UNL1       -0.2730
     16  H         15.9740  -21.3460   -7.8970 H       1  UNL1        0.1690
     17  C         15.5050  -22.6170   -9.9220 C.3     1  UNL1        0.0980
     18  C         16.7010  -21.7840  -10.3470 C.3     1  UNL1        0.0140
     19  C         22.1750  -23.0550   -9.0940 C.2     1  UNL1        0.2560
     20  O         22.8670  -24.0610   -8.9970 O.2     1  UNL1       -0.2670
     21  N         22.3570  -22.0090   -9.9830 N.am    1  UNL1       -0.3230
     22  H         21.6230  -21.3160  -10.0350 H       1  UNL1        0.1690
     23  C         23.4160  -21.8430  -10.9010 C.2     1  UNL1        0.0350
     24  C         23.1310  -22.0770  -12.2540 C.2     1  UNL1        0.0320
     25  C         24.1230  -21.9290  -13.2270 C.2     1  UNL1        0.0440
     26  C         25.4010  -21.5440  -12.8460 C.2     1  UNL1        0.1160
     27  F         26.3520  -21.4010  -13.7770 F       1  UNL1       -0.2060
     28  C         25.7020  -21.3030  -11.5130 C.2     1  UNL1        0.0440
     29  C         24.7090  -21.4510  -10.5390 C.2     1  UNL1        0.0320
@<TRIPOS>BOND
     1    27    26    1
     2    25    26    2
     3    25    24    1
     4    26    28    1
     5    24    23    2
     6    28    29    2
     7    23    29    1
     8    23    21    1
     9    18    17    1
    10    22    21    1
    11    21    19   am
    12    17    14    1
    13    19    20    2
    14    19     4    1
    15    14    15    2
    16    14    13   am
    17     5     4    2
    18     5     6    1
    19     4     3    1
    20    16    13    1
    21    13    12    1
    22     6     1    2
    23     3     2    2
    24     1     2    1
    25     1     7    1
    26    12     7    2
    27    12    11    1
    28     7     8    1
    29    11    10    2
    30     8     9    2
    31    10     9    1
