@<TRIPOS>MOLECULE
13579_out_ligand_01.pdbqt
 24 26 0 0 0
SMALL
GASTEIGER

@<TRIPOS>ATOM
      1  C         22.8090  -21.7670  -12.7300 C.2     1  UNL1        0.0320
      2  C         23.1310  -22.5460  -11.6210 C.2     1  UNL1        0.0190
      3  C         22.1630  -22.8110  -10.6400 C.2     1  UNL1        0.0310
      4  C         20.8480  -22.3300  -10.7450 C.2     1  UNL1        0.0430
      5  C         20.5270  -21.5570  -11.8820 C.2     1  UNL1       -0.0300
      6  C         21.5070  -21.2790  -12.8570 C.2     1  UNL1        0.0260
      7  C         19.1540  -20.9760  -12.0910 C.3     1  UNL1        0.0420
      8  C         18.1170  -21.7450  -11.3010 C.3     1  UNL1        0.0250
      9  C         18.5760  -21.8600   -9.8590 C.3     1  UNL1        0.1330
     10  N         19.8570  -22.5720   -9.7250 N.am    1  UNL1       -0.3130
     11  C         20.0680  -23.4660   -8.6590 C.2     1  UNL1        0.2580
     12  O         20.9000  -24.3700   -8.6160 O.2     1  UNL1       -0.2670
     13  C         19.2100  -23.3390   -7.4540 C.2     1  UNL1        0.0320
     14  C         18.2680  -24.3290   -7.1450 C.2     1  UNL1        0.0200
     15  C         17.4530  -24.1770   -6.0220 C.2     1  UNL1        0.0430
     16  C         17.5740  -23.0360   -5.2340 C.2     1  UNL1        0.1160
     17  F         16.7900  -22.8940   -4.1580 F       1  UNL1       -0.2060
     18  C         18.4910  -22.0370   -5.5500 C.2     1  UNL1        0.0430
     19  C         19.3090  -22.1820   -6.6700 C.2     1  UNL1        0.0200
     20  C         23.7930  -21.4430  -13.7980 C.2     1  UNL1        0.2490
     21  N         23.4130  -20.5550  -14.7660 N.am    1  UNL1       -0.3660
     22  H         24.0560  -20.4430  -15.5400 H       1  UNL1        0.1590
     23  H         22.4500  -20.2970  -14.9230 H       1  UNL1        0.1590
     24  O         24.8960  -21.9740  -13.8390 O.2     1  UNL1       -0.2680
@<TRIPOS>BOND
     1    22    21    1
     2    23    21    1
     3    21    20   am
     4    24    20    2
     5    20     1    1
     6     6     1    2
     7     6     5    1
     8     1     2    1
     9     7     5    1
    10     7     8    1
    11     5     4    2
    12     2     3    2
    13     8     9    1
    14     4     3    1
    15     4    10    1
    16     9    10    1
    17    10    11   am
    18    11    12    2
    19    11    13    1
    20    13    14    2
    21    13    19    1
    22    14    15    1
    23    19    18    2
    24    15    16    2
    25    18    16    1
    26    16    17    1
