@<TRIPOS>MOLECULE
13615_out_ligand_01.pdbqt
 31 34 0 0 0
SMALL
GASTEIGER

@<TRIPOS>ATOM
      1  C         21.8620  -22.4700   -9.4580 C.2     1  UNL1        0.0350
      2  C         23.0430  -21.8250   -9.0820 C.2     1  UNL1        0.0310
      3  C         24.0320  -21.5410  -10.0310 C.2     1  UNL1        0.0270
      4  C         23.8440  -21.9200  -11.3610 C.2     1  UNL1        0.0750
      5  C         22.6630  -22.5540  -11.7540 C.2     1  UNL1        0.0270
      6  C         21.6800  -22.8290  -10.8010 C.2     1  UNL1        0.0310
      7  N         20.8240  -22.7930   -8.5610 N.am    1  UNL1       -0.3230
      8  C         19.4910  -22.4440   -8.6560 C.2     1  UNL1        0.2570
      9  O         18.9370  -21.8270   -9.5550 O.2     1  UNL1       -0.2670
     10  H         21.0870  -23.3570   -7.7600 H       1  UNL1        0.1690
     11  C         18.6630  -22.9500   -7.5320 C.2     1  UNL1        0.0430
     12  C         17.9350  -24.1210   -7.7820 C.2     1  UNL1        0.0180
     13  C         17.1820  -24.6970   -6.7660 C.2     1  UNL1        0.0020
     14  C         17.1520  -24.1010   -5.5050 C.2     1  UNL1        0.0120
     15  C         17.8570  -22.9130   -5.2430 C.2     1  UNL1       -0.0250
     16  C         17.7990  -22.3230   -3.9700 C.2     1  UNL1        0.0120
     17  C         18.6210  -22.3040   -6.2690 C.2     1  UNL1       -0.0100
     18  C         18.4700  -21.1330   -3.6980 C.2     1  UNL1        0.0010
     19  C         19.2040  -20.5090   -4.6990 C.2     1  UNL1        0.0010
     20  C         19.2750  -21.0830   -5.9690 C.2     1  UNL1        0.0130
     21  S         25.0760  -21.5380  -12.5810 S.O2    1  UNL1        0.2480
     22  O         25.8250  -20.4090  -12.0640 O.2     1  UNL1       -0.2050
     23  O         25.7680  -22.7490  -12.9660 O.2     1  UNL1       -0.2050
     24  N         24.1980  -20.9470  -13.8630 N.pl3   1  UNL1       -0.1480
     25  H         23.9160  -19.9810  -13.7460 H       1  UNL1        0.1490
     26  C         24.6700  -21.2270  -15.1380 C.cat   1  UNL1        0.2150
     27  N         25.7850  -20.6330  -15.5630 N.2     1  UNL1       -0.2300
     28  C         26.2590  -21.0640  -16.7460 C.2     1  UNL1        0.1210
     29  C         25.6800  -22.0830  -17.4670 C.2     1  UNL1        0.0390
     30  C         24.5680  -22.6570  -16.8950 C.2     1  UNL1        0.1210
     31  N         24.0510  -22.2620  -15.7150 N.2     1  UNL1       -0.2300
@<TRIPOS>BOND
     1    29    30    1
     2    29    28    2
     3    30    31    2
     4    28    27    1
     5    31    26    1
     6    27    26    2
     7    26    24    1
     8    24    25    1
     9    24    21    1
    10    23    21    2
    11    21    22    2
    12    21     4    1
    13     5     4    2
    14     5     6    1
    15     4     3    1
    16     6     1    2
    17     3     2    2
    18     9     8    2
    19     1     2    1
    20     1     7    1
    21     8     7   am
    22     8    11    1
    23     7    10    1
    24    12    11    2
    25    12    13    1
    26    11    17    1
    27    13    14    2
    28    17    20    1
    29    17    15    2
    30    20    19    2
    31    14    15    1
    32    15    16    1
    33    19    18    1
    34    16    18    2
