@<TRIPOS>MOLECULE
13612_out_ligand_01.pdbqt
 30 33 0 0 0
SMALL
GASTEIGER

@<TRIPOS>ATOM
      1  C         19.3990  -22.6570  -10.3720 C.2     1  UNL1       -0.0330
      2  C         19.8630  -21.7780  -11.3590 C.2     1  UNL1        0.0120
      3  C         21.2270  -21.7020  -11.6620 C.2     1  UNL1        0.0180
      4  C         22.1440  -22.5100  -10.9790 C.2     1  UNL1        0.0320
      5  C         21.6790  -23.4130  -10.0150 C.2     1  UNL1        0.0180
      6  C         20.3160  -23.4860   -9.7160 C.2     1  UNL1        0.0120
      7  C         17.9710  -22.7820  -10.0530 C.2     1  UNL1        0.0540
      8  C         17.4370  -22.6810   -8.8210 C.2     1  UNL1        0.1440
      9  O         18.2310  -22.4490   -7.7050 O.2     1  UNL1       -0.3030
     10  C         15.9490  -22.8470   -8.7000 C.2     1  UNL1        0.2800
     11  C         17.6220  -22.3680   -6.4800 C.2     1  UNL1        0.1030
     12  C         18.4350  -22.1360   -5.3720 C.2     1  UNL1        0.0390
     13  C         16.2450  -22.5100   -6.3190 C.2     1  UNL1        0.0690
     14  C         17.8650  -22.0440   -4.1020 C.2     1  UNL1        0.0030
     15  C         16.4850  -22.1830   -3.9420 C.2     1  UNL1        0.0020
     16  C         15.6700  -22.4180   -5.0520 C.2     1  UNL1        0.0320
     17  N         15.4440  -22.7450   -7.4340 N.am    1  UNL1       -0.3190
     18  H         14.4440  -22.8550   -7.3420 H       1  UNL1        0.1690
     19  O         15.2130  -23.0600   -9.6580 O.2     1  UNL1       -0.2650
     20  C         23.6050  -22.4660  -11.2620 C.2     1  UNL1        0.2510
     21  O         24.2790  -21.5230  -10.8660 O.2     1  UNL1       -0.2680
     22  N         24.1150  -23.5060  -12.0100 N.am    1  UNL1       -0.3530
     23  H         23.4720  -24.1140  -12.4980 H       1  UNL1        0.1630
     24  C         25.4900  -23.5090  -12.4580 C.3     1  UNL1        0.1620
     25  C         25.5840  -23.2290  -13.9290 C.2     1  UNL1       -0.0230
     26  C         25.6100  -21.9200  -14.4200 C.2     1  UNL1        0.0120
     27  C         25.6790  -21.6970  -15.7910 C.2     1  UNL1        0.0200
     28  C         25.7170  -22.7970  -16.6320 C.2     1  UNL1        0.1160
     29  N         25.6890  -24.0760  -16.1980 N.2     1  UNL1       -0.2730
     30  C         25.6240  -24.2610  -14.8610 C.2     1  UNL1        0.1240
@<TRIPOS>BOND
     1    28    29    2
     2    28    27    1
     3    29    30    1
     4    27    26    2
     5    30    25    2
     6    26    25    1
     7    25    24    1
     8    23    22    1
     9    24    22    1
    10    22    20   am
    11     3     2    1
    12     3     4    2
    13     2     1    2
    14    20     4    1
    15    20    21    2
    16     4     5    1
    17     1     7    1
    18     1     6    1
    19     7     8    2
    20     5     6    2
    21    19    10    2
    22     8    10    1
    23     8     9    1
    24    10    17   am
    25     9    11    1
    26    17    18    1
    27    17    13    1
    28    11    13    2
    29    11    12    1
    30    13    16    1
    31    12    14    2
    32    16    15    2
    33    14    15    1
