@<TRIPOS>MOLECULE
13616_out_ligand_01.pdbqt
 31 34 0 0 0
SMALL
GASTEIGER

@<TRIPOS>ATOM
      1  C         21.2420  -23.2240   -8.4560 C.2     1  UNL1        0.0320
      2  C         20.4970  -24.4030   -8.4860 C.2     1  UNL1        0.0190
      3  C         19.3170  -24.5090   -7.7420 C.2     1  UNL1        0.0320
      4  C         18.8520  -23.4330   -6.9580 C.2     1  UNL1        0.0570
      5  C         19.5930  -22.2450   -6.9580 C.2     1  UNL1        0.0320
      6  C         20.7810  -22.1410   -7.7020 C.2     1  UNL1        0.0190
      7  N         17.6370  -23.6070   -6.2220 N.ar    1  UNL1       -0.2170
      8  N         17.6620  -24.3050   -5.0480 N.ar    1  UNL1        0.0030
      9  N         16.4210  -24.3500   -4.5990 N.ar    1  UNL1        0.0190
     10  N         15.5780  -23.6720   -5.4250 N.ar    1  UNL1       -0.1350
     11  C         16.3160  -23.2130   -6.4130 C.ar    1  UNL1        0.2030
     12  S         15.6690  -22.2310   -7.6830 S.3     1  UNL1       -0.0850
     13  C         16.1350  -23.2210   -9.1410 C.3     1  UNL1        0.1210
     14  C         17.0390  -22.4640  -10.0860 C.2     1  UNL1       -0.0490
     15  C         18.2600  -23.0160  -10.5080 C.2     1  UNL1        0.0080
     16  C         19.1000  -22.3100  -11.3710 C.2     1  UNL1        0.0010
     17  C         18.7290  -21.0450  -11.8230 C.2     1  UNL1        0.0000
     18  C         17.5220  -20.4840  -11.4100 C.2     1  UNL1        0.0010
     19  C         16.6820  -21.1860  -10.5440 C.2     1  UNL1        0.0080
     20  C         22.4920  -23.1550   -9.2610 C.2     1  UNL1        0.2560
     21  N         22.5050  -22.1730  -10.2370 N.am    1  UNL1       -0.3230
     22  H         21.7170  -21.5390  -10.2620 H       1  UNL1        0.1690
     23  O         23.4030  -23.9240   -8.9810 O.2     1  UNL1       -0.2670
     24  C         23.5580  -21.8800  -11.1350 C.2     1  UNL1        0.0370
     25  C         23.3170  -22.1050  -12.5000 C.2     1  UNL1        0.0300
     26  C         24.2960  -21.8260  -13.4590 C.2     1  UNL1        0.0120
     27  C         25.5420  -21.3290  -13.0680 C.2     1  UNL1       -0.0230
     28  C         26.6050  -21.0010  -14.0720 C.3     1  UNL1        0.0510
     29  C         25.7740  -21.1130  -11.7090 C.2     1  UNL1        0.1240
     30  C         24.8010  -21.3840  -10.7460 C.2     1  UNL1        0.0720
     31  F         26.9600  -20.6300  -11.3100 F       1  UNL1       -0.2050
@<TRIPOS>BOND
     1    28    27    1
     2    26    27    2
     3    26    25    1
     4    27    29    1
     5    25    24    2
     6    17    18    2
     7    17    16    1
     8    29    31    1
     9    29    30    2
    10    18    19    1
    11    16    15    2
    12    24    30    1
    13    24    21    1
    14    19    14    2
    15    15    14    1
    16    22    21    1
    17    21    20   am
    18    14    13    1
    19    20    23    2
    20    20     1    1
    21    13    12    1
    22     2     1    2
    23     2     3    1
    24     1     6    1
    25     3     4    2
    26     6     5    2
    27    12    11    1
    28     5     4    1
    29     4     7    1
    30    11     7   ar
    31    11    10   ar
    32     7     8   ar
    33    10     9   ar
    34     8     9   ar
