@<TRIPOS>MOLECULE
1362_out_ligand_01.pdbqt
 31 34 0 0 0
SMALL
GASTEIGER

@<TRIPOS>ATOM
      1  C         19.4080  -23.0500   -9.2320 C.2     1  UNL1       -0.0160
      2  C         18.1430  -22.8690   -9.8340 C.2     1  UNL1        0.0130
      3  C         17.9670  -22.0140  -10.9270 C.2     1  UNL1        0.0430
      4  C         19.0520  -21.3210  -11.4370 C.2     1  UNL1        0.1170
      5  F         18.8830  -20.4990  -12.4820 F       1  UNL1       -0.2060
      6  C         20.3130  -21.4760  -10.8870 C.2     1  UNL1        0.0680
      7  C         20.5010  -22.3540   -9.8040 C.2     1  UNL1        0.0900
      8  C         19.5750  -23.9600   -8.0230 C.3     1  UNL1        0.1760
      9  N         18.7150  -23.6670   -6.8900 N.am    1  UNL1       -0.2740
     10  C         17.6880  -24.4800   -6.4770 C.2     1  UNL1        0.2800
     11  C         17.0540  -23.7830   -5.3470 C.2     1  UNL1        0.1400
     12  O         17.3600  -25.5600   -6.9320 O.2     1  UNL1       -0.2650
     13  N         16.0060  -24.2190   -4.6250 N.2     1  UNL1       -0.2540
     14  C         17.7270  -22.6010   -5.1500 C.2     1  UNL1        0.0670
     15  C         15.6280  -23.3720   -3.6360 C.2     1  UNL1        0.1170
     16  C         16.2540  -22.1470   -3.3620 C.2     1  UNL1        0.0200
     17  C         17.3420  -21.7440   -4.1430 C.2     1  UNL1        0.0210
     18  C         18.7930  -22.5260   -6.1390 C.2     1  UNL1        0.2630
     19  O         19.5810  -21.6030   -6.2180 O.2     1  UNL1       -0.2670
     20  S         22.1930  -22.5140   -9.2360 S.O2    1  UNL1        0.2630
     21  O         22.2780  -21.7980   -7.9810 O.2     1  UNL1       -0.2000
     22  O         22.6240  -23.8900   -9.3450 O.2     1  UNL1       -0.2000
     23  N         23.0590  -21.6010  -10.3600 N.pl3   1  UNL1       -0.2810
     24  H         22.4990  -20.8700  -10.7950 H       1  UNL1        0.1790
     25  C         24.1470  -22.1590  -11.0900 C.2     1  UNL1        0.0450
     26  C         25.4460  -21.7800  -10.7260 C.2     1  UNL1        0.0300
     27  C         26.5520  -22.3060  -11.3990 C.2     1  UNL1        0.0050
     28  C         26.3620  -23.2230  -12.4300 C.2     1  UNL1        0.0420
     29  C         25.0680  -23.6020  -12.7770 C.2     1  UNL1        0.1180
     30  F         24.8860  -24.5000  -13.7560 F       1  UNL1       -0.2060
     31  C         23.9590  -23.0840  -12.1150 C.2     1  UNL1        0.0720
@<TRIPOS>BOND
     1    30    29    1
     2    29    28    2
     3    29    31    1
     4     5     4    1
     5    28    27    1
     6    31    25    2
     7     4     3    2
     8     4     6    1
     9    27    26    2
    10    25    26    1
    11    25    23    1
    12     3     2    1
    13     6     7    2
    14    24    23    1
    15    23    20    1
    16     2     1    2
    17     7    20    1
    18     7     1    1
    19    22    20    2
    20    20    21    2
    21     1     8    1
    22     8     9    1
    23    12    10    2
    24     9    10   am
    25     9    18   am
    26    10    11    1
    27    19    18    2
    28    18    14    1
    29    11    14    2
    30    11    13    1
    31    14    17    1
    32    13    15    2
    33    17    16    2
    34    15    16    1
