@<TRIPOS>MOLECULE
13627_out_ligand_01.pdbqt
 36 40 0 0 0
SMALL
GASTEIGER

@<TRIPOS>ATOM
      1  S         16.2860  -23.3440   -9.5690 S.3     1  UNL1       -0.0870
      2  C         16.1990  -23.1880   -7.8480 C.ar    1  UNL1        0.1700
      3  N         17.0530  -23.8300   -6.9860 N.ar    1  UNL1       -0.3190
      4  C         16.6640  -23.4960   -5.7050 C.ar    1  UNL1        0.0830
      5  C         17.1210  -23.8380   -4.4410 C.2     1  UNL1        0.1480
      6  C         15.5920  -22.6280   -5.8830 C.ar    1  UNL1        0.0890
      7  N         16.5050  -23.3070   -3.3600 N.2     1  UNL1       -0.2710
      8  C         15.4630  -22.4620   -3.5400 C.2     1  UNL1        0.1180
      9  C         14.9550  -22.0800   -4.7690 C.2     1  UNL1        0.0530
     10  N         15.3230  -22.4430   -7.2150 N.ar    1  UNL1       -0.2220
     11  C         18.1590  -24.7110   -7.3330 C.3     1  UNL1        0.1700
     12  C         19.4130  -23.9410   -7.6780 C.2     1  UNL1       -0.0400
     13  C         19.6050  -22.6260   -7.2300 C.2     1  UNL1        0.0090
     14  C         20.7630  -21.9210   -7.5670 C.2     1  UNL1        0.0070
     15  C         21.7500  -22.5120   -8.3630 C.2     1  UNL1       -0.0620
     16  C         23.0030  -21.7600   -8.7030 C.3     1  UNL1        0.0480
     17  C         21.5760  -23.8320   -8.7890 C.2     1  UNL1        0.0070
     18  C         20.4190  -24.5390   -8.4510 C.2     1  UNL1        0.0090
     19  C         16.7330  -21.6400  -10.0080 C.3     1  UNL1        0.1210
     20  C         18.0820  -21.5930  -10.6860 C.2     1  UNL1       -0.0480
     21  C         18.8130  -22.7740  -10.8900 C.2     1  UNL1        0.0090
     22  C         20.0460  -22.7410  -11.5440 C.2     1  UNL1        0.0170
     23  C         20.5670  -21.5250  -11.9990 C.2     1  UNL1        0.0320
     24  C         19.8360  -20.3440  -11.8150 C.2     1  UNL1        0.0170
     25  C         18.6010  -20.3800  -11.1620 C.2     1  UNL1        0.0090
     26  C         21.8790  -21.5320  -12.7020 C.2     1  UNL1        0.2510
     27  O         22.0360  -20.8650  -13.7190 O.2     1  UNL1       -0.2680
     28  N         22.8520  -22.3440  -12.1600 N.am    1  UNL1       -0.3530
     29  H         22.5730  -23.0440  -11.4850 H       1  UNL1        0.1630
     30  C         24.1330  -22.5220  -12.8070 C.3     1  UNL1        0.1620
     31  C         25.0660  -21.3870  -12.5020 C.2     1  UNL1       -0.0230
     32  C         25.5310  -21.1550  -11.2040 C.2     1  UNL1        0.0120
     33  C         26.3800  -20.0810  -10.9560 C.2     1  UNL1        0.0200
     34  C         26.7360  -19.2680  -12.0180 C.2     1  UNL1        0.1160
     35  N         26.3050  -19.4550  -13.2850 N.2     1  UNL1       -0.2730
     36  C         25.4810  -20.5070  -13.4960 C.2     1  UNL1        0.1240
@<TRIPOS>BOND
     1    27    26    2
     2    36    35    1
     3    36    31    2
     4    35    34    2
     5    30    31    1
     6    30    28    1
     7    26    28   am
     8    26    23    1
     9    31    32    1
    10    28    29    1
    11    34    33    1
    12    23    24    2
    13    23    22    1
    14    24    25    1
    15    22    21    2
    16    32    33    2
    17    25    20    2
    18    21    20    1
    19    20    19    1
    20    19     1    1
    21     1     2    1
    22    17    18    1
    23    17    15    2
    24    16    15    1
    25    18    12    2
    26    15    14    1
    27     2    10   ar
    28     2     3   ar
    29    12    11    1
    30    12    13    1
    31    14    13    2
    32    11     3    1
    33    10     6   ar
    34     3     4   ar
    35     6     4   ar
    36     6     9    1
    37     4     5    1
    38     9     8    2
    39     5     7    2
    40     8     7    1
