@<TRIPOS>MOLECULE
13629_out_ligand_01.pdbqt
 32 34 0 0 0
SMALL
GASTEIGER

@<TRIPOS>ATOM
      1  C         22.2100  -22.2700   -8.7480 C.2     1  UNL1        0.2220
      2  O         23.0800  -21.4710   -8.4120 O.2     1  UNL1       -0.2730
      3  N         21.0000  -22.3800   -8.1010 N.am    1  UNL1       -0.3570
      4  H         20.4310  -23.1970   -8.2780 H       1  UNL1        0.1620
      5  C         22.3730  -23.2150   -9.9270 C.3     1  UNL1        0.1460
      6  C         22.3070  -22.4880  -11.2300 C.ar    1  UNL1        0.0060
      7  C         21.1710  -21.9040  -11.8810 C.ar    1  UNL1        0.0960
      8  N         21.5130  -21.3920  -13.0730 N.ar    1  UNL1       -0.1730
      9  N         22.8290  -21.6080  -13.1720 N.ar    1  UNL1       -0.2820
     10  C         23.3600  -22.2670  -12.1040 C.ar    1  UNL1        0.0330
     11  H         23.3030  -21.2920  -14.0130 H       1  UNL1        0.1890
     12  C         24.7940  -22.6360  -12.0360 C.3     1  UNL1        0.0700
     13  C         19.7780  -21.8570  -11.4400 C.2     1  UNL1       -0.0050
     14  C         19.0130  -20.7050  -11.6820 C.2     1  UNL1        0.0170
     15  C         17.6720  -20.6500  -11.2950 C.2     1  UNL1        0.0430
     16  C         17.0960  -21.7480  -10.6680 C.2     1  UNL1        0.1160
     17  F         15.8100  -21.6970  -10.3000 F       1  UNL1       -0.2060
     18  C         17.8420  -22.8920  -10.4040 C.2     1  UNL1        0.0430
     19  C         19.1860  -22.9460  -10.7820 C.2     1  UNL1        0.0170
     20  C         20.7320  -21.6450   -6.8870 C.3     1  UNL1        0.1610
     21  C         19.3790  -22.0360   -6.3540 C.2     1  UNL1       -0.0400
     22  C         18.7040  -23.1490   -6.8790 C.2     1  UNL1        0.0100
     23  C         17.5030  -23.5770   -6.3130 C.2     1  UNL1        0.0250
     24  C         16.9790  -22.8960   -5.2120 C.2     1  UNL1        0.0740
     25  C         17.6280  -21.7750   -4.6900 C.2     1  UNL1        0.0250
     26  C         18.8280  -21.3500   -5.2600 C.2     1  UNL1        0.0100
     27  S         15.4950  -23.4840   -4.4560 S.O2    1  UNL1        0.2390
     28  O         14.5430  -23.8370   -5.4830 O.2     1  UNL1       -0.2060
     29  O         15.8500  -24.3790   -3.3780 O.2     1  UNL1       -0.2060
     30  N         14.8870  -22.0940   -3.7380 N.3     1  UNL1       -0.2250
     31  H         14.0370  -22.3060   -3.2170 H       1  UNL1        0.1360
     32  H         14.7780  -21.3550   -4.4340 H       1  UNL1        0.1360
@<TRIPOS>BOND
     1    11     9    1
     2     9     8   ar
     3     9    10   ar
     4     8     7   ar
     5    10    12    1
     6    10     6   ar
     7     7    13    1
     8     7     6   ar
     9    14    13    2
    10    14    15    1
    11    13    19    1
    12    15    16    2
    13     6     5    1
    14    19    18    2
    15    16    18    1
    16    16    17    1
    17     5     1    1
    18     1     2    2
    19     1     3   am
    20     4     3    1
    21     3    20    1
    22    20    21    1
    23    22    21    2
    24    22    23    1
    25    21    26    1
    26    23    24    2
    27    28    27    2
    28    26    25    2
    29    24    25    1
    30    24    27    1
    31    27    30    1
    32    27    29    2
    33    32    30    1
    34    30    31    1
