@<TRIPOS>MOLECULE
13624_out_ligand_01.pdbqt
 33 37 0 0 0
SMALL
GASTEIGER

@<TRIPOS>ATOM
      1  C         19.0030  -21.6150   -6.2320 C.3     1  UNL1        0.0500
      2  C         20.0470  -21.8950   -7.2790 C.2     1  UNL1       -0.0390
      3  C         21.3760  -21.5150   -7.0100 C.2     1  UNL1        0.0090
      4  C         22.3920  -21.7410   -7.9400 C.2     1  UNL1        0.0140
      5  C         22.0860  -22.3510   -9.1550 C.2     1  UNL1       -0.0030
      6  C         20.7730  -22.7000   -9.4700 C.2     1  UNL1        0.0390
      7  C         19.7570  -22.4830   -8.5280 C.2     1  UNL1        0.0860
      8  C         23.1710  -22.6050  -10.1300 C.ar    1  UNL1        0.0990
      9  N         24.2130  -23.2530   -9.6810 N.ar    1  UNL1       -0.1630
     10  N         25.2170  -23.4400  -10.5900 N.ar    1  UNL1       -0.1970
     11  C         26.4250  -24.0620  -10.3960 C.ar    1  UNL1        0.1480
     12  C         25.2300  -23.0250  -11.8980 C.ar    1  UNL1        0.1850
     13  C         26.8320  -24.6510   -9.1060 C.3     1  UNL1        0.0950
     14  N         27.1190  -24.0260  -11.5190 N.ar    1  UNL1       -0.1330
     15  N         26.3620  -23.3740  -12.4690 N.ar    1  UNL1       -0.1270
     16  C         24.0810  -22.3270  -12.4220 C.ar    1  UNL1        0.0260
     17  C         24.0090  -21.8900  -13.7480 C.2     1  UNL1        0.0160
     18  C         23.0070  -22.1090  -11.5440 C.ar    1  UNL1        0.0090
     19  C         22.8600  -21.2430  -14.2020 C.2     1  UNL1        0.0010
     20  C         21.7820  -21.0410  -13.3390 C.2     1  UNL1        0.0010
     21  C         21.8490  -21.4770  -12.0120 C.2     1  UNL1        0.0150
     22  S         18.1050  -22.9890   -8.9840 S.O2    1  UNL1        0.2590
     23  O         18.1460  -23.5820  -10.3020 O.2     1  UNL1       -0.2010
     24  O         17.1880  -21.9210   -8.6630 O.2     1  UNL1       -0.2010
     25  N         17.8250  -24.2200   -7.8850 N.3     1  UNL1       -0.3110
     26  H         18.5820  -24.3520   -7.2160 H       1  UNL1        0.1720
     27  C         16.4540  -24.4330   -7.4250 C.3     1  UNL1        0.1720
     28  C         16.2470  -23.9560   -6.0150 C.2     1  UNL1       -0.0220
     29  C         15.2130  -23.0780   -5.6720 C.2     1  UNL1        0.0120
     30  C         15.0900  -22.6300   -4.3580 C.2     1  UNL1        0.0200
     31  C         16.0180  -23.0670   -3.4290 C.2     1  UNL1        0.1160
     32  N         17.0400  -23.8980   -3.7240 N.2     1  UNL1       -0.2730
     33  C         17.1340  -24.3190   -5.0060 C.2     1  UNL1        0.1240
@<TRIPOS>BOND
     1    19    17    1
     2    19    20    2
     3    17    16    2
     4    20    21    1
     5    15    12   ar
     6    15    14   ar
     7    16    12   ar
     8    16    18   ar
     9    21    18    2
    10    12    10   ar
    11    18     8   ar
    12    14    11   ar
    13    10    11   ar
    14    10     9   ar
    15    11    13    1
    16    23    22    2
    17     8     9   ar
    18     8     5    1
    19     6     5    2
    20     6     7    1
    21     5     4    1
    22    22    24    2
    23    22     7    1
    24    22    25    1
    25     7     2    2
    26     4     3    2
    27    25    27    1
    28    25    26    1
    29    27    28    1
    30     2     3    1
    31     2     1    1
    32    28    29    2
    33    28    33    1
    34    29    30    1
    35    33    32    2
    36    30    31    2
    37    32    31    1
