@<TRIPOS>MOLECULE
13650_out_ligand_01.pdbqt
 32 35 0 0 0
SMALL
GASTEIGER

@<TRIPOS>ATOM
      1  C         20.6950  -22.7150  -10.3540 C.2     1  UNL1        0.0330
      2  C         19.9990  -21.8160  -11.2040 C.2     1  UNL1        0.0180
      3  C         20.6330  -21.2050  -12.2910 C.2     1  UNL1        0.0190
      4  C         21.9590  -21.5220  -12.5030 C.2     1  UNL1        0.0480
      5  C         22.6380  -22.4080  -11.6850 C.2     1  UNL1        0.0490
      6  C         22.0390  -23.0300  -10.6050 C.2     1  UNL1        0.0350
      7  C         24.0030  -22.5220  -12.1950 C.2     1  UNL1        0.2620
      8  O         24.8610  -23.2150  -11.6830 O.2     1  UNL1       -0.2670
      9  N         24.0780  -21.7090  -13.2900 N.am    1  UNL1       -0.2760
     10  C         22.8930  -21.0730  -13.5370 C.2     1  UNL1        0.2620
     11  O         22.6160  -20.2790  -14.4140 O.2     1  UNL1       -0.2670
     12  C         19.9430  -23.3360   -9.2250 C.2     1  UNL1        0.2560
     13  O         20.3240  -24.4260   -8.8150 O.2     1  UNL1       -0.2670
     14  N         18.8520  -22.6170   -8.7720 N.am    1  UNL1       -0.3230
     15  H         18.5870  -21.7920   -9.2930 H       1  UNL1        0.1690
     16  C         17.9970  -22.9470   -7.6990 C.2     1  UNL1        0.0350
     17  C         16.9160  -23.7920   -7.9790 C.2     1  UNL1        0.0290
     18  C         16.0200  -24.1640   -6.9750 C.2     1  UNL1        0.0030
     19  C         16.1940  -23.6930   -5.6760 C.2     1  UNL1        0.0160
     20  C         17.2660  -22.8420   -5.3730 C.2     1  UNL1        0.0500
     21  C         18.1610  -22.4750   -6.3950 C.2     1  UNL1        0.0450
     22  C         17.4730  -22.3160   -3.9740 C.3     1  UNL1        0.4170
     23  F         16.3090  -22.0920   -3.3010 F       1  UNL1       -0.1660
     24  F         18.1910  -23.1700   -3.1940 F       1  UNL1       -0.1660
     25  F         18.1440  -21.1310   -3.9520 F       1  UNL1       -0.1660
     26  C         25.2560  -21.5630  -14.1140 C.3     1  UNL1        0.1750
     27  C         25.0180  -22.0640  -15.5110 C.2     1  UNL1       -0.0220
     28  C         25.0200  -21.1980  -16.6080 C.2     1  UNL1        0.0120
     29  C         24.8190  -21.7050  -17.8880 C.2     1  UNL1        0.0200
     30  C         24.6300  -23.0690  -18.0310 C.2     1  UNL1        0.1160
     31  N         24.6330  -23.9380  -16.9980 N.2     1  UNL1       -0.2730
     32  C         24.8330  -23.4200  -15.7650 C.2     1  UNL1        0.1240
@<TRIPOS>BOND
     1    30    29    2
     2    30    31    1
     3    29    28    1
     4    31    32    2
     5    28    27    2
     6    32    27    1
     7    27    26    1
     8    11    10    2
     9    26     9    1
    10    10     9   am
    11    10     4    1
    12     9     7   am
    13     4     3    2
    14     4     5    1
    15     3     2    1
    16     7     5    1
    17     7     8    2
    18     5     6    2
    19     2     1    2
    20     6     1    1
    21     1    12    1
    22    15    14    1
    23    12    13    2
    24    12    14   am
    25    14    16    1
    26    17    16    2
    27    17    18    1
    28    16    21    1
    29    18    19    2
    30    21    20    2
    31    19    20    1
    32    20    22    1
    33    22    25    1
    34    22    23    1
    35    22    24    1
