@<TRIPOS>MOLECULE
13661_out_ligand_01.pdbqt
 28 31 0 0 0
SMALL
GASTEIGER

@<TRIPOS>ATOM
      1  C         21.1690  -21.6830  -11.9440 C.2     1  UNL1        0.0330
      2  C         19.9530  -21.0150  -12.2380 C.2     1  UNL1        0.0180
      3  C         18.8160  -21.2110  -11.4450 C.2     1  UNL1        0.0190
      4  C         18.9310  -22.0820  -10.3790 C.2     1  UNL1        0.0480
      5  C         20.1120  -22.7450  -10.0970 C.2     1  UNL1        0.0490
      6  C         21.2490  -22.5720  -10.8610 C.2     1  UNL1        0.0350
      7  C         19.8780  -23.5800   -8.9200 C.2     1  UNL1        0.2620
      8  O         20.7170  -24.2890   -8.3990 O.2     1  UNL1       -0.2670
      9  N         18.5750  -23.3790   -8.5570 N.am    1  UNL1       -0.2760
     10  C         17.9420  -22.4950   -9.3830 C.2     1  UNL1        0.2620
     11  O         16.7970  -22.0880   -9.3480 O.2     1  UNL1       -0.2670
     12  C         22.3850  -21.4910  -12.7810 C.2     1  UNL1        0.2520
     13  O         22.2890  -20.9610  -13.8810 O.2     1  UNL1       -0.2680
     14  N         23.5680  -21.9680  -12.2600 N.am    1  UNL1       -0.3510
     15  H         23.5400  -22.6240  -11.4930 H       1  UNL1        0.1630
     16  C         24.7710  -22.0010  -13.0630 C.3     1  UNL1        0.1870
     17  C         25.6470  -20.8830  -12.6350 C.2     1  UNL1        0.0700
     18  C         26.1620  -20.4990  -11.4150 C.2     1  UNL1        0.0360
     19  C         26.9230  -19.3300  -11.6530 C.2     1  UNL1        0.0270
     20  C         26.8210  -19.0730  -13.0000 C.2     1  UNL1        0.1420
     21  O         26.0430  -20.0080  -13.6060 O.2     1  UNL1       -0.3250
     22  C         17.9360  -24.0560   -7.4500 C.3     1  UNL1        0.1750
     23  C         18.0430  -23.2620   -6.1780 C.2     1  UNL1       -0.0220
     24  C         18.6450  -21.9990   -6.1530 C.2     1  UNL1        0.0120
     25  C         18.7060  -21.2870   -4.9600 C.2     1  UNL1        0.0200
     26  C         18.1550  -21.8590   -3.8270 C.2     1  UNL1        0.1160
     27  N         17.5550  -23.0690   -3.8130 N.2     1  UNL1       -0.2730
     28  C         17.5060  -23.7390   -4.9870 C.2     1  UNL1        0.1240
@<TRIPOS>BOND
     1    13    12    2
     2    21    20    1
     3    21    17    1
     4    16    17    1
     5    16    14    1
     6    20    19    2
     7    12    14   am
     8    12     1    1
     9    17    18    2
    10    14    15    1
    11     2     1    2
    12     2     3    1
    13     1     6    1
    14    19    18    1
    15     3     4    2
    16     6     5    2
    17     4     5    1
    18     4    10    1
    19     5     7    1
    20    10    11    2
    21    10     9   am
    22     7     9   am
    23     7     8    2
    24     9    22    1
    25    22    23    1
    26    23    24    2
    27    23    28    1
    28    24    25    1
    29    28    27    2
    30    25    26    2
    31    26    27    1
