@<TRIPOS>MOLECULE
13664_out_ligand_01.pdbqt
 33 36 0 0 0
SMALL
GASTEIGER

@<TRIPOS>ATOM
      1  C         17.6270  -22.4380   -9.5860 C.2     1  UNL1        0.0750
      2  C         16.6660  -21.6710  -10.2540 C.2     1  UNL1        0.0250
      3  C         17.0300  -20.9410  -11.3880 C.2     1  UNL1        0.0030
      4  C         18.3510  -20.9690  -11.8400 C.2     1  UNL1        0.0170
      5  C         19.3090  -21.7100  -11.1410 C.2     1  UNL1        0.0340
      6  C         18.9550  -22.4570  -10.0150 C.2     1  UNL1        0.0410
      7  S         17.1540  -23.3800   -8.1570 S.O2    1  UNL1        0.2450
      8  O         18.3590  -23.9940   -7.6420 O.2     1  UNL1       -0.2060
      9  O         15.9970  -24.1770   -8.5050 O.2     1  UNL1       -0.2060
     10  N         16.6980  -22.1730   -7.0480 N.pl3   1  UNL1       -0.1800
     11  H         17.3990  -21.4230   -7.1280 H       1  UNL1        0.1460
     12  C         16.4680  -22.6130   -5.6980 C.2     1  UNL1        0.0390
     13  C         15.3740  -23.4510   -5.4630 C.2     1  UNL1        0.0250
     14  C         15.1650  -23.9990   -4.1950 C.2     1  UNL1        0.0020
     15  C         16.0470  -23.7120   -3.1530 C.2     1  UNL1        0.0010
     16  C         17.1360  -22.8680   -3.3740 C.2     1  UNL1        0.0200
     17  C         17.3550  -22.3140   -4.6460 C.2     1  UNL1        0.0590
     18  C         18.4890  -21.3900   -4.8790 C.2     1  UNL1        0.1780
     19  O         19.2190  -21.4010   -5.8570 O.2     1  UNL1       -0.6460
     20  O         18.6570  -20.4980   -3.8880 O.3     1  UNL1       -0.7730
     21  H         17.7930  -20.4890   -3.4250 H       1  UNL1        0.1670
     22  C         20.6960  -21.7640  -11.6480 C.2     1  UNL1        0.2580
     23  O         20.7950  -21.5010  -12.8420 O.2     1  UNL1       -0.2670
     24  N         21.7190  -22.1250  -10.7450 N.am    1  UNL1       -0.3130
     25  C         21.3990  -22.3340   -9.3230 C.3     1  UNL1        0.1330
     26  C         23.0710  -22.4270  -11.1720 C.2     1  UNL1        0.0430
     27  C         22.5770  -22.1730   -8.3840 C.3     1  UNL1        0.0250
     28  C         23.6690  -23.1340   -8.7970 C.3     1  UNL1        0.0420
     29  C         24.0190  -22.9160  -10.2420 C.2     1  UNL1       -0.0310
     30  C         25.3230  -23.2550  -10.6530 C.2     1  UNL1        0.0090
     31  C         25.7180  -23.0870  -11.9730 C.2     1  UNL1        0.0010
     32  C         24.8100  -22.5860  -12.8930 C.2     1  UNL1        0.0020
     33  C         23.5060  -22.2640  -12.4950 C.2     1  UNL1        0.0300
@<TRIPOS>BOND
     1    32    33    1
     2    32    31    2
     3    23    22    2
     4    33    26    2
     5    31    30    1
     6     4     3    2
     7     4     5    1
     8    22     5    1
     9    22    24   am
    10     3     2    1
    11    26    24    1
    12    26    29    1
    13     5     6    2
    14    24    25    1
    15    30    29    2
    16     2     1    2
    17    29    28    1
    18     6     1    1
    19     1     7    1
    20    25    27    1
    21    28    27    1
    22     9     7    2
    23     7     8    2
    24     7    10    1
    25    11    10    1
    26    10    12    1
    27    19    18    2
    28    12    13    2
    29    12    17    1
    30    13    14    1
    31    18    17    1
    32    18    20    1
    33    17    16    2
    34    14    15    2
    35    20    21    1
    36    16    15    1
