@<TRIPOS>MOLECULE
13696_out_ligand_01.pdbqt
 35 37 0 0 0
SMALL
GASTEIGER

@<TRIPOS>ATOM
      1  C         18.6980  -22.2140   -9.8360 C.2     1  UNL1        0.0330
      2  C         18.5010  -21.6690  -11.1120 C.2     1  UNL1        0.0170
      3  C         19.5940  -21.4240  -11.9450 C.2     1  UNL1        0.0030
      4  C         20.8870  -21.7060  -11.5070 C.2     1  UNL1        0.0250
      5  C         21.0840  -22.2280  -10.2310 C.2     1  UNL1        0.0800
      6  C         19.9950  -22.4960   -9.3950 C.2     1  UNL1        0.0420
      7  S         22.7300  -22.6260   -9.6900 S.O2    1  UNL1        0.2630
      8  O         23.3700  -21.4060   -9.2510 O.2     1  UNL1       -0.2000
      9  O         22.6260  -23.7700   -8.8090 O.2     1  UNL1       -0.2000
     10  N         23.4680  -23.1940  -11.0860 N.pl3   1  UNL1       -0.2810
     11  H         22.7960  -23.5730  -11.7550 H       1  UNL1        0.1790
     12  C         24.6800  -22.6430  -11.5840 C.2     1  UNL1        0.0430
     13  C         25.8780  -23.1030  -11.0430 C.2     1  UNL1        0.0300
     14  C         27.0970  -22.5580  -11.4520 C.2     1  UNL1        0.0030
     15  C         27.1190  -21.5460  -12.4090 C.2     1  UNL1        0.0160
     16  C         25.9190  -21.0630  -12.9610 C.2     1  UNL1        0.0500
     17  C         24.7000  -21.6110  -12.5230 C.2     1  UNL1        0.0460
     18  C         25.9440  -19.9260  -13.9560 C.3     1  UNL1        0.4170
     19  F         26.5530  -18.8050  -13.4840 F       1  UNL1       -0.1660
     20  F         24.7010  -19.5440  -14.3560 F       1  UNL1       -0.1660
     21  F         26.6060  -20.2610  -15.0960 F       1  UNL1       -0.1660
     22  C         17.5620  -22.4740   -8.9030 C.2     1  UNL1        0.2560
     23  O         16.4400  -22.5840   -9.3850 O.2     1  UNL1       -0.2670
     24  N         17.9130  -22.5570   -7.5700 N.am    1  UNL1       -0.3220
     25  H         18.8970  -22.4250   -7.3370 H       1  UNL1        0.1690
     26  C         17.0680  -22.7860   -6.4540 C.2     1  UNL1        0.0510
     27  C         15.9300  -23.5940   -6.5360 C.2     1  UNL1        0.0300
     28  C         15.1040  -23.7910   -5.4240 C.2     1  UNL1        0.0020
     29  C         15.4040  -23.1900   -4.2070 C.2     1  UNL1        0.0010
     30  C         16.5350  -22.3860   -4.0990 C.2     1  UNL1        0.0200
     31  C         17.3710  -22.1730   -5.2140 C.2     1  UNL1        0.0640
     32  C         18.5850  -21.3070   -5.0730 C.2     1  UNL1        0.1780
     33  O         19.5070  -21.2440   -5.8680 O.2     1  UNL1       -0.6460
     34  O         18.5920  -20.5650   -3.9530 O.3     1  UNL1       -0.7730
     35  H         18.5000  -21.2110   -3.2220 H       1  UNL1        0.1670
@<TRIPOS>BOND
     1    21    18    1
     2    20    18    1
     3    18    19    1
     4    18    16    1
     5    16    17    1
     6    16    15    2
     7    17    12    2
     8    15    14    1
     9     3     4    2
    10     3     2    1
    11    11    10    1
    12    12    10    1
    13    12    13    1
    14     4     5    1
    15    14    13    2
    16     2     1    2
    17    10     7    1
    18     5     7    1
    19     5     6    2
    20     1     6    1
    21     1    22    1
    22     7     8    2
    23     7     9    2
    24    23    22    2
    25    22    24   am
    26    24    25    1
    27    24    26    1
    28    27    26    2
    29    27    28    1
    30    26    31    1
    31    33    32    2
    32    28    29    2
    33    31    32    1
    34    31    30    2
    35    32    34    1
    36    29    30    1
    37    34    35    1
