@<TRIPOS>MOLECULE
13695_out_ligand_01.pdbqt
 31 34 0 0 0
SMALL
GASTEIGER

@<TRIPOS>ATOM
      1  C         23.1100  -21.9910  -11.1370 C.2     1  UNL1        0.0320
      2  C         23.2320  -21.9830   -9.7450 C.2     1  UNL1        0.0190
      3  C         22.0960  -22.1220   -8.9350 C.2     1  UNL1        0.0300
      4  C         20.8300  -22.2640   -9.5060 C.2     1  UNL1        0.0340
      5  C         20.7100  -22.2490  -10.9010 C.2     1  UNL1        0.0300
      6  C         21.8410  -22.1120  -11.7120 C.2     1  UNL1        0.0190
      7  N         19.6410  -22.4010   -8.7620 N.am    1  UNL1       -0.3260
      8  C         19.2130  -23.5080   -8.0390 C.2     1  UNL1        0.2350
      9  O         19.7980  -24.5860   -7.9760 O.2     1  UNL1       -0.2720
     10  H         18.9810  -21.6350   -8.8340 H       1  UNL1        0.1690
     11  C         17.8770  -23.2570   -7.2910 C.3     1  UNL1        0.0680
     12  C         17.0930  -24.5910   -7.2500 C.3     1  UNL1        0.0240
     13  C         15.6080  -24.2250   -7.2160 C.3     1  UNL1        0.0020
     14  C         15.5200  -22.7580   -7.6200 C.3     1  UNL1        0.0020
     15  C         16.9080  -22.3970   -8.1360 C.3     1  UNL1        0.0240
     16  C         18.1430  -22.5780   -5.9350 C.2     1  UNL1       -0.0400
     17  C         18.7610  -21.3250   -5.8050 C.2     1  UNL1        0.0080
     18  C         18.9630  -20.7480   -4.5480 C.2     1  UNL1        0.0010
     19  C         18.5510  -21.4120   -3.3960 C.2     1  UNL1        0.0000
     20  C         17.9400  -22.6570   -3.4990 C.2     1  UNL1        0.0010
     21  C         17.7390  -23.2340   -4.7550 C.2     1  UNL1        0.0080
     22  C         24.2870  -21.8480  -12.0380 C.2     1  UNL1        0.2520
     23  O         25.3320  -21.3720  -11.6120 O.2     1  UNL1       -0.2680
     24  N         24.1050  -22.2430  -13.3490 N.am    1  UNL1       -0.3520
     25  H         23.1570  -22.3700  -13.6790 H       1  UNL1        0.1630
     26  C         25.1370  -22.0250  -14.3570 C.3     1  UNL1        0.0840
     27  C         24.6560  -20.9960  -15.3960 C.3     1  UNL1        0.0250
     28  C         25.3080  -21.2120  -16.7550 C.3     1  UNL1        0.0020
     29  C         24.9750  -22.5910  -17.3290 C.3     1  UNL1        0.0000
     30  C         24.7660  -23.6640  -16.2580 C.3     1  UNL1        0.0020
     31  C         25.5580  -23.3610  -14.9900 C.3     1  UNL1        0.0250
@<TRIPOS>BOND
     1    29    28    1
     2    29    30    1
     3    28    27    1
     4    30    31    1
     5    27    26    1
     6    31    26    1
     7    26    24    1
     8    25    24    1
     9    24    22   am
    10    22    23    2
    11    22     1    1
    12     6     1    2
    13     6     5    1
    14     1     2    1
    15     5     4    2
    16     2     3    2
    17     4     3    1
    18     4     7    1
    19    10     7    1
    20     7     8   am
    21    15    14    1
    22    15    11    1
    23     8     9    2
    24     8    11    1
    25    14    13    1
    26    11    12    1
    27    11    16    1
    28    12    13    1
    29    16    17    2
    30    16    21    1
    31    17    18    1
    32    21    20    2
    33    18    19    2
    34    20    19    1
