@<TRIPOS>MOLECULE
13699_out_ligand_01.pdbqt
 27 30 0 0 0
SMALL
GASTEIGER

@<TRIPOS>ATOM
      1  C         20.2170  -21.9350  -11.1150 C.2     1  UNL1        0.0330
      2  C         19.0920  -21.3380  -11.7420 C.2     1  UNL1        0.0180
      3  C         17.7930  -21.5620  -11.2710 C.2     1  UNL1        0.0190
      4  C         17.6560  -22.3930  -10.1790 C.2     1  UNL1        0.0480
      5  C         18.7490  -22.9860   -9.5710 C.2     1  UNL1        0.0490
      6  C         20.0440  -22.7860  -10.0140 C.2     1  UNL1        0.0350
      7  C         18.2490  -23.8020   -8.4670 C.2     1  UNL1        0.2620
      8  O         18.9610  -24.4490   -7.7240 O.2     1  UNL1       -0.2670
      9  N         16.8900  -23.6610   -8.4650 N.am    1  UNL1       -0.2760
     10  C         16.4590  -22.8320   -9.4610 C.2     1  UNL1        0.2620
     11  O         15.3270  -22.4880   -9.7410 O.2     1  UNL1       -0.2670
     12  C         21.5680  -21.6550  -11.6900 C.2     1  UNL1        0.2570
     13  O         21.6140  -21.0830  -12.7720 O.2     1  UNL1       -0.2670
     14  N         22.6250  -22.0490  -10.9060 N.am    1  UNL1       -0.3010
     15  H         22.4760  -22.4060   -9.9740 H       1  UNL1        0.1710
     16  C         23.9590  -21.9350  -11.2020 C.2     1  UNL1        0.1730
     17  N         24.7160  -21.0840  -10.5470 N.2     1  UNL1       -0.2360
     18  C         26.0130  -21.1660  -11.0180 C.2     1  UNL1        0.1260
     19  C         26.2210  -22.0840  -12.0240 C.2     1  UNL1        0.0720
     20  S         24.7440  -22.8710  -12.3880 S.3     1  UNL1       -0.0620
     21  C         16.0120  -24.3460   -7.5430 C.3     1  UNL1        0.1750
     22  C         15.9190  -23.6230   -6.2270 C.2     1  UNL1       -0.0220
     23  C         14.8630  -22.7510   -5.9460 C.2     1  UNL1        0.0120
     24  C         14.8020  -22.1190   -4.7070 C.2     1  UNL1        0.0200
     25  C         15.7990  -22.3860   -3.7850 C.2     1  UNL1        0.1160
     26  N         16.8280  -23.2300   -4.0150 N.2     1  UNL1       -0.2730
     27  C         16.8630  -23.8330   -5.2250 C.2     1  UNL1        0.1240
@<TRIPOS>BOND
     1    13    12    2
     2    20    19    1
     3    20    16    1
     4    19    18    2
     5     2     3    1
     6     2     1    2
     7    12     1    1
     8    12    14   am
     9     3     4    2
    10    16    14    1
    11    16    17    2
    12     1     6    1
    13    18    17    1
    14    14    15    1
    15     4     5    1
    16     4    10    1
    17     6     5    2
    18    11    10    2
    19     5     7    1
    20    10     9   am
    21     7     9   am
    22     7     8    2
    23     9    21    1
    24    21    22    1
    25    22    23    2
    26    22    27    1
    27    23    24    1
    28    27    26    2
    29    24    25    2
    30    26    25    1
