@<TRIPOS>MOLECULE
13720_out_ligand_01.pdbqt
 30 33 0 0 0
SMALL
GASTEIGER

@<TRIPOS>ATOM
      1  C         18.9180  -22.3750   -9.4640 C.2     1  UNL1        0.0340
      2  C         18.5220  -21.8760  -10.7110 C.2     1  UNL1        0.0170
      3  C         19.4860  -21.5670  -11.6720 C.2     1  UNL1        0.0030
      4  C         20.8380  -21.7800  -11.3970 C.2     1  UNL1        0.0250
      5  C         21.2170  -22.3170  -10.1610 C.2     1  UNL1        0.0800
      6  C         20.2650  -22.6080   -9.1820 C.2     1  UNL1        0.0420
      7  C         17.9030  -22.7590   -8.4600 C.2     1  UNL1        0.2580
      8  O         17.0710  -23.5670   -8.8670 O.2     1  UNL1       -0.2670
      9  N         17.9960  -22.2000   -7.1700 N.am    1  UNL1       -0.3130
     10  C         19.3030  -21.7330   -6.6780 C.3     1  UNL1        0.1330
     11  C         16.9460  -22.3760   -6.1910 C.2     1  UNL1        0.0430
     12  C         19.2310  -20.8730   -5.4310 C.3     1  UNL1        0.0250
     13  C         18.5300  -21.6490   -4.3370 C.3     1  UNL1        0.0420
     14  C         17.1860  -22.1120   -4.8240 C.2     1  UNL1       -0.0310
     15  C         16.1710  -22.3110   -3.8690 C.2     1  UNL1        0.0090
     16  C         14.9040  -22.7270   -4.2570 C.2     1  UNL1        0.0010
     17  C         14.6390  -22.9460   -5.6010 C.2     1  UNL1        0.0020
     18  C         15.6470  -22.7680   -6.5540 C.2     1  UNL1        0.0300
     19  S         22.9310  -22.6400   -9.8160 S.O2    1  UNL1        0.2630
     20  O         22.9770  -23.7720   -8.9150 O.2     1  UNL1       -0.2000
     21  O         23.5660  -21.3850   -9.4780 O.2     1  UNL1       -0.2000
     22  N         23.5150  -23.1860  -11.3060 N.pl3   1  UNL1       -0.2810
     23  H         22.7590  -23.3820  -11.9600 H       1  UNL1        0.1790
     24  C         24.7100  -22.6130  -11.8270 C.2     1  UNL1        0.0430
     25  C         25.9560  -23.0080  -11.3410 C.2     1  UNL1        0.0300
     26  C         27.1180  -22.4080  -11.8240 C.2     1  UNL1        0.0040
     27  C         27.0340  -21.4060  -12.7900 C.2     1  UNL1        0.0190
     28  C         25.7850  -21.0130  -13.2710 C.2     1  UNL1        0.0130
     29 BR         25.6710  -19.6450  -14.5700 Br      1  UNL1       -0.0510
     30  C         24.6180  -21.6120  -12.7950 C.2     1  UNL1        0.0490
@<TRIPOS>BOND
     1    29    28    1
     2    28    30    1
     3    28    27    2
     4    30    24    2
     5    27    26    1
     6    23    22    1
     7    24    25    1
     8    24    22    1
     9    26    25    2
    10     3     4    2
    11     3     2    1
    12     4     5    1
    13    22    19    1
    14     2     1    2
    15     5    19    1
    16     5     6    2
    17    19    21    2
    18    19    20    2
    19     1     6    1
    20     1     7    1
    21     8     7    2
    22     7     9   am
    23     9    10    1
    24     9    11    1
    25    10    12    1
    26    18    11    2
    27    18    17    1
    28    11    14    1
    29    17    16    2
    30    12    13    1
    31    14    13    1
    32    14    15    2
    33    16    15    1
