@<TRIPOS>MOLECULE
13724_out_ligand_01.pdbqt
 34 37 0 0 0
SMALL
GASTEIGER

@<TRIPOS>ATOM
      1  N         24.5290  -22.4710   -9.7300 N.am    1  UNL1       -0.3160
      2  H         24.9960  -21.6070   -9.4910 H       1  UNL1        0.1700
      3  C         25.2250  -23.2810  -10.6010 C.2     1  UNL1        0.1770
      4  S         26.7940  -23.6360  -10.1430 S.2     1  UNL1       -0.0400
      5  N         24.5380  -23.6700  -11.7240 N.am    1  UNL1       -0.3330
      6  H         23.8710  -24.4130  -11.5010 H       1  UNL1        0.1680
      7  C         24.5390  -23.2760  -13.0770 C.2     1  UNL1        0.0340
      8  C         25.2320  -24.1230  -13.9590 C.2     1  UNL1        0.0310
      9  C         25.3060  -23.8460  -15.3270 C.2     1  UNL1        0.0270
     10  C         24.6780  -22.7070  -15.8240 C.2     1  UNL1        0.0740
     11  C         24.0040  -21.8400  -14.9640 C.2     1  UNL1        0.0270
     12  C         23.9350  -22.1300  -13.5960 C.2     1  UNL1        0.0310
     13  S         24.7550  -22.3300  -17.5530 S.O2    1  UNL1        0.2390
     14  O         24.4910  -20.9220  -17.7270 O.2     1  UNL1       -0.2060
     15  O         25.9170  -22.9810  -18.1160 O.2     1  UNL1       -0.2060
     16  N         23.4310  -23.1880  -18.1440 N.3     1  UNL1       -0.2250
     17  H         22.7530  -22.5260  -18.5260 H       1  UNL1        0.1360
     18  H         23.6860  -23.9070  -18.8200 H       1  UNL1        0.1360
     19  C         23.2870  -22.6750   -9.1660 C.2     1  UNL1        0.1510
     20  C         22.6570  -21.7730   -8.2800 C.2     1  UNL1        0.0710
     21  C         21.4500  -22.3510   -7.9690 C.2     1  UNL1        0.1160
     22  N         21.4010  -23.5190   -8.6740 N.pl3   1  UNL1       -0.2750
     23  N         22.5260  -23.7530   -9.3870 N.2     1  UNL1       -0.1540
     24  C         20.3320  -24.5110   -8.6580 C.3     1  UNL1        0.1890
     25  C         18.9590  -23.8820   -8.5510 C.2     1  UNL1       -0.0270
     26  C         18.1730  -24.2120   -7.4300 C.2     1  UNL1        0.0100
     27  C         16.9040  -23.6680   -7.2630 C.2     1  UNL1        0.0020
     28  C         16.4010  -22.7860   -8.2130 C.2     1  UNL1        0.0120
     29  C         17.1530  -22.4350   -9.3420 C.2     1  UNL1       -0.0250
     30  C         16.6200  -21.5430  -10.2880 C.2     1  UNL1        0.0120
     31  C         18.4500  -22.9800   -9.5300 C.2     1  UNL1       -0.0180
     32  C         17.3450  -21.1750  -11.4180 C.2     1  UNL1        0.0010
     33  C         18.6140  -21.6960  -11.6200 C.2     1  UNL1        0.0010
     34  C         19.1580  -22.5880  -10.6910 C.2     1  UNL1        0.0130
@<TRIPOS>BOND
     1    18    16    1
     2    17    16    1
     3    16    13    1
     4    15    13    2
     5    14    13    2
     6    13    10    1
     7    10     9    2
     8    10    11    1
     9     9     8    1
    10    11    12    2
    11     8     7    2
    12    12     7    1
    13     7     5    1
    14     5     6    1
    15     5     3    1
    16    33    32    1
    17    33    34    2
    18    32    30    2
    19    34    31    1
    20     3     4    2
    21     3     1    1
    22    30    29    1
    23     1     2    1
    24     1    19    1
    25    31    29    1
    26    31    25    2
    27    23    19    2
    28    23    22    1
    29    29    28    2
    30    19    20    1
    31    22    24    1
    32    22    21    1
    33    24    25    1
    34    25    26    1
    35    20    21    2
    36    28    27    1
    37    26    27    2
