@<TRIPOS>MOLECULE
13723_out_ligand_01.pdbqt
 35 38 0 0 0
SMALL
GASTEIGER

@<TRIPOS>ATOM
      1  N         18.4860  -23.5620   -6.4120 N.am    1  UNL1       -0.3220
      2  C         19.2740  -22.4580   -6.6710 C.2     1  UNL1        0.2560
      3  O         19.0910  -21.3220   -6.2430 O.2     1  UNL1       -0.2670
      4  H         18.7190  -24.4340   -6.8930 H       1  UNL1        0.1690
      5  C         20.4460  -22.6930   -7.5720 C.2     1  UNL1        0.0320
      6  C         21.4620  -21.7270   -7.5930 C.2     1  UNL1        0.0170
      7  C         22.5800  -21.8890   -8.4140 C.2     1  UNL1        0.0100
      8  C         22.7050  -23.0210   -9.2280 C.2     1  UNL1       -0.0300
      9  C         21.6990  -23.9970   -9.1900 C.2     1  UNL1        0.0100
     10  C         20.5780  -23.8380   -8.3680 C.2     1  UNL1        0.0170
     11  C         23.9220  -23.1980  -10.1140 C.3     1  UNL1        0.3110
     12  N         24.1910  -22.0430  -10.9910 N.3     1  UNL1        0.0970
     13  C         23.1990  -21.9990  -12.0930 C.3     1  UNL1        0.2770
     14  C         23.7460  -21.7790  -13.5190 C.3     1  UNL1        0.0690
     15  C         24.9060  -22.7090  -13.7590 C.2     1  UNL1       -0.0490
     16  C         25.1040  -23.3930  -14.9590 C.2     1  UNL1        0.0070
     17  C         25.8250  -22.8490  -12.7040 C.2     1  UNL1       -0.0240
     18  C         26.2110  -24.2330  -15.0990 C.2     1  UNL1        0.0010
     19  C         27.1210  -24.3800  -14.0490 C.2     1  UNL1        0.0010
     20  C         26.9340  -23.6840  -12.8530 C.2     1  UNL1        0.0090
     21  C         25.5880  -22.0160  -11.4670 C.3     1  UNL1        0.3110
     22  C         17.3090  -23.6470   -5.6250 C.2     1  UNL1        0.0500
     23  C         17.3450  -23.6490   -4.2250 C.2     1  UNL1        0.0300
     24  C         16.1660  -23.6960   -3.4750 C.2     1  UNL1        0.0020
     25  C         14.9290  -23.7330   -4.1100 C.2     1  UNL1        0.0010
     26  C         14.8680  -23.7420   -5.5030 C.2     1  UNL1        0.0190
     27  C         16.0490  -23.7220   -6.2670 C.2     1  UNL1        0.0580
     28  C         15.9620  -23.7840   -7.7610 C.2     1  UNL1        0.2530
     29  N         16.1280  -22.5950   -8.4440 N.am    1  UNL1       -0.3570
     30  H         16.1060  -21.7240   -7.9280 H       1  UNL1        0.1620
     31  O         15.7020  -24.8460   -8.3210 O.2     1  UNL1       -0.2680
     32  C         15.9460  -22.5170   -9.8810 C.3     1  UNL1        0.1230
     33  C         17.0230  -21.6490  -10.5310 C.3     1  UNL1        0.0190
     34  C         18.3510  -22.3820  -10.7320 C.3     1  UNL1       -0.0030
     35  C         19.5030  -21.4570  -11.0910 C.3     1  UNL1        0.0050
@<TRIPOS>BOND
     1    18    16    1
     2    18    19    2
     3    16    15    2
     4    19    20    1
     5    15    14    1
     6    15    17    1
     7    14    13    1
     8    20    17    2
     9    17    21    1
    10    13    12    1
    11    21    12    1
    12    35    34    1
    13    12    11    1
    14    34    33    1
    15    33    32    1
    16    11     8    1
    17    32    29    1
    18     8     9    2
    19     8     7    1
    20     9    10    1
    21    29    30    1
    22    29    28   am
    23     7     6    2
    24    10     5    2
    25    31    28    2
    26    28    27    1
    27     6     5    1
    28     5     2    1
    29     4     1    1
    30     2     1   am
    31     2     3    2
    32     1    22    1
    33    27    22    2
    34    27    26    1
    35    22    23    1
    36    26    25    2
    37    23    24    2
    38    25    24    1
