@<TRIPOS>MOLECULE
1373_out_ligand_01.pdbqt
 31 34 0 0 0
SMALL
GASTEIGER

@<TRIPOS>ATOM
      1  C         23.1790  -22.6520   -9.3080 C.2     1  UNL1       -0.0400
      2  C         22.8400  -21.6070   -8.4250 C.2     1  UNL1        0.0110
      3  C         21.6340  -21.6210   -7.7160 C.2     1  UNL1        0.0310
      4  C         20.7740  -22.6910   -7.8950 C.2     1  UNL1        0.0430
      5  C         21.1040  -23.7340   -8.7600 C.2     1  UNL1       -0.0290
      6  C         22.2990  -23.7340   -9.4650 C.2     1  UNL1        0.0180
      7  C         20.0540  -24.7960   -8.7560 C.2     1  UNL1        0.0610
      8  C         18.9610  -24.1640   -7.8850 C.2     1  UNL1        0.1370
      9  N         19.5160  -22.9240   -7.3090 N.am    1  UNL1       -0.3130
     10  C         18.9300  -22.1380   -6.3290 C.2     1  UNL1        0.2580
     11  O         19.4400  -21.1730   -5.7690 O.2     1  UNL1       -0.2670
     12  C         24.4970  -22.6370  -10.0350 C.3     1  UNL1        0.1620
     13  N         24.3700  -21.9420  -11.2970 N.am    1  UNL1       -0.3390
     14  C         25.0680  -22.4100  -12.3910 C.2     1  UNL1        0.3200
     15  O         25.8460  -23.3520  -12.3200 O.2     1  UNL1       -0.2470
     16  N         24.7700  -21.6620  -13.5090 N.am    1  UNL1       -0.3090
     17  H         24.2880  -20.7950  -13.3230 H       1  UNL1        0.1700
     18  H         23.4510  -21.5790  -11.4970 H       1  UNL1        0.1640
     19  C         25.2190  -21.8700  -14.8290 C.2     1  UNL1        0.0370
     20  C         26.4770  -21.4770  -15.2930 C.2     1  UNL1        0.0290
     21  C         26.8580  -21.7260  -16.6160 C.2     1  UNL1        0.0040
     22  C         25.9840  -22.3750  -17.4850 C.2     1  UNL1        0.0240
     23  C         24.7330  -22.7740  -17.0250 C.2     1  UNL1        0.0360
     24 CL         23.6480  -23.5780  -18.0920 Cl      1  UNL1       -0.0840
     25  C         24.3480  -22.5280  -15.7060 C.2     1  UNL1        0.0530
     26  C         17.5690  -22.5160   -5.8940 C.2     1  UNL1        0.0320
     27  C         17.4130  -23.2170   -4.6950 C.2     1  UNL1        0.0170
     28  C         16.1340  -23.5730   -4.2670 C.2     1  UNL1        0.0010
     29  C         15.0190  -23.2160   -5.0290 C.2     1  UNL1        0.0000
     30  C         15.1770  -22.4960   -6.2160 C.2     1  UNL1        0.0010
     31  C         16.4540  -22.1380   -6.6480 C.2     1  UNL1        0.0170
@<TRIPOS>BOND
     1    24    23    1
     2    22    23    2
     3    22    21    1
     4    23    25    1
     5    21    20    2
     6    25    19    2
     7    20    19    1
     8    19    16    1
     9    16    17    1
    10    16    14   am
    11    14    15    2
    12    14    13   am
    13    18    13    1
    14    13    12    1
    15    12     1    1
    16     6     1    2
    17     6     5    1
    18     1     2    1
    19     5     7    1
    20     5     4    2
    21     7     8    2
    22     2     3    2
    23     4     3    1
    24     4     9    1
    25     8     9    1
    26     9    10   am
    27    31    30    1
    28    31    26    2
    29    10    26    1
    30    10    11    2
    31    30    29    2
    32    26    27    1
    33    29    28    1
    34    27    28    2
