@<TRIPOS>MOLECULE
1375_out_ligand_01.pdbqt
 34 38 0 0 0
SMALL
GASTEIGER

@<TRIPOS>ATOM
      1  C         16.3250  -21.7300   -9.9600 C.3     1  UNL1        0.1210
      2  C         17.7000  -21.6950  -10.5830 C.2     1  UNL1       -0.0480
      3  C         18.4300  -22.8780  -10.7640 C.2     1  UNL1        0.0090
      4  C         19.6970  -22.8490  -11.3520 C.2     1  UNL1        0.0170
      5  C         20.2470  -21.6360  -11.7800 C.2     1  UNL1        0.0320
      6  C         19.5290  -20.4490  -11.5940 C.2     1  UNL1        0.0170
      7  C         18.2620  -20.4810  -11.0040 C.2     1  UNL1        0.0090
      8  C         21.5990  -21.6520  -12.4080 C.2     1  UNL1        0.2510
      9  O         21.8610  -20.8960  -13.3370 O.2     1  UNL1       -0.2680
     10  N         22.5130  -22.5260  -11.8610 N.am    1  UNL1       -0.3540
     11  H         22.3440  -22.8790  -10.9270 H       1  UNL1        0.1620
     12  C         23.9070  -22.4900  -12.2630 C.3     1  UNL1        0.1550
     13  C         24.8220  -22.3030  -11.0480 C.3     1  UNL1        0.1390
     14  C         26.2330  -22.8180  -11.2870 C.3     1  UNL1        0.0350
     15  C         26.9490  -21.5970  -11.8080 C.3     1  UNL1        0.0290
     16  C         26.3010  -20.4890  -11.0080 C.3     1  UNL1        0.1680
     17  O         24.9440  -20.8870  -10.7740 O.3     1  UNL1       -0.3840
     18  S         15.8670  -23.3940   -9.3950 S.3     1  UNL1       -0.0870
     19  C         16.0290  -23.2330   -7.6770 C.ar    1  UNL1        0.1700
     20  N         15.2380  -22.5160   -6.9130 N.ar    1  UNL1       -0.2220
     21  C         15.7250  -22.6710   -5.6410 C.ar    1  UNL1        0.0890
     22  C         15.2610  -22.1220   -4.4450 C.2     1  UNL1        0.0530
     23  C         16.8380  -23.5030   -5.6310 C.ar    1  UNL1        0.0830
     24  C         15.9770  -22.4640   -3.3100 C.2     1  UNL1        0.1180
     25  N         17.0630  -23.2720   -3.2940 N.2     1  UNL1       -0.2710
     26  C         17.5130  -23.8010   -4.4550 C.2     1  UNL1        0.1480
     27  N         17.0080  -23.8690   -6.9500 N.ar    1  UNL1       -0.3190
     28  C         18.0800  -24.7130   -7.4580 C.3     1  UNL1        0.1700
     29  C         19.3500  -23.9420   -7.7230 C.2     1  UNL1       -0.0400
     30  C         20.4010  -24.5440   -8.4350 C.2     1  UNL1        0.0090
     31  C         21.5780  -23.8410   -8.6990 C.2     1  UNL1        0.0010
     32  C         21.7180  -22.5260   -8.2620 C.2     1  UNL1        0.0000
     33  C         20.6820  -21.9130   -7.5620 C.2     1  UNL1        0.0010
     34  C         19.5040  -22.6140   -7.2960 C.2     1  UNL1        0.0090
@<TRIPOS>BOND
     1     9     8    2
     2     8    10   am
     3     8     5    1
     4    12    10    1
     5    12    13    1
     6    10    11    1
     7    15    14    1
     8    15    16    1
     9     5     6    2
    10     5     4    1
    11     6     7    1
    12     4     3    2
    13    14    13    1
    14    13    17    1
    15    16    17    1
    16     7     2    2
    17     3     2    1
    18     2     1    1
    19     1    18    1
    20    18    19    1
    21    31    30    1
    22    31    32    2
    23    30    29    2
    24    32    33    1
    25    29    28    1
    26    29    34    1
    27    19    27   ar
    28    19    20   ar
    29    33    34    2
    30    28    27    1
    31    27    23   ar
    32    20    21   ar
    33    21    23   ar
    34    21    22    1
    35    23    26    1
    36    26    25    2
    37    22    24    2
    38    24    25    1
