@<TRIPOS>MOLECULE
13754_out_ligand_01.pdbqt
 31 34 0 0 0
SMALL
GASTEIGER

@<TRIPOS>ATOM
      1  C         20.8110  -22.5460  -10.0950 C.2     1  UNL1        0.0320
      2  C         21.9100  -23.1980   -9.5240 C.2     1  UNL1        0.0170
      3  C         23.1160  -23.2880  -10.2240 C.2     1  UNL1        0.0100
      4  C         23.2430  -22.7160  -11.4970 C.2     1  UNL1       -0.0300
      5  C         22.1400  -22.0540  -12.0590 C.2     1  UNL1        0.0100
      6  C         20.9320  -21.9600  -11.3600 C.2     1  UNL1        0.0170
      7  C         19.5440  -22.4720   -9.3120 C.2     1  UNL1        0.2560
      8  O         18.5630  -21.9670   -9.8420 O.2     1  UNL1       -0.2670
      9  N         19.6320  -22.9600   -8.0200 N.am    1  UNL1       -0.3230
     10  H         20.5530  -23.2200   -7.6920 H       1  UNL1        0.1690
     11  C         18.5950  -23.0520   -7.0680 C.2     1  UNL1        0.0350
     12  C         18.3870  -22.1240   -6.0480 C.2     1  UNL1        0.0300
     13  C         17.3300  -22.2850   -5.1430 C.2     1  UNL1        0.0180
     14  C         16.4630  -23.3810   -5.2410 C.2     1  UNL1        0.0480
     15  C         16.6650  -24.3040   -6.2760 C.2     1  UNL1        0.0180
     16  C         17.7220  -24.1410   -7.1770 C.2     1  UNL1        0.0300
     17  C         15.3100  -23.5410   -4.2810 C.3     1  UNL1        0.4170
     18  F         14.2540  -24.2080   -4.8260 F       1  UNL1       -0.1660
     19  F         15.6390  -24.2290   -3.1530 F       1  UNL1       -0.1660
     20  F         14.8170  -22.3440   -3.8590 F       1  UNL1       -0.1660
     21  C         24.5470  -22.8200  -12.2620 C.3     1  UNL1        0.3110
     22  N         24.5820  -21.9870  -13.4760 N.3     1  UNL1        0.0970
     23  C         24.9680  -22.7970  -14.6410 C.3     1  UNL1        0.2770
     24  C         24.8170  -21.9920  -15.9390 C.3     1  UNL1        0.0690
     25  C         25.4710  -20.6370  -15.8540 C.2     1  UNL1       -0.0490
     26  C         25.7280  -19.9040  -17.0210 C.2     1  UNL1        0.0070
     27  C         25.7670  -20.0810  -14.5980 C.2     1  UNL1       -0.0240
     28  C         26.3000  -18.6350  -16.9420 C.2     1  UNL1        0.0010
     29  C         26.6130  -18.0870  -15.7010 C.2     1  UNL1        0.0010
     30  C         26.3510  -18.8070  -14.5340 C.2     1  UNL1        0.0090
     31  C         25.5300  -20.8630  -13.3210 C.3     1  UNL1        0.3110
@<TRIPOS>BOND
     1    26    28    1
     2    26    25    2
     3    28    29    2
     4    24    25    1
     5    24    23    1
     6    25    27    1
     7    29    30    1
     8    23    22    1
     9    27    30    2
    10    27    31    1
    11    22    31    1
    12    22    21    1
    13    21     4    1
    14     5     4    2
    15     5     6    1
    16     4     3    1
    17     6     1    2
    18     3     2    2
    19     1     2    1
    20     1     7    1
    21     8     7    2
    22     7     9   am
    23     9    10    1
    24     9    11    1
    25    16    11    2
    26    16    15    1
    27    11    12    1
    28    15    14    2
    29    12    13    2
    30    14    13    1
    31    14    17    1
    32    18    17    1
    33    17    20    1
    34    17    19    1
