@<TRIPOS>MOLECULE
1377_out_ligand_01.pdbqt
 35 38 0 0 0
SMALL
GASTEIGER

@<TRIPOS>ATOM
      1  C         22.0030  -21.8420   -9.9850 C.2     1  UNL1        0.2830
      2  O         21.7310  -21.8050   -8.7870 O.2     1  UNL1       -0.2650
      3  N         21.0700  -21.7590  -11.0110 N.am    1  UNL1       -0.3210
      4  H         21.4640  -21.8070  -11.9480 H       1  UNL1        0.1690
      5  C         19.6730  -21.6160  -10.9160 C.2     1  UNL1        0.0360
      6  C         18.9260  -20.7010  -11.6600 C.2     1  UNL1        0.0290
      7  C         17.5360  -20.6300  -11.5130 C.2     1  UNL1        0.0030
      8  C         16.8800  -21.4660  -10.6110 C.2     1  UNL1        0.0170
      9  C         17.6180  -22.3730   -9.8470 C.2     1  UNL1        0.0340
     10  C         19.0080  -22.4540  -10.0140 C.2     1  UNL1        0.0460
     11  C         16.9750  -23.2910   -8.8680 C.2     1  UNL1        0.2520
     12  O         16.0680  -24.0310   -9.2330 O.2     1  UNL1       -0.2680
     13  N         17.4790  -23.2690   -7.5840 N.am    1  UNL1       -0.3520
     14  H         18.2670  -22.6750   -7.3760 H       1  UNL1        0.1630
     15  C         16.9040  -24.0800   -6.5120 C.3     1  UNL1        0.0840
     16  C         15.4000  -23.8130   -6.3620 C.3     1  UNL1        0.0250
     17  C         15.0150  -22.4980   -5.6840 C.3     1  UNL1        0.0020
     18  C         15.2290  -22.5360   -4.1740 C.3     1  UNL1        0.0000
     19  C         16.6320  -22.1710   -3.7020 C.3     1  UNL1        0.0000
     20  C         17.7970  -22.5570   -4.6050 C.3     1  UNL1        0.0020
     21  C         17.7170  -23.9580   -5.2130 C.3     1  UNL1        0.0250
     22  C         23.3620  -21.9850  -10.4900 C.ar    1  UNL1        0.1890
     23  N         24.3510  -21.1880  -10.1280 N.ar    1  UNL1       -0.1360
     24  N         25.5380  -21.5300  -10.7420 N.ar    1  UNL1       -0.1440
     25  C         25.4060  -22.5750  -11.5380 C.ar    1  UNL1        0.1230
     26  S         23.8020  -23.1990  -11.6120 S.2     1  UNL1       -0.0440
     27  C         26.5090  -23.1770  -12.3490 C.3     1  UNL1        0.2440
     28  O         26.7960  -22.2690  -13.4120 O.2     1  UNL1       -0.3450
     29  C         26.0830  -22.4220  -14.5680 C.2     1  UNL1        0.0690
     30  C         25.8030  -23.7480  -14.9060 C.2     1  UNL1        0.0370
     31  C         25.0800  -24.0530  -16.0620 C.2     1  UNL1        0.0090
     32  C         24.6160  -23.0300  -16.8930 C.2     1  UNL1       -0.0620
     33  C         23.8680  -23.3520  -18.1530 C.3     1  UNL1        0.0480
     34  C         24.9130  -21.7030  -16.5630 C.2     1  UNL1        0.0090
     35  C         25.6390  -21.3990  -15.4050 C.2     1  UNL1        0.0370
@<TRIPOS>BOND
     1    33    32    1
     2    32    34    2
     3    32    31    1
     4    34    35    1
     5    31    30    2
     6    35    29    2
     7    30    29    1
     8    29    28    1
     9    28    27    1
    10    27    25    1
    11     4     3    1
    12     6     7    1
    13     6     5    2
    14    26    25   ar
    15    26    22   ar
    16    25    24   ar
    17     7     8    2
    18     3     5    1
    19     3     1   am
    20     5    10    1
    21    24    23   ar
    22     8     9    1
    23    22    23   ar
    24    22     1    1
    25    10     9    2
    26     1     2    2
    27     9    11    1
    28    12    11    2
    29    11    13   am
    30    13    14    1
    31    13    15    1
    32    15    16    1
    33    15    21    1
    34    16    17    1
    35    17    18    1
    36    21    20    1
    37    20    19    1
    38    18    19    1
