@<TRIPOS>MOLECULE
13772_out_ligand_01.pdbqt
 35 38 0 0 0
SMALL
GASTEIGER

@<TRIPOS>ATOM
      1  C         24.2710  -21.7480  -11.8540 C.2     1  UNL1        0.0800
      2  C         23.7830  -22.1570  -10.6120 C.2     1  UNL1        0.0270
      3  C         22.4070  -22.3210  -10.4340 C.2     1  UNL1        0.0310
      4  C         21.5130  -22.0720  -11.4870 C.2     1  UNL1        0.0340
      5  C         22.0150  -21.6410  -12.7170 C.2     1  UNL1        0.0310
      6  C         23.3920  -21.4700  -12.9020 C.2     1  UNL1        0.0270
      7  N         20.1460  -22.2700  -11.2240 N.am    1  UNL1       -0.3250
      8  C         19.1160  -21.3500  -11.3180 C.2     1  UNL1        0.2460
      9  O         19.2110  -20.1710  -11.6450 O.2     1  UNL1       -0.2710
     10  H         19.8560  -23.2160  -10.9900 H       1  UNL1        0.1690
     11  C         17.7560  -21.9470  -10.9300 C.3     1  UNL1        0.2780
     12  O         17.8230  -23.0930  -10.0880 O.2     1  UNL1       -0.3420
     13  C         17.8140  -22.8950   -8.7330 C.2     1  UNL1        0.0700
     14  C         18.9300  -22.6970   -7.9220 C.2     1  UNL1        0.0370
     15  C         18.7680  -22.4800   -6.5500 C.2     1  UNL1        0.0150
     16  C         17.4910  -22.4560   -5.9670 C.2     1  UNL1       -0.0260
     17  C         17.3160  -22.2390   -4.5900 C.2     1  UNL1        0.0120
     18  C         16.3580  -22.6530   -6.7850 C.2     1  UNL1       -0.0230
     19  C         16.0370  -22.2180   -4.0300 C.2     1  UNL1        0.0010
     20  C         14.9210  -22.4140   -4.8360 C.2     1  UNL1        0.0010
     21  C         15.0800  -22.6300   -6.2060 C.2     1  UNL1        0.0120
     22  C         16.5380  -22.8690   -8.1620 C.2     1  UNL1        0.0490
     23  S         26.0220  -21.5320  -12.0830 S.O2    1  UNL1        0.2630
     24  O         26.6560  -21.7540  -10.8000 O.2     1  UNL1       -0.2000
     25  O         26.2340  -20.3020  -12.8170 O.2     1  UNL1       -0.2000
     26  N         26.4490  -22.8520  -13.0480 N.pl3   1  UNL1       -0.2810
     27  H         26.5860  -23.6980  -12.4970 H       1  UNL1        0.1790
     28  C         25.8610  -22.9880  -14.3360 C.2     1  UNL1        0.0430
     29  C         25.2570  -24.1930  -14.6800 C.2     1  UNL1        0.0300
     30  C         24.6270  -24.3270  -15.9190 C.2     1  UNL1        0.0090
     31  C         24.5950  -23.2560  -16.8270 C.2     1  UNL1       -0.0560
     32  C         23.9030  -23.4340  -18.1500 C.3     1  UNL1        0.0490
     33  C         25.2230  -22.0420  -16.4840 C.2     1  UNL1       -0.0540
     34  C         25.8470  -21.9200  -15.2320 C.2     1  UNL1        0.0370
     35  C         25.2180  -20.8620  -17.4180 C.3     1  UNL1        0.0490
@<TRIPOS>BOND
     1    32    31    1
     2    35    33    1
     3    31    33    2
     4    31    30    1
     5    33    34    1
     6    30    29    2
     7    34    28    2
     8    29    28    1
     9    28    26    1
    10    26    27    1
    11    26    23    1
    12     6     5    1
    13     6     1    2
    14    25    23    2
    15     5     4    2
    16    23     1    1
    17    23    24    2
    18     1     2    1
    19     9     8    2
    20     4     7    1
    21     4     3    1
    22     8     7   am
    23     8    11    1
    24     7    10    1
    25    11    12    1
    26     2     3    2
    27    12    13    1
    28    13    22    2
    29    13    14    1
    30    22    18    1
    31    14    15    2
    32    18    21    1
    33    18    16    2
    34    15    16    1
    35    21    20    2
    36    16    17    1
    37    20    19    1
    38    17    19    2
