@<TRIPOS>MOLECULE
13795_out_ligand_01.pdbqt
 33 35 0 0 0
SMALL
GASTEIGER

@<TRIPOS>ATOM
      1  C         17.4230  -22.4000  -10.1590 C.2     1  UNL1        0.0800
      2  C         16.9840  -21.3690  -10.9940 C.2     1  UNL1        0.0250
      3  C         17.9040  -20.6950  -11.7980 C.2     1  UNL1        0.0030
      4  C         19.2520  -21.0600  -11.7740 C.2     1  UNL1        0.0170
      5  C         19.6840  -22.1100  -10.9500 C.2     1  UNL1        0.0330
      6  C         18.7680  -22.7790  -10.1330 C.2     1  UNL1        0.0420
      7  C         21.1170  -22.5130  -10.8870 C.2     1  UNL1        0.2560
      8  O         21.4080  -23.4920  -10.2120 O.2     1  UNL1       -0.2670
      9  N         21.9710  -21.7340  -11.6390 N.am    1  UNL1       -0.3220
     10  H         21.5500  -21.0330  -12.2480 H       1  UNL1        0.1690
     11  C         23.3790  -21.8300  -11.7630 C.2     1  UNL1        0.0510
     12  C         24.1950  -22.1410  -10.6670 C.2     1  UNL1        0.0300
     13  C         25.5840  -22.2290  -10.8000 C.2     1  UNL1        0.0020
     14  C         26.1850  -22.0050  -12.0320 C.2     1  UNL1        0.0010
     15  C         25.3950  -21.6910  -13.1340 C.2     1  UNL1        0.0200
     16  C         23.9950  -21.5980  -13.0150 C.2     1  UNL1        0.0640
     17  C         23.2720  -21.2550  -14.2730 C.2     1  UNL1        0.1780
     18  O         23.4480  -21.7800  -15.3580 O.2     1  UNL1       -0.6460
     19  O         22.3560  -20.2720  -14.1480 O.3     1  UNL1       -0.7730
     20  H         21.8860  -20.5300  -13.3230 H       1  UNL1        0.1670
     21  S         16.2620  -23.2620   -9.1320 S.O2    1  UNL1        0.2630
     22  O         15.6380  -24.2770   -9.9550 O.2     1  UNL1       -0.2000
     23  O         15.4600  -22.2920   -8.4180 O.2     1  UNL1       -0.2000
     24  N         17.2620  -24.0780   -8.0440 N.pl3   1  UNL1       -0.2810
     25  H         17.0310  -25.0700   -8.0010 H       1  UNL1        0.1790
     26  C         17.5940  -23.4280   -6.8260 C.2     1  UNL1        0.0430
     27  C         16.9480  -23.7790   -5.6470 C.2     1  UNL1        0.0300
     28  C         17.2570  -23.1080   -4.4630 C.2     1  UNL1        0.0090
     29  C         18.2110  -22.0770   -4.4480 C.2     1  UNL1       -0.0560
     30  C         18.5140  -21.3750   -3.1530 C.3     1  UNL1        0.0490
     31  C         18.8560  -21.7170   -5.6490 C.2     1  UNL1       -0.0540
     32  C         18.5380  -22.4010   -6.8320 C.2     1  UNL1        0.0370
     33  C         19.8850  -20.6190   -5.6880 C.3     1  UNL1        0.0490
@<TRIPOS>BOND
     1    18    17    2
     2    17    19    1
     3    17    16    1
     4    19    20    1
     5    15    16    1
     6    15    14    2
     7    16    11    2
     8    10     9    1
     9    14    13    1
    10     3     4    2
    11     3     2    1
    12     4     5    1
    13    11     9    1
    14    11    12    1
    15     9     7   am
    16     2     1    2
    17     5     7    1
    18     5     6    2
    19     7     8    2
    20    13    12    2
    21     1     6    1
    22     1    21    1
    23    22    21    2
    24    21    23    2
    25    21    24    1
    26    24    25    1
    27    24    26    1
    28    32    26    2
    29    32    31    1
    30    26    27    1
    31    33    31    1
    32    31    29    2
    33    27    28    2
    34    28    29    1
    35    29    30    1
