@<TRIPOS>MOLECULE
13798_out_ligand_01.pdbqt
 34 37 0 0 0
SMALL
GASTEIGER

@<TRIPOS>ATOM
      1  C         24.3700  -21.7310  -12.0440 C.2     1  UNL1        0.0750
      2  C         23.1070  -21.9640  -12.5910 C.2     1  UNL1        0.0270
      3  C         22.0070  -22.1100  -11.7430 C.2     1  UNL1        0.0310
      4  C         22.1550  -22.0180  -10.3510 C.2     1  UNL1        0.0350
      5  C         23.4230  -21.7680   -9.8190 C.2     1  UNL1        0.0310
      6  C         24.5300  -21.6180  -10.6630 C.2     1  UNL1        0.0270
      7  N         20.9950  -22.1830   -9.5740 N.am    1  UNL1       -0.3210
      8  C         20.4650  -23.3500   -9.0500 C.2     1  UNL1        0.2800
      9  O         20.9390  -24.4720   -9.1930 O.2     1  UNL1       -0.2650
     10  H         20.4590  -21.3480   -9.3610 H       1  UNL1        0.1690
     11  C         19.2460  -23.1110   -8.2900 C.ar    1  UNL1        0.1500
     12  O         19.3150  -23.1300   -6.9200 O.2     1  UNL1       -0.3040
     13  C         18.0640  -22.8850   -6.4480 C.ar    1  UNL1        0.0870
     14  C         17.7120  -22.8220   -5.1010 C.2     1  UNL1        0.0450
     15  C         17.1780  -22.7040   -7.4960 C.ar    1  UNL1        0.0070
     16  C         16.3640  -22.5560   -4.7990 C.2     1  UNL1       -0.0530
     17  C         15.9520  -22.4810   -3.3510 C.3     1  UNL1        0.0490
     18  C         15.4250  -22.3650   -5.8360 C.2     1  UNL1       -0.0550
     19  C         13.9760  -22.0800   -5.5320 C.3     1  UNL1        0.0490
     20  C         15.8310  -22.4390   -7.1860 C.2     1  UNL1        0.0220
     21  C         17.9420  -22.8510   -8.6950 C.ar    1  UNL1       -0.0090
     22  C         17.4580  -22.7500  -10.0950 C.3     1  UNL1        0.0520
     23  S         25.7630  -21.5180  -13.1250 S.O2    1  UNL1        0.2480
     24  O         26.3410  -22.8100  -13.4290 O.2     1  UNL1       -0.2050
     25  O         26.5830  -20.4790  -12.5320 O.2     1  UNL1       -0.2050
     26  N         25.1070  -20.8470  -14.4970 N.pl3   1  UNL1       -0.1480
     27  H         25.2690  -19.8520  -14.5780 H       1  UNL1        0.1490
     28  C         25.2990  -21.5300  -15.6900 C.cat   1  UNL1        0.2150
     29  N         26.4090  -21.1660  -16.3370 N.2     1  UNL1       -0.2300
     30  C         26.5580  -21.6970  -17.5630 C.2     1  UNL1        0.1220
     31  C         25.6270  -22.5230  -18.1530 C.2     1  UNL1        0.0460
     32  C         24.4920  -22.7850  -17.4120 C.2     1  UNL1        0.0350
     33  C         23.4050  -23.6550  -17.9680 C.3     1  UNL1        0.0700
     34  N         24.3040  -22.2710  -16.1810 N.2     1  UNL1       -0.2230
@<TRIPOS>BOND
     1    31    30    2
     2    31    32    1
     3    33    32    1
     4    30    29    1
     5    32    34    2
     6    29    28    2
     7    34    28    1
     8    28    26    1
     9    27    26    1
    10    26    23    1
    11    24    23    2
    12    23    25    2
    13    23     1    1
    14     2     1    2
    15     2     3    1
    16     1     6    1
    17     3     4    2
    18     6     5    2
    19     4     5    1
    20     4     7    1
    21    22    21    1
    22     7    10    1
    23     7     8   am
    24     9     8    2
    25     8    11    1
    26    21    11   ar
    27    21    15   ar
    28    11    12   ar
    29    15    20    1
    30    15    13   ar
    31    20    18    2
    32    12    13   ar
    33    13    14    1
    34    18    19    1
    35    18    16    1
    36    14    16    2
    37    16    17    1
