@<TRIPOS>MOLECULE
13802_out_ligand_01.pdbqt
 36 39 0 0 0
SMALL
GASTEIGER

@<TRIPOS>ATOM
      1  C         20.7020  -22.5550  -10.3830 C.2     1  UNL1        0.0330
      2  C         20.0590  -21.6180  -11.2330 C.2     1  UNL1        0.0180
      3  C         20.7150  -21.0730  -12.3440 C.2     1  UNL1        0.0190
      4  C         22.0140  -21.4810  -12.5670 C.2     1  UNL1        0.0480
      5  C         22.6510  -22.3850  -11.7350 C.2     1  UNL1        0.0490
      6  C         22.0290  -22.9400  -10.6300 C.2     1  UNL1        0.0350
      7  C         24.0050  -22.5780  -12.2490 C.2     1  UNL1        0.2620
      8  O         24.8310  -23.3130  -11.7440 O.2     1  UNL1       -0.2670
      9  N         24.1130  -21.7900  -13.3600 N.am    1  UNL1       -0.2760
     10  C         22.9610  -21.1010  -13.6150 C.2     1  UNL1        0.2620
     11  O         22.7130  -20.3190  -14.5120 O.2     1  UNL1       -0.2670
     12  C         19.9350  -23.0770   -9.2120 C.2     1  UNL1        0.2560
     13  N         19.0180  -22.1990   -8.6680 N.am    1  UNL1       -0.3220
     14  H         19.0100  -21.2470   -9.0380 H       1  UNL1        0.1690
     15  O         20.1910  -24.2070   -8.8150 O.2     1  UNL1       -0.2670
     16  C         18.1210  -22.4130   -7.5860 C.2     1  UNL1        0.0540
     17  C         18.5440  -22.3870   -6.2510 C.2     1  UNL1        0.0700
     18  C         17.6450  -22.6010   -5.1970 C.2     1  UNL1        0.1030
     19  C         16.2890  -22.8550   -5.4740 C.2     1  UNL1        0.1020
     20  C         15.8550  -22.8900   -6.8000 C.2     1  UNL1        0.0600
     21  C         16.7580  -22.6730   -7.8570 C.2     1  UNL1        0.0670
     22  O         17.9930  -22.5880   -3.8680 O.2     1  UNL1       -0.3530
     23  C         18.5220  -21.3820   -3.3320 C.3     1  UNL1        0.2100
     24  O         15.4780  -23.0540   -4.3850 O.2     1  UNL1       -0.3530
     25  C         14.6980  -24.2400   -4.3430 C.3     1  UNL1        0.2100
     26  C         16.2670  -22.7220   -9.2620 C.2     1  UNL1        0.1780
     27  O         16.5370  -21.9070  -10.1300 O.2     1  UNL1       -0.6460
     28  O         15.4730  -23.7740   -9.5220 O.3     1  UNL1       -0.7730
     29  H         16.0710  -24.5510   -9.5030 H       1  UNL1        0.1670
     30  C         25.3220  -21.6640  -14.1430 C.3     1  UNL1        0.1750
     31  C         25.1020  -22.0790  -15.5720 C.2     1  UNL1       -0.0220
     32  C         25.2440  -21.1710  -16.6260 C.2     1  UNL1        0.0120
     33  C         25.0540  -21.6000  -17.9350 C.2     1  UNL1        0.0200
     34  C         24.7320  -22.9290  -18.1500 C.2     1  UNL1        0.1160
     35  N         24.5970  -23.8380  -17.1600 N.2     1  UNL1       -0.2730
     36  C         24.7910  -23.3960  -15.8970 C.2     1  UNL1        0.1240
@<TRIPOS>BOND
     1    34    33    2
     2    34    35    1
     3    33    32    1
     4    35    36    2
     5    32    31    2
     6    36    31    1
     7    31    30    1
     8    11    10    2
     9    30     9    1
    10    10     9   am
    11    10     4    1
    12     9     7   am
    13     4     3    2
    14     4     5    1
    15     3     2    1
    16     7     8    2
    17     7     5    1
    18     5     6    2
    19     2     1    2
    20     6     1    1
    21     1    12    1
    22    27    26    2
    23    28    29    1
    24    28    26    1
    25    26    21    1
    26    12    15    2
    27    12    13   am
    28    14    13    1
    29    13    16    1
    30    21    16    2
    31    21    20    1
    32    16    17    1
    33    20    19    2
    34    17    18    2
    35    19    18    1
    36    19    24    1
    37    18    22    1
    38    24    25    1
    39    22    23    1
