@<TRIPOS>MOLECULE
13806_out_ligand_01.pdbqt
 34 37 0 0 0
SMALL
GASTEIGER

@<TRIPOS>ATOM
      1  C         21.6280  -23.3300   -8.7740 C.2     1  UNL1        0.0340
      2  C         21.2500  -22.2320   -7.9960 C.2     1  UNL1        0.0310
      3  C         20.0800  -22.2730   -7.2270 C.2     1  UNL1        0.0270
      4  C         19.2780  -23.4140   -7.2510 C.2     1  UNL1        0.0790
      5  C         19.6460  -24.5230   -8.0140 C.2     1  UNL1        0.0270
      6  C         20.8190  -24.4750   -8.7730 C.2     1  UNL1        0.0310
      7  N         22.7910  -23.3710   -9.5710 N.am    1  UNL1       -0.3270
      8  C         23.1090  -22.5660  -10.6510 C.2     1  UNL1        0.2260
      9  O         22.3900  -21.6910  -11.1320 O.2     1  UNL1       -0.2730
     10  H         23.5000  -24.0310   -9.2740 H       1  UNL1        0.1690
     11  C         24.4470  -22.8840  -11.3100 C.3     1  UNL1        0.1420
     12  C         25.2000  -21.6950  -11.8810 C.2     1  UNL1       -0.0380
     13  C         25.9130  -20.8770  -10.9850 C.2     1  UNL1        0.0080
     14  C         26.5960  -19.7550  -11.4410 C.2     1  UNL1        0.0010
     15  C         26.5780  -19.4340  -12.7950 C.2     1  UNL1        0.0120
     16  C         25.8830  -20.2310  -13.7150 C.2     1  UNL1       -0.0250
     17  C         25.8790  -19.8890  -15.0780 C.2     1  UNL1        0.0120
     18  C         25.1830  -21.3820  -13.2700 C.2     1  UNL1       -0.0190
     19  C         25.1960  -20.6660  -16.0120 C.2     1  UNL1        0.0010
     20  C         24.5100  -21.7990  -15.5930 C.2     1  UNL1        0.0010
     21  C         24.5060  -22.1530  -14.2430 C.2     1  UNL1        0.0130
     22  S         17.8030  -23.4830   -6.2670 S.O2    1  UNL1        0.2580
     23  O         17.4520  -24.8760   -6.1000 O.2     1  UNL1       -0.2010
     24  O         17.9470  -22.5920   -5.1370 O.2     1  UNL1       -0.2010
     25  N         16.6650  -22.8320   -7.3140 N.3     1  UNL1       -0.3150
     26  H         16.9160  -21.8890   -7.6170 H       1  UNL1        0.1720
     27  C         16.0590  -23.7160   -8.3210 C.3     1  UNL1        0.1370
     28  C         15.6380  -22.9090   -9.5550 C.3     1  UNL1        0.0580
     29  C         16.8030  -22.2900  -10.2910 C.2     1  UNL1       -0.0570
     30  C         17.9490  -23.0470  -10.5730 C.2     1  UNL1        0.0070
     31  C         19.0170  -22.4810  -11.2690 C.2     1  UNL1        0.0010
     32  C         18.9510  -21.1550  -11.6930 C.2     1  UNL1        0.0000
     33  C         17.8180  -20.3930  -11.4170 C.2     1  UNL1        0.0010
     34  C         16.7480  -20.9560  -10.7190 C.2     1  UNL1        0.0070
@<TRIPOS>BOND
     1    19    20    1
     2    19    17    2
     3    20    21    2
     4    17    16    1
     5    21    18    1
     6    16    18    1
     7    16    15    2
     8    18    12    2
     9    15    14    1
    10    12    11    1
    11    12    13    1
    12    32    33    2
    13    32    31    1
    14    14    13    2
    15    33    34    1
    16    11     8    1
    17    31    30    2
    18     9     8    2
    19    34    29    2
    20     8     7   am
    21    30    29    1
    22    29    28    1
    23     7    10    1
    24     7     1    1
    25    28    27    1
    26     1     6    2
    27     1     2    1
    28     6     5    1
    29    27    25    1
    30     5     4    2
    31     2     3    2
    32    26    25    1
    33    25    22    1
    34     4     3    1
    35     4    22    1
    36    22    23    2
    37    22    24    2
