@<TRIPOS>MOLECULE
13813_out_ligand_01.pdbqt
 32 34 0 0 0
SMALL
GASTEIGER

@<TRIPOS>ATOM
      1  C         18.8570  -22.8250  -10.3160 C.2     1  UNL1        0.0340
      2  C         19.5620  -23.8140   -9.6160 C.2     1  UNL1        0.0310
      3  C         20.9550  -23.7640   -9.5210 C.2     1  UNL1        0.0270
      4  C         21.6450  -22.7020  -10.1080 C.2     1  UNL1        0.0800
      5  C         20.9570  -21.7040  -10.8000 C.2     1  UNL1        0.0270
      6  C         19.5620  -21.7630  -10.8900 C.2     1  UNL1        0.0310
      7  N         17.4500  -22.9250  -10.3340 N.am    1  UNL1       -0.3330
      8  C         16.5780  -23.1850   -9.3340 C.2     1  UNL1        0.1790
      9  S         15.1830  -24.0450   -9.6800 S.2     1  UNL1       -0.0400
     10  H         17.0410  -22.9910  -11.2600 H       1  UNL1        0.1680
     11  N         16.7590  -22.7450   -8.0590 N.am    1  UNL1       -0.2990
     12  C         17.2480  -23.4780   -6.9820 C.2     1  UNL1        0.2580
     13  O         17.4050  -24.6900   -6.9280 O.2     1  UNL1       -0.2670
     14  H         17.0060  -21.7640   -8.0320 H       1  UNL1        0.1710
     15  C         17.6960  -22.6460   -5.8320 C.2     1  UNL1        0.0380
     16  C         18.7330  -21.7370   -6.0920 C.2     1  UNL1        0.0170
     17  C         19.1880  -20.8820   -5.0900 C.2     1  UNL1        0.0010
     18  C         18.6110  -20.9340   -3.8240 C.2     1  UNL1        0.0010
     19  C         17.5930  -21.8520   -3.5530 C.2     1  UNL1        0.0070
     20  C         17.1310  -22.7320   -4.5450 C.2     1  UNL1       -0.0460
     21  C         16.0700  -23.7320   -4.1830 C.3     1  UNL1        0.0490
     22  S         23.4140  -22.6310  -10.0020 S.O2    1  UNL1        0.2630
     23  O         23.8260  -21.2520   -9.8550 O.2     1  UNL1       -0.2000
     24  O         23.8330  -23.6370   -9.0480 O.2     1  UNL1       -0.2000
     25  N         23.8970  -23.2070  -11.5180 N.pl3   1  UNL1       -0.2810
     26  H         24.4910  -24.0290  -11.4120 H       1  UNL1        0.1790
     27  C         24.2780  -22.2530  -12.5010 C.2     1  UNL1        0.0420
     28  C         25.6230  -21.9120  -12.6390 C.2     1  UNL1        0.0300
     29  C         26.0100  -21.0010  -13.6220 C.2     1  UNL1        0.0020
     30  C         25.0530  -20.4380  -14.4660 C.2     1  UNL1        0.0000
     31  C         23.7090  -20.7870  -14.3300 C.2     1  UNL1        0.0020
     32  C         23.3200  -21.6980  -13.3460 C.2     1  UNL1        0.0300
@<TRIPOS>BOND
     1    30    31    2
     2    30    29    1
     3    31    32    1
     4    29    28    2
     5    32    27    2
     6    28    27    1
     7    27    25    1
     8    25    26    1
     9    25    22    1
    10    10     7    1
    11     6     5    1
    12     6     1    2
    13     5     4    2
    14     7     1    1
    15     7     8    1
    16     1     2    1
    17     4    22    1
    18     4     3    1
    19    22    23    2
    20    22    24    2
    21     9     8    2
    22     2     3    2
    23     8    11    1
    24    11    14    1
    25    11    12   am
    26    12    13    2
    27    12    15    1
    28    16    15    2
    29    16    17    1
    30    15    20    1
    31    17    18    2
    32    20    21    1
    33    20    19    2
    34    18    19    1
