@<TRIPOS>MOLECULE
1381_out_ligand_01.pdbqt
 36 39 0 0 0
SMALL
GASTEIGER

@<TRIPOS>ATOM
      1  C         21.2130  -21.8820  -11.1210 C.2     1  UNL1       -0.0190
      2  C         20.7560  -20.9560  -12.0590 C.2     1  UNL1        0.0130
      3  C         19.3940  -20.6610  -12.1440 C.2     1  UNL1        0.0090
      4  C         18.4630  -21.2760  -11.2900 C.2     1  UNL1       -0.0390
      5  C         17.0080  -20.9320  -11.4610 C.3     1  UNL1        0.0500
      6  C         18.9360  -22.2160  -10.3530 C.2     1  UNL1        0.0810
      7  C         20.3060  -22.5160  -10.2700 C.2     1  UNL1        0.0370
      8  C         22.6240  -22.1900  -11.0360 C.ar    1  UNL1        0.0470
      9  C         23.5090  -22.1120  -12.1020 C.ar    1  UNL1        0.1480
     10  N         24.7570  -22.4620  -11.5780 N.ar    1  UNL1       -0.1830
     11  N         23.1750  -21.7450  -13.3980 N.am    1  UNL1       -0.3110
     12  N         24.6450  -22.8970  -10.2910 N.ar    1  UNL1       -0.1670
     13  C         26.0470  -22.3850  -12.1380 C.2     1  UNL1        0.2460
     14  C         23.3720  -22.6950   -9.9510 C.ar    1  UNL1        0.0700
     15  C         26.1220  -21.7040  -13.4680 C.3     1  UNL1        0.1140
     16  O         27.0310  -22.8020  -11.5340 O.2     1  UNL1       -0.2710
     17  C         25.2880  -22.4430  -14.4840 C.3     1  UNL1        0.1120
     18  C         23.9070  -21.8590  -14.5410 C.2     1  UNL1        0.2230
     19  O         23.4070  -21.5180  -15.6120 O.2     1  UNL1       -0.2730
     20  H         22.2210  -21.4380  -13.5680 H       1  UNL1        0.1700
     21  C         22.9120  -23.0230   -8.5660 C.3     1  UNL1        0.0620
     22  C         22.5260  -21.7970   -7.7350 C.3     1  UNL1        0.0020
     23  C         21.0750  -21.8160   -7.2720 C.3     1  UNL1        0.0050
     24  S         17.8310  -23.0940   -9.2560 S.O2    1  UNL1        0.2460
     25  O         18.6210  -24.0340   -8.4870 O.2     1  UNL1       -0.2060
     26  O         16.6860  -23.5250  -10.0260 O.2     1  UNL1       -0.2060
     27  N         17.4070  -21.8540   -8.1730 N.pl3   1  UNL1       -0.1810
     28  H         18.2600  -21.3280   -7.9740 H       1  UNL1        0.1460
     29  C         16.8150  -22.2680   -6.9310 C.2     1  UNL1        0.0230
     30  C         15.4530  -22.5600   -6.9440 C.2     1  UNL1        0.0240
     31  C         14.7950  -22.8730   -5.7550 C.2     1  UNL1        0.0020
     32  C         15.4930  -22.8650   -4.5460 C.2     1  UNL1        0.0070
     33  C         16.8520  -22.5260   -4.5160 C.2     1  UNL1       -0.0570
     34  C         17.5060  -22.2140   -5.7190 C.2     1  UNL1        0.0310
     35  C         17.6110  -22.5280   -3.2120 C.3     1  UNL1        0.0340
     36  C         18.6360  -21.4060   -3.1580 C.3     1  UNL1        0.0100
@<TRIPOS>BOND
     1    19    18    2
     2    18    17    1
     3    18    11   am
     4    17    15    1
     5    20    11    1
     6    15    13    1
     7    11     9    1
     8     3     2    1
     9     3     4    2
    10    13    10   am
    11    13    16    2
    12     9    10   ar
    13     9     8   ar
    14     2     1    2
    15    10    12   ar
    16     5     4    1
    17     4     6    1
    18     1     8    1
    19     1     7    1
    20     8    14   ar
    21     6     7    2
    22     6    24    1
    23    12    14   ar
    24    26    24    2
    25    14    21    1
    26    24    25    2
    27    24    27    1
    28    21    22    1
    29    27    28    1
    30    27    29    1
    31    22    23    1
    32    30    29    2
    33    30    31    1
    34    29    34    1
    35    31    32    2
    36    34    33    2
    37    32    33    1
    38    33    35    1
    39    35    36    1
