@<TRIPOS>MOLECULE
13831_out_ligand_01.pdbqt
 31 34 0 0 0
SMALL
GASTEIGER

@<TRIPOS>ATOM
      1  C         22.1640  -21.7050  -12.4250 C.2     1  UNL1        0.0320
      2  C         22.4520  -22.5830  -11.3770 C.2     1  UNL1        0.0190
      3  C         21.5110  -22.8060  -10.3630 C.2     1  UNL1        0.0300
      4  C         20.2730  -22.1640  -10.3920 C.2     1  UNL1        0.0340
      5  C         19.9780  -21.3080  -11.4620 C.2     1  UNL1        0.0300
      6  C         20.9170  -21.0750  -12.4720 C.2     1  UNL1        0.0190
      7  N         19.2720  -22.3410   -9.4170 N.am    1  UNL1       -0.3260
      8  C         19.4290  -22.8340   -8.1270 C.2     1  UNL1        0.2350
      9  O         20.5000  -23.1300   -7.6030 O.2     1  UNL1       -0.2720
     10  H         18.3600  -21.9590   -9.6370 H       1  UNL1        0.1690
     11  C         18.0820  -22.9810   -7.3700 C.3     1  UNL1        0.0680
     12  C         17.6040  -24.4510   -7.3470 C.3     1  UNL1        0.0240
     13  C         16.0910  -24.3610   -7.1890 C.3     1  UNL1        0.0020
     14  C         15.6830  -23.1020   -7.9430 C.3     1  UNL1        0.0020
     15  C         16.9760  -22.3400   -8.2430 C.3     1  UNL1        0.0240
     16  C         18.2100  -22.4460   -5.9320 C.2     1  UNL1       -0.0400
     17  C         17.7900  -23.1620   -4.8010 C.2     1  UNL1        0.0080
     18  C         17.9230  -22.6240   -3.5170 C.2     1  UNL1        0.0010
     19  C         18.4780  -21.3600   -3.3370 C.2     1  UNL1        0.0000
     20  C         18.9060  -20.6340   -4.4440 C.2     1  UNL1        0.0010
     21  C         18.7750  -21.1720   -5.7250 C.2     1  UNL1        0.0080
     22  C         23.1940  -21.4840  -13.4750 C.2     1  UNL1        0.2510
     23  O         22.9940  -20.6790  -14.3760 O.2     1  UNL1       -0.2680
     24  N         24.3240  -22.2650  -13.3820 N.am    1  UNL1       -0.3540
     25  H         24.3210  -23.0690  -12.7680 H       1  UNL1        0.1620
     26  C         25.3550  -22.2600  -14.4050 C.3     1  UNL1        0.1550
     27  C         26.5840  -21.4240  -14.0180 C.3     1  UNL1        0.1390
     28  C         26.9030  -21.3800  -12.5280 C.3     1  UNL1        0.0350
     29  C         26.4430  -20.0080  -12.1040 C.3     1  UNL1        0.0290
     30  C         26.6880  -19.1940  -13.3520 C.3     1  UNL1        0.1680
     31  O         26.3860  -20.0590  -14.4520 O.3     1  UNL1       -0.3840
@<TRIPOS>BOND
     1    31    27    1
     2    31    30    1
     3    26    27    1
     4    26    24    1
     5    23    22    2
     6    27    28    1
     7    22    24   am
     8    22     1    1
     9    24    25    1
    10    30    29    1
    11    28    29    1
    12     6     1    2
    13     6     5    1
    14     1     2    1
    15     5     4    2
    16     2     3    2
    17     4     3    1
    18     4     7    1
    19    10     7    1
    20     7     8   am
    21    15    14    1
    22    15    11    1
    23     8     9    2
    24     8    11    1
    25    14    13    1
    26    11    12    1
    27    11    16    1
    28    12    13    1
    29    16    21    2
    30    16    17    1
    31    21    20    1
    32    17    18    2
    33    20    19    2
    34    18    19    1
