@<TRIPOS>MOLECULE
13842_out_ligand_01.pdbqt
 35 39 0 0 0
SMALL
GASTEIGER

@<TRIPOS>ATOM
      1  C         19.7210  -22.2840  -10.4130 C.2     1  UNL1        0.0590
      2  C         18.7870  -21.4700  -11.0790 C.2     1  UNL1        0.0190
      3  C         19.1770  -20.7070  -12.1780 C.2     1  UNL1        0.0010
      4  C         20.4970  -20.7530  -12.6130 C.2     1  UNL1        0.0020
      5  C         21.4240  -21.5810  -11.9710 C.2     1  UNL1        0.0310
      6  C         21.0430  -22.3940  -10.8970 C.2     1  UNL1        0.0580
      7  N         21.9890  -23.2080  -10.1800 N.pl3   1  UNL1       -0.2800
      8  H         22.0100  -24.2030  -10.4550 H       1  UNL1        0.1790
      9  S         23.5390  -22.6880   -9.7540 S.O2    1  UNL1        0.2650
     10  O         24.0900  -23.6850   -8.8620 O.2     1  UNL1       -0.2000
     11  O         23.3820  -21.3040   -9.3600 O.2     1  UNL1       -0.2000
     12  C         24.4090  -22.6700  -11.3000 C.2     1  UNL1        0.1090
     13  C         24.1640  -23.6960  -12.2310 C.2     1  UNL1        0.0280
     14  C         24.8490  -23.7150  -13.4390 C.2     1  UNL1        0.0030
     15  C         25.7660  -22.7080  -13.7150 C.2     1  UNL1        0.0140
     16  C         25.9930  -21.6730  -12.7920 C.2     1  UNL1       -0.0060
     17  C         26.9070  -20.6520  -13.0900 C.2     1  UNL1        0.0150
     18  C         25.3070  -21.6320  -11.5550 C.2     1  UNL1        0.0900
     19  C         27.1210  -19.6220  -12.1850 C.2     1  UNL1        0.0200
     20  C         26.4070  -19.6470  -11.0070 C.2     1  UNL1        0.1170
     21  N         25.5230  -20.6170  -10.6910 N.2     1  UNL1       -0.2590
     22  C         19.2910  -23.0510   -9.2020 C.2     1  UNL1        0.2580
     23  O         19.8750  -24.0980   -8.9440 O.2     1  UNL1       -0.2670
     24  N         18.3010  -22.4450   -8.4470 N.am    1  UNL1       -0.3220
     25  H         18.0620  -21.5010   -8.7060 H       1  UNL1        0.1690
     26  C         17.6540  -22.9500   -7.2850 C.2     1  UNL1        0.0460
     27  C         16.7310  -24.0010   -7.3720 C.2     1  UNL1        0.0300
     28  C         16.0850  -24.4840   -6.2390 C.2     1  UNL1        0.0030
     29  C         16.3480  -23.9210   -4.9960 C.2     1  UNL1        0.0120
     30  C         17.2580  -22.8670   -4.8660 C.2     1  UNL1       -0.0240
     31  C         17.4960  -22.3210   -3.5930 C.2     1  UNL1        0.0120
     32  C         17.9330  -22.3580   -6.0090 C.2     1  UNL1        0.0010
     33  C         18.3950  -21.2740   -3.4140 C.2     1  UNL1        0.0010
     34  C         19.0710  -20.7590   -4.5090 C.2     1  UNL1        0.0010
     35  C         18.8460  -21.2920   -5.7830 C.2     1  UNL1        0.0140
@<TRIPOS>BOND
     1    15    14    2
     2    15    16    1
     3    14    13    1
     4    17    16    2
     5    17    19    1
     6    16    18    1
     7     4     3    2
     8     4     5    1
     9    13    12    2
    10    19    20    2
    11     3     2    1
    12     5     6    2
    13    18    12    1
    14    18    21    2
    15    12     9    1
    16     2     1    2
    17    20    21    1
    18     6     1    1
    19     6     7    1
    20     8     7    1
    21     1    22    1
    22     7     9    1
    23     9    11    2
    24     9    10    2
    25    22    23    2
    26    22    24   am
    27    25    24    1
    28    24    26    1
    29    27    26    2
    30    27    28    1
    31    26    32    1
    32    28    29    2
    33    32    35    1
    34    32    30    2
    35    35    34    2
    36    29    30    1
    37    30    31    1
    38    34    33    1
    39    31    33    2
