@<TRIPOS>MOLECULE
1387_out_ligand_01.pdbqt
 31 34 0 0 0
SMALL
GASTEIGER

@<TRIPOS>ATOM
      1  C         17.7710  -21.1200  -11.4640 C.3     1  UNL1        0.0710
      2  C         19.0440  -21.8410  -11.0740 C.2     1  UNL1        0.0410
      3  N         20.1010  -21.5410  -11.7710 N.2     1  UNL1       -0.2330
      4  C         21.2670  -22.1740  -11.4610 C.2     1  UNL1        0.1680
      5  C         22.5420  -22.0770  -11.9970 C.2     1  UNL1        0.0980
      6  C         23.2980  -22.9790  -11.2210 C.2     1  UNL1        0.1600
      7  N         22.5880  -23.6020  -10.2830 N.2     1  UNL1       -0.1770
      8  N         21.3280  -23.1100  -10.4280 N.pl3   1  UNL1       -0.2190
      9  C         20.1920  -23.4490   -9.6700 C.2     1  UNL1        0.0430
     10  C         20.4120  -24.4910   -8.6050 C.3     1  UNL1        0.0710
     11  C         19.0050  -22.8510   -9.9400 C.2     1  UNL1       -0.0050
     12  C         22.9500  -21.2290  -13.1090 C.2     1  UNL1        0.2570
     13  O         22.1660  -20.5480  -13.7600 O.2     1  UNL1       -0.2670
     14  N         24.3070  -21.2530  -13.3970 N.am    1  UNL1       -0.3520
     15  H         24.8890  -21.9340  -12.9360 H       1  UNL1        0.1630
     16  C         24.8490  -20.5870  -14.5750 C.3     1  UNL1        0.0880
     17  C         25.6470  -21.5720  -15.4330 C.3     1  UNL1        0.0250
     18  C         26.0450  -20.9600  -16.7770 C.3     1  UNL1        0.0020
     19  C         26.1040  -19.4330  -16.7600 C.3     1  UNL1        0.0050
     20  C         26.6130  -18.9030  -15.4150 C.3     1  UNL1       -0.0130
     21  C         26.7800  -17.3820  -15.4780 C.3     1  UNL1        0.0100
     22  C         25.6860  -19.3200  -14.2360 C.3     1  UNL1        0.0080
     23  C         26.5230  -19.4540  -12.9550 C.3     1  UNL1        0.0120
     24  C         17.7140  -23.0650   -9.1910 C.3     1  UNL1        0.0840
     25  C         17.8220  -22.9380   -7.6890 C.2     1  UNL1       -0.0150
     26  C         18.4110  -21.8190   -7.0780 C.2     1  UNL1        0.0100
     27  C         18.4750  -21.7220   -5.6860 C.2     1  UNL1        0.0010
     28  C         17.9400  -22.7310   -4.8840 C.2     1  UNL1        0.0030
     29  C         17.3330  -23.8340   -5.4760 C.2     1  UNL1        0.0430
     30  C         17.2740  -23.9260   -6.8640 C.2     1  UNL1        0.1220
     31  F         16.6820  -24.9990   -7.4100 F       1  UNL1       -0.2060
@<TRIPOS>BOND
     1    18    19    1
     2    18    17    1
     3    19    20    1
     4    21    20    1
     5    17    16    1
     6    20    22    1
     7    16    22    1
     8    16    14    1
     9    22    23    1
    10    13    12    2
    11    14    12   am
    12    14    15    1
    13    12     5    1
    14     5     4    2
    15     5     6    1
    16     3     4    1
    17     3     2    2
    18     1     2    1
    19     4     8    1
    20     6     7    2
    21     2    11    1
    22     8     7    1
    23     8     9    1
    24    11     9    2
    25    11    24    1
    26     9    10    1
    27    24    25    1
    28    25    26    2
    29    25    30    1
    30    31    30    1
    31    26    27    1
    32    30    29    2
    33    27    28    2
    34    29    28    1
