@<TRIPOS>MOLECULE
138_out_ligand_01.pdbqt
 32 34 0 0 0
SMALL
GASTEIGER

@<TRIPOS>ATOM
      1  C         20.9330  -23.2190   -8.5070 C.2     1  UNL1        0.0320
      2  C         20.0190  -24.2800   -8.4270 C.2     1  UNL1        0.0180
      3  C         18.9880  -24.2440   -7.4840 C.2     1  UNL1        0.0260
      4  C         18.8720  -23.1470   -6.6250 C.2     1  UNL1        0.0790
      5  C         19.7570  -22.0690   -6.7210 C.2     1  UNL1        0.0260
      6  C         20.7880  -22.1100   -7.6620 C.2     1  UNL1        0.0180
      7  S         17.5410  -23.0930   -5.4480 S.O2    1  UNL1        0.2630
      8  O         17.8990  -22.1150   -4.4410 O.2     1  UNL1       -0.2000
      9  O         17.1830  -24.4460   -5.0820 O.2     1  UNL1       -0.2000
     10  N         16.2870  -22.3960   -6.3460 N.pl3   1  UNL1       -0.2810
     11  H         15.4110  -22.4500   -5.8250 H       1  UNL1        0.1790
     12  C         16.2360  -22.6750   -7.7380 C.2     1  UNL1        0.0430
     13  C         15.5200  -23.7810   -8.1910 C.2     1  UNL1        0.0300
     14  C         15.4330  -24.0390   -9.5590 C.2     1  UNL1        0.0030
     15  C         16.0530  -23.1840  -10.4710 C.2     1  UNL1        0.0160
     16  C         16.7630  -22.0580  -10.0240 C.2     1  UNL1        0.0500
     17  C         16.8520  -21.8130   -8.6450 C.2     1  UNL1        0.0460
     18  C         17.4440  -21.1440  -11.0130 C.3     1  UNL1        0.4170
     19  F         17.3760  -21.6010  -12.2940 F       1  UNL1       -0.1660
     20  F         18.7700  -20.9930  -10.7410 F       1  UNL1       -0.1660
     21  F         16.9220  -19.8870  -11.0360 F       1  UNL1       -0.1660
     22  C         22.0470  -23.2110   -9.5010 C.2     1  UNL1        0.2560
     23  O         23.0980  -23.7610   -9.1950 O.2     1  UNL1       -0.2670
     24  N         21.7510  -22.6030  -10.7090 N.am    1  UNL1       -0.3230
     25  H         20.7940  -22.3130  -10.8570 H       1  UNL1        0.1690
     26  C         22.6180  -22.4170  -11.8070 C.2     1  UNL1        0.0350
     27  C         23.8510  -23.0610  -11.9460 C.2     1  UNL1        0.0320
     28  C         24.6550  -22.8170  -13.0640 C.2     1  UNL1        0.0440
     29  C         24.2260  -21.9280  -14.0400 C.2     1  UNL1        0.1160
     30  F         24.9980  -21.6950  -15.1100 F       1  UNL1       -0.2060
     31  C         23.0070  -21.2740  -13.9190 C.2     1  UNL1        0.0440
     32  C         22.2030  -21.5180  -12.8020 C.2     1  UNL1        0.0320
@<TRIPOS>BOND
     1    30    29    1
     2    29    31    2
     3    29    28    1
     4    31    32    1
     5    28    27    2
     6    32    26    2
     7    19    18    1
     8    27    26    1
     9    26    24    1
    10    21    18    1
    11    18    20    1
    12    18    16    1
    13    25    24    1
    14    24    22   am
    15    15    16    2
    16    15    14    1
    17    16    17    1
    18    14    13    2
    19    22    23    2
    20    22     1    1
    21    17    12    2
    22     1     2    2
    23     1     6    1
    24     2     3    1
    25    13    12    1
    26    12    10    1
    27     6     5    2
    28     3     4    2
    29     5     4    1
    30     4     7    1
    31    10    11    1
    32    10     7    1
    33     7     9    2
    34     7     8    2
