@<TRIPOS>MOLECULE
13902_out_ligand_01.pdbqt
 34 37 0 0 0
SMALL
GASTEIGER

@<TRIPOS>ATOM
      1  C         21.6670  -23.0680   -9.7660 C.2     1  UNL1        0.0340
      2  C         22.9840  -23.3310   -9.3790 C.2     1  UNL1        0.0310
      3  C         24.0510  -23.0220  -10.2300 C.2     1  UNL1        0.0270
      4  C         23.7960  -22.4540  -11.4790 C.2     1  UNL1        0.0800
      5  C         22.4890  -22.1670  -11.8730 C.2     1  UNL1        0.0270
      6  C         21.4300  -22.4770  -11.0160 C.2     1  UNL1        0.0310
      7  N         20.5390  -23.3450   -8.9670 N.am    1  UNL1       -0.3260
      8  C         20.1970  -22.7710   -7.7430 C.2     1  UNL1        0.2350
      9  O         20.8760  -21.9440   -7.1410 O.2     1  UNL1       -0.2720
     10  H         19.9450  -24.1010   -9.2890 H       1  UNL1        0.1690
     11  C         18.8450  -23.3070   -7.2110 C.3     1  UNL1        0.1440
     12  C         18.5150  -22.7980   -5.8060 C.2     1  UNL1       -0.0410
     13  C         17.9240  -23.6690   -4.8750 C.2     1  UNL1        0.0080
     14  C         17.6100  -23.2300   -3.5880 C.2     1  UNL1        0.0010
     15  C         17.8750  -21.9140   -3.2160 C.2     1  UNL1        0.0000
     16  C         18.4470  -21.0330   -4.1330 C.2     1  UNL1        0.0010
     17  C         18.7620  -21.4700   -5.4210 C.2     1  UNL1        0.0080
     18  C         17.6810  -23.1380   -8.1840 C.2     1  UNL1       -0.0410
     19  C         17.6830  -22.1360   -9.1680 C.2     1  UNL1        0.0080
     20  C         16.6000  -21.9870  -10.0380 C.2     1  UNL1        0.0010
     21  C         15.4990  -22.8350   -9.9360 C.2     1  UNL1        0.0000
     22  C         15.4810  -23.8350   -8.9670 C.2     1  UNL1        0.0010
     23  C         16.5630  -23.9860   -8.0960 C.2     1  UNL1        0.0080
     24  S         25.1520  -22.0580  -12.5540 S.O2    1  UNL1        0.2630
     25  O         25.9320  -20.9970  -11.9510 O.2     1  UNL1       -0.2000
     26  O         25.7750  -23.3060  -12.9440 O.2     1  UNL1       -0.2000
     27  N         24.3720  -21.4750  -13.9350 N.pl3   1  UNL1       -0.2810
     28  H         23.3610  -21.5690  -13.8460 H       1  UNL1        0.1790
     29  C         24.9490  -21.7680  -15.2000 C.2     1  UNL1        0.0420
     30  C         24.3640  -22.7370  -16.0140 C.2     1  UNL1        0.0300
     31  C         24.9040  -23.0050  -17.2720 C.2     1  UNL1        0.0020
     32  C         26.0250  -22.2990  -17.7140 C.2     1  UNL1        0.0000
     33  C         26.6030  -21.3250  -16.9010 C.2     1  UNL1        0.0020
     34  C         26.0640  -21.0580  -15.6410 C.2     1  UNL1        0.0300
@<TRIPOS>BOND
     1    32    31    2
     2    32    33    1
     3    31    30    1
     4    33    34    2
     5    30    29    2
     6    34    29    1
     7    29    27    1
     8    27    28    1
     9    27    24    1
    10    26    24    2
    11    24    25    2
    12    24     4    1
    13     5     4    2
    14     5     6    1
    15     4     3    1
    16     6     1    2
    17     3     2    2
    18    20    21    2
    19    20    19    1
    20    21    22    1
    21     1     2    1
    22     1     7    1
    23    10     7    1
    24    19    18    2
    25     7     8   am
    26    22    23    2
    27    18    23    1
    28    18    11    1
    29     8    11    1
    30     8     9    2
    31    11    12    1
    32    12    17    2
    33    12    13    1
    34    17    16    1
    35    13    14    2
    36    16    15    2
    37    14    15    1
