@<TRIPOS>MOLECULE
13907_out_ligand_01.pdbqt
 34 37 0 0 0
SMALL
GASTEIGER

@<TRIPOS>ATOM
      1  S         22.7420  -21.8740   -9.2070 S.3     1  UNL1       -0.1000
      2  C         23.8910  -21.7130  -10.5410 C.2     1  UNL1        0.1090
      3  N         25.2090  -21.7790  -10.2390 N.2     1  UNL1       -0.2340
      4  C         26.0870  -21.6670  -11.2480 C.2     1  UNL1        0.2350
      5  N         25.8150  -21.5090  -12.5400 N.2     1  UNL1       -0.2340
      6  C         24.4970  -21.4650  -12.7960 C.2     1  UNL1        0.1120
      7  S         23.9560  -21.2780  -14.4000 S.3     1  UNL1       -0.0800
      8  C         23.4650  -21.5570  -11.8710 C.2     1  UNL1        0.0470
      9  C         22.3230  -21.3070  -13.9120 C.2     1  UNL1        0.0650
     10  C         22.1870  -21.4560  -12.5430 C.2     1  UNL1       -0.0030
     11  C         20.8530  -21.4860  -11.9680 C.2     1  UNL1       -0.0240
     12  C         20.3170  -22.6910  -11.5060 C.2     1  UNL1        0.0130
     13  C         19.0330  -22.7210  -10.9570 C.2     1  UNL1        0.0070
     14  C         18.2710  -21.5490  -10.8720 C.2     1  UNL1       -0.0620
     15  C         16.9020  -21.5790  -10.2560 C.3     1  UNL1        0.0480
     16  C         18.8210  -20.3420  -11.3190 C.2     1  UNL1        0.0070
     17  C         20.1040  -20.3090  -11.8690 C.2     1  UNL1        0.0130
     18  C         22.5630  -23.6860   -9.1500 C.3     1  UNL1        0.1840
     19  C         21.2260  -24.1040   -8.5520 C.2     1  UNL1        0.2310
     20  O         20.8000  -25.2440   -8.7240 O.2     1  UNL1       -0.2720
     21  N         20.5630  -23.0840   -7.8950 N.am    1  UNL1       -0.3270
     22  H         21.0680  -22.1980   -7.8490 H       1  UNL1        0.1690
     23  C         19.3180  -23.1320   -7.2410 C.2     1  UNL1        0.0340
     24  C         19.0400  -22.1050   -6.3280 C.2     1  UNL1        0.0310
     25  C         17.8260  -22.0720   -5.6350 C.2     1  UNL1        0.0270
     26  C         16.8830  -23.0750   -5.8610 C.2     1  UNL1        0.0740
     27  C         17.1510  -24.1120   -6.7550 C.2     1  UNL1        0.0270
     28  C         18.3670  -24.1350   -7.4450 C.2     1  UNL1        0.0310
     29  S         15.3390  -23.0570   -4.9890 S.O2    1  UNL1        0.2390
     30  O         15.0850  -24.3860   -4.4800 O.2     1  UNL1       -0.2060
     31  O         14.3770  -22.3270   -5.7770 O.2     1  UNL1       -0.2060
     32  N         15.7250  -22.1270   -3.6390 N.3     1  UNL1       -0.2250
     33  H         15.8640  -21.1400   -3.8540 H       1  UNL1        0.1360
     34  H         16.5360  -22.5380   -3.1750 H       1  UNL1        0.1360
@<TRIPOS>BOND
     1     7     9    1
     2     7     6    1
     3     9    10    2
     4     6     5    2
     5     6     8    1
     6    10    11    1
     7    10     8    1
     8     5     4    1
     9    11    17    2
    10    11    12    1
    11     8     2    2
    12    17    16    1
    13    12    13    2
    14    16    14    2
    15     4     3    2
    16    13    14    1
    17    14    15    1
    18     2     3    1
    19     2     1    1
    20     1    18    1
    21    18    19    1
    22    20    19    2
    23    19    21   am
    24    21    22    1
    25    21    23    1
    26    28    23    2
    27    28    27    1
    28    23    24    1
    29    27    26    2
    30    24    25    2
    31    26    25    1
    32    26    29    1
    33    31    29    2
    34    29    30    2
    35    29    32    1
    36    33    32    1
    37    32    34    1
