@<TRIPOS>MOLECULE
13916_out_ligand_01.pdbqt
 32 34 0 0 0
SMALL
GASTEIGER

@<TRIPOS>ATOM
      1  C         22.5090  -22.7310   -9.9060 C.2     1  UNL1        0.1760
      2  S         22.6590  -21.8110   -8.5160 S.2     1  UNL1       -0.0410
      3  N         23.5100  -23.1300  -10.7550 N.am    1  UNL1       -0.3330
      4  H         24.2590  -23.5990  -10.2580 H       1  UNL1        0.1680
      5  C         23.8120  -22.7680  -12.0850 C.2     1  UNL1        0.0340
      6  C         23.1470  -21.7640  -12.7930 C.2     1  UNL1        0.0310
      7  C         23.4890  -21.4820  -14.1220 C.2     1  UNL1        0.0270
      8  C         24.4850  -22.2300  -14.7520 C.2     1  UNL1        0.0740
      9  C         25.1470  -23.2470  -14.0640 C.2     1  UNL1        0.0270
     10  C         24.8010  -23.5180  -12.7380 C.2     1  UNL1        0.0310
     11  S         24.9230  -21.8760  -16.4320 S.O2    1  UNL1        0.2390
     12  O         26.3620  -21.9110  -16.5490 O.2     1  UNL1       -0.2060
     13  O         24.0510  -22.6270  -17.3030 O.2     1  UNL1       -0.2060
     14  N         24.4980  -20.2500  -16.5530 N.3     1  UNL1       -0.2250
     15  H         25.2970  -19.6330  -16.6910 H       1  UNL1        0.1360
     16  H         23.8050  -20.1500  -17.2980 H       1  UNL1        0.1360
     17  N         21.2610  -23.2400  -10.1670 N.am    1  UNL1       -0.3320
     18  H         21.2680  -24.2610  -10.2440 H       1  UNL1        0.1680
     19  C         20.0060  -22.6300  -10.4140 C.2     1  UNL1        0.0480
     20  C         19.7750  -21.8130  -11.5310 C.2     1  UNL1        0.0300
     21  C         18.5190  -21.2490  -11.7660 C.2     1  UNL1        0.0020
     22  C         17.4710  -21.4770  -10.8820 C.2     1  UNL1        0.0010
     23  C         17.6900  -22.2400   -9.7370 C.2     1  UNL1        0.0180
     24  C         18.9590  -22.7870   -9.4770 C.2     1  UNL1        0.0420
     25  C         19.1670  -23.5610   -8.2200 C.2     1  UNL1        0.1940
     26  O         19.6740  -24.6790   -8.2700 O.2     1  UNL1       -0.2870
     27  C         18.8030  -23.0040   -6.8920 C.2     1  UNL1        0.0150
     28  C         17.9200  -23.6730   -6.0340 C.2     1  UNL1        0.0150
     29  C         17.5920  -23.1080   -4.7990 C.2     1  UNL1        0.0010
     30  C         18.1320  -21.8770   -4.4270 C.2     1  UNL1        0.0000
     31  C         18.9920  -21.1990   -5.2910 C.2     1  UNL1        0.0010
     32  C         19.3230  -21.7580   -6.5260 C.2     1  UNL1        0.0150
@<TRIPOS>BOND
     1    13    11    2
     2    16    14    1
     3    15    14    1
     4    14    11    1
     5    12    11    2
     6    11     8    1
     7     8     7    2
     8     8     9    1
     9     7     6    1
    10     9    10    2
    11     6     5    2
    12    10     5    1
    13     5     3    1
    14    21    20    1
    15    21    22    2
    16    20    19    2
    17    22    23    1
    18     3     4    1
    19     3     1    1
    20    19    17    1
    21    19    24    1
    22    18    17    1
    23    17     1    1
    24     1     2    2
    25    23    24    2
    26    24    25    1
    27    26    25    2
    28    25    27    1
    29    27    32    2
    30    27    28    1
    31    32    31    1
    32    28    29    2
    33    31    30    2
    34    29    30    1
