@<TRIPOS>MOLECULE
13926_out_ligand_01.pdbqt
 38 41 0 0 0
SMALL
GASTEIGER

@<TRIPOS>ATOM
      1  N         24.2490  -23.2780  -11.1070 N.am    1  UNL1       -0.3330
      2  H         24.8280  -24.0410  -10.7880 H       1  UNL1        0.1680
      3  C         24.4030  -22.9590  -12.4720 C.2     1  UNL1        0.0340
      4  C         25.3530  -23.6970  -13.1950 C.2     1  UNL1        0.0310
      5  C         25.5900  -23.4320  -14.5460 C.2     1  UNL1        0.0270
      6  C         24.8750  -22.4140  -15.1800 C.2     1  UNL1        0.0750
      7  C         23.9580  -21.6430  -14.4640 C.2     1  UNL1        0.0270
      8  C         23.7270  -21.9180  -13.1120 C.2     1  UNL1        0.0310
      9  S         25.1960  -22.0590  -16.8910 S.O2    1  UNL1        0.2480
     10  O         24.1450  -21.1570  -17.3210 O.2     1  UNL1       -0.2050
     11  O         25.4240  -23.2970  -17.6060 O.2     1  UNL1       -0.2050
     12  N         26.5870  -21.1540  -16.8590 N.pl3   1  UNL1       -0.1480
     13  H         27.3290  -21.5650  -16.3060 H       1  UNL1        0.1490
     14  C         26.4540  -19.7860  -16.6640 C.cat   1  UNL1        0.2150
     15  N         26.5960  -19.4160  -15.3870 N.2     1  UNL1       -0.2300
     16  C         26.6260  -18.0870  -15.1720 C.2     1  UNL1        0.1210
     17  C         26.5630  -17.1520  -16.1790 C.2     1  UNL1        0.0390
     18  C         26.4740  -17.6600  -17.4530 C.2     1  UNL1        0.1210
     19  N         26.4380  -18.9770  -17.7240 N.2     1  UNL1       -0.2300
     20  C         23.2820  -22.9290  -10.1990 C.2     1  UNL1        0.1720
     21  S         23.1130  -21.5010   -9.3530 S.2     1  UNL1       -0.0410
     22  N         22.3080  -23.8740  -10.0060 N.am    1  UNL1       -0.3670
     23  H         21.7300  -24.0260  -10.8270 H       1  UNL1        0.1610
     24  C         21.7900  -24.3960   -8.7440 C.3     1  UNL1        0.1230
     25  C         20.2630  -24.3310   -8.6940 C.3     1  UNL1        0.0340
     26  C         19.6500  -22.9320   -8.4260 C.3     1  UNL1        0.0530
     27  C         18.8610  -22.2960   -9.5720 C.2     1  UNL1       -0.0500
     28  C         19.5770  -21.8010  -10.6800 C.2     1  UNL1        0.0080
     29  C         18.9230  -21.2070  -11.7610 C.2     1  UNL1        0.0010
     30  C         17.5370  -21.0910  -11.7550 C.2     1  UNL1        0.0000
     31  C         16.8090  -21.5630  -10.6660 C.2     1  UNL1        0.0010
     32  C         17.4660  -22.1570   -9.5840 C.2     1  UNL1        0.0080
     33  C         18.9580  -22.8550   -7.0670 C.2     1  UNL1       -0.0500
     34  C         19.1040  -21.6990   -6.2830 C.2     1  UNL1        0.0080
     35  C         18.5100  -21.6100   -5.0220 C.2     1  UNL1        0.0010
     36  C         17.7660  -22.6770   -4.5260 C.2     1  UNL1        0.0000
     37  C         17.6160  -23.8320   -5.2890 C.2     1  UNL1        0.0010
     38  C         18.2090  -23.9240   -6.5490 C.2     1  UNL1        0.0080
@<TRIPOS>BOND
     1    19    18    2
     2    19    14    1
     3    11     9    2
     4    18    17    1
     5    10     9    2
     6     9    12    1
     7     9     6    1
     8    12    14    1
     9    12    13    1
    10    14    15    2
    11    17    16    2
    12    15    16    1
    13     6     5    2
    14     6     7    1
    15     5     4    1
    16     7     8    2
    17     4     3    2
    18     8     3    1
    19     3     1    1
    20    29    30    2
    21    29    28    1
    22    30    31    1
    23     1     2    1
    24     1    20    1
    25    23    22    1
    26    28    27    2
    27    31    32    2
    28    20    22    1
    29    20    21    2
    30    22    24    1
    31    32    27    1
    32    27    26    1
    33    24    25    1
    34    25    26    1
    35    26    33    1
    36    33    38    2
    37    33    34    1
    38    38    37    1
    39    34    35    2
    40    37    36    2
    41    35    36    1
