@<TRIPOS>MOLECULE
13920_out_ligand_01.pdbqt
 32 35 0 0 0
SMALL
GASTEIGER

@<TRIPOS>ATOM
      1  C         19.6140  -23.3240   -9.1050 C.2     1  UNL1        0.0320
      2  C         19.9000  -22.5520  -10.2350 C.2     1  UNL1        0.0190
      3  C         21.1970  -22.5380  -10.7630 C.2     1  UNL1        0.0300
      4  C         22.2190  -23.2940  -10.1750 C.2     1  UNL1        0.0340
      5  C         21.9240  -24.0750   -9.0580 C.2     1  UNL1        0.0300
      6  C         20.6270  -24.0950   -8.5280 C.2     1  UNL1        0.0190
      7  N         23.4920  -23.2200  -10.7700 N.am    1  UNL1       -0.3250
      8  C         24.4150  -22.1870  -10.6920 C.2     1  UNL1        0.2540
      9  O         24.2860  -21.1480  -10.0510 O.2     1  UNL1       -0.2700
     10  H         23.7570  -23.9830  -11.3850 H       1  UNL1        0.1690
     11  C         25.7200  -22.5140  -11.4460 C.3     1  UNL1        0.2450
     12  C         26.5850  -21.2730  -11.6350 C.3     1  UNL1        0.2180
     13  O         26.0140  -20.3610  -12.5810 O.2     1  UNL1       -0.3450
     14  C         25.5540  -21.0080  -13.6960 C.2     1  UNL1        0.1020
     15  C         25.2920  -20.2190  -14.8140 C.2     1  UNL1        0.0390
     16  C         25.3340  -22.3850  -13.7460 C.2     1  UNL1        0.1030
     17  C         24.8400  -20.8100  -15.9940 C.2     1  UNL1        0.0030
     18  C         24.6470  -22.1910  -16.0530 C.2     1  UNL1        0.0030
     19  C         24.8950  -22.9800  -14.9280 C.2     1  UNL1        0.0400
     20  O         25.5170  -23.2190  -12.6750 O.2     1  UNL1       -0.3310
     21  C         18.2510  -23.3770   -8.5070 C.2     1  UNL1        0.2520
     22  N         18.0150  -24.4090   -7.6250 N.am    1  UNL1       -0.3490
     23  H         18.6610  -25.1860   -7.6040 H       1  UNL1        0.1630
     24  O         17.4040  -22.5520   -8.8300 O.2     1  UNL1       -0.2680
     25  C         16.6940  -24.6380   -7.0590 C.3     1  UNL1        0.1140
     26  C         15.5840  -24.3650   -8.0800 C.3     1  UNL1        0.0370
     27  C         16.5350  -23.8000   -5.8010 C.2     1  UNL1       -0.0360
     28  C         15.2830  -23.2490   -5.4860 C.2     1  UNL1        0.0090
     29  C         15.1080  -22.4950   -4.3230 C.2     1  UNL1        0.0010
     30  C         16.1790  -22.2890   -3.4570 C.2     1  UNL1        0.0000
     31  C         17.4250  -22.8380   -3.7500 C.2     1  UNL1        0.0010
     32  C         17.6020  -23.5930   -4.9120 C.2     1  UNL1        0.0090
@<TRIPOS>BOND
     1    18    17    2
     2    18    19    1
     3    17    15    1
     4    19    16    2
     5    15    14    2
     6    16    14    1
     7    16    20    1
     8    14    13    1
     9    20    11    1
    10    13    12    1
    11    12    11    1
    12    11     8    1
    13    10     7    1
    14     7     8   am
    15     7     4    1
    16     3     2    1
    17     3     4    2
    18     8     9    2
    19     2     1    2
    20     4     5    1
    21     1     6    1
    22     1    21    1
    23     5     6    2
    24    24    21    2
    25    21    22   am
    26    26    25    1
    27    22    23    1
    28    22    25    1
    29    25    27    1
    30    27    28    2
    31    27    32    1
    32    28    29    1
    33    32    31    2
    34    29    30    2
    35    31    30    1
