@<TRIPOS>MOLECULE
13943_out_ligand_01.pdbqt
 36 39 0 0 0
SMALL
GASTEIGER

@<TRIPOS>ATOM
      1  N         20.9020  -23.4070   -9.7770 N.pl3   1  UNL1       -0.3460
      2  C         22.2160  -23.2840  -10.1570 C.2     1  UNL1        0.1040
      3  C         22.2860  -22.3420  -11.1570 C.2     1  UNL1       -0.0080
      4  C         20.9620  -21.8610  -11.3860 C.2     1  UNL1        0.0020
      5  C         20.4030  -20.9020  -12.2580 C.2     1  UNL1        0.0140
      6  C         19.0280  -20.6490  -12.2250 C.2     1  UNL1        0.0010
      7  C         18.2030  -21.3350  -11.3400 C.2     1  UNL1        0.0020
      8  C         18.7260  -22.2910  -10.4650 C.2     1  UNL1        0.0300
      9  C         20.1100  -22.5400  -10.5020 C.2     1  UNL1        0.0450
     10  C         23.4760  -21.9550  -11.8490 C.2     1  UNL1        0.0160
     11  C         23.5810  -21.8050  -13.1810 C.2     1  UNL1        0.0330
     12  C         24.7730  -21.3720  -13.8990 C.ar    1  UNL1        0.0750
     13  N         25.4440  -20.2840  -13.3790 N.ar    1  UNL1       -0.3060
     14  C         26.5550  -19.7170  -13.9430 C.ar    1  UNL1        0.3270
     15  H         25.1050  -19.8190  -12.5430 H       1  UNL1        0.1710
     16  O         27.1170  -18.7540  -13.4360 O.2     1  UNL1       -0.2470
     17  N         26.9920  -20.2940  -15.1020 N.ar    1  UNL1       -0.2730
     18  C         26.4140  -21.3730  -15.7240 C.ar    1  UNL1        0.2840
     19  H         27.8100  -19.8910  -15.5350 H       1  UNL1        0.1730
     20  O         26.8670  -21.8250  -16.7680 O.2     1  UNL1       -0.2650
     21  C         25.2270  -21.9040  -15.0480 C.ar    1  UNL1        0.1970
     22  N         24.5920  -23.0460  -15.6160 N.pl3   1  UNL1       -0.1070
     23  O         23.7130  -22.8330  -16.4570 O.2     1  UNL1       -0.5310
     24  O         25.0010  -24.1570  -15.2560 O.2     1  UNL1       -0.5310
     25  C         20.4460  -24.3450   -8.7640 C.3     1  UNL1        0.2310
     26  C         19.6710  -23.6460   -7.6630 C.2     1  UNL1        0.2400
     27  O         20.1600  -22.6860   -7.0710 O.2     1  UNL1       -0.2710
     28  N         18.4110  -24.1840   -7.4510 N.am    1  UNL1       -0.3260
     29  H         18.1760  -25.0230   -7.9720 H       1  UNL1        0.1690
     30  C         17.4260  -23.7320   -6.5480 C.2     1  UNL1        0.0350
     31  C         17.4600  -23.9670   -5.1690 C.2     1  UNL1        0.0320
     32  C         16.4500  -23.4660   -4.3410 C.2     1  UNL1        0.0440
     33  C         15.4110  -22.7240   -4.8900 C.2     1  UNL1        0.1160
     34  F         14.4510  -22.2330   -4.0940 F       1  UNL1       -0.2060
     35  C         15.3570  -22.4840   -6.2550 C.2     1  UNL1        0.0440
     36  C         16.3610  -22.9910   -7.0850 C.2     1  UNL1        0.0320
@<TRIPOS>BOND
     1    20    18    2
     2    23    22    2
     3    18    17   ar
     4    18    21   ar
     5    22    24    2
     6    22    21    1
     7    19    17    1
     8    17    14   ar
     9    21    12   ar
    10    14    16    2
    11    14    13   ar
    12    12    13   ar
    13    12    11    1
    14    13    15    1
    15    11    10    2
    16     5     6    1
    17     5     4    2
    18     6     7    2
    19    10     3    1
    20     4     3    1
    21     4     9    1
    22     7     8    1
    23     3     2    2
    24     9     8    2
    25     9     1    1
    26     2     1    1
    27     1    25    1
    28    25    26    1
    29    29    28    1
    30    26    28   am
    31    26    27    2
    32    28    30    1
    33    36    30    2
    34    36    35    1
    35    30    31    1
    36    35    33    2
    37    31    32    2
    38    33    32    1
    39    33    34    1
