@<TRIPOS>MOLECULE
13977_out_ligand_01.pdbqt
 32 34 0 0 0
SMALL
GASTEIGER

@<TRIPOS>ATOM
      1  C         21.1470  -23.3320   -8.3600 C.2     1  UNL1       -0.0580
      2  C         20.3510  -24.4870   -8.3840 C.2     1  UNL1        0.0090
      3  C         19.1490  -24.5360   -7.6770 C.2     1  UNL1        0.0250
      4  C         18.7450  -23.4260   -6.9340 C.2     1  UNL1        0.0740
      5  C         19.5230  -22.2660   -6.9020 C.2     1  UNL1        0.0250
      6  C         20.7250  -22.2240   -7.6110 C.2     1  UNL1        0.0090
      7  C         22.4560  -23.2890   -9.1100 C.3     1  UNL1        0.0480
      8  C         23.0320  -21.8790   -9.2310 C.3     1  UNL1        0.1080
      9  C         23.9120  -21.6980  -10.4570 C.2     1  UNL1        0.2220
     10  O         24.9030  -20.9740  -10.4130 O.2     1  UNL1       -0.2730
     11  N         23.4530  -22.3950  -11.5610 N.am    1  UNL1       -0.3270
     12  H         22.5620  -22.8660  -11.4650 H       1  UNL1        0.1690
     13  C         24.0630  -22.4880  -12.8310 C.2     1  UNL1        0.0370
     14  C         24.9120  -23.5830  -13.0520 C.2     1  UNL1        0.0290
     15  C         25.5660  -23.7470  -14.2770 C.2     1  UNL1        0.0050
     16  C         25.3780  -22.8140  -15.2910 C.2     1  UNL1        0.0420
     17  C         24.5380  -21.7290  -15.0700 C.2     1  UNL1        0.1180
     18  F         24.3630  -20.8290  -16.0470 F       1  UNL1       -0.2060
     19  C         23.8830  -21.5560  -13.8530 C.2     1  UNL1        0.0710
     20  S         17.2200  -23.4620   -6.0340 S.O2    1  UNL1        0.2410
     21  O         17.2900  -24.5530   -5.0890 O.2     1  UNL1       -0.2060
     22  O         16.8820  -22.1150   -5.6300 O.2     1  UNL1       -0.2060
     23  N         16.1210  -23.8570   -7.2670 N.3     1  UNL1       -0.2150
     24  H         16.4760  -24.7070   -7.7150 H       1  UNL1        0.1390
     25  C         15.9070  -22.7940   -8.2830 C.3     1  UNL1        0.1090
     26  C         16.2510  -23.3130   -9.6780 C.3     1  UNL1        0.0540
     27  C         17.2390  -22.4140  -10.3770 C.2     1  UNL1       -0.0570
     28  C         16.8750  -21.1190  -10.7680 C.2     1  UNL1        0.0070
     29  C         17.7890  -20.3000  -11.4320 C.2     1  UNL1        0.0010
     30  C         19.0710  -20.7670  -11.7130 C.2     1  UNL1        0.0000
     31  C         19.4410  -22.0560  -11.3330 C.2     1  UNL1        0.0010
     32  C         18.5300  -22.8760  -10.6680 C.2     1  UNL1        0.0070
@<TRIPOS>BOND
     1    18    17    1
     2    16    17    2
     3    16    15    1
     4    17    19    1
     5    15    14    2
     6    19    13    2
     7    14    13    1
     8    13    11    1
     9    30    29    2
    10    30    31    1
    11    11    12    1
    12    11     9   am
    13    29    28    1
    14    31    32    2
    15    28    27    2
    16    32    27    1
    17     9    10    2
    18     9     8    1
    19    27    26    1
    20    26    25    1
    21     8     7    1
    22     7     1    1
    23     2     1    2
    24     2     3    1
    25     1     6    1
    26    25    23    1
    27    24    23    1
    28     3     4    2
    29     6     5    2
    30    23    20    1
    31     4     5    1
    32     4    20    1
    33    20    22    2
    34    20    21    2
