@<TRIPOS>MOLECULE
14004_out_ligand_01.pdbqt
 27 29 0 0 0
SMALL
GASTEIGER

@<TRIPOS>ATOM
      1  N         19.7280  -22.4490   -8.6150 N.am    1  UNL1       -0.3260
      2  C         19.1960  -23.5920   -8.0270 C.2     1  UNL1        0.2350
      3  O         19.7240  -24.7010   -8.0290 O.2     1  UNL1       -0.2720
      4  H         19.1220  -21.6370   -8.6360 H       1  UNL1        0.1690
      5  C         20.9630  -22.3160   -9.2790 C.2     1  UNL1        0.0340
      6  C         22.0950  -22.0930   -8.4810 C.2     1  UNL1        0.0310
      7  C         23.3610  -21.9500   -9.0560 C.2     1  UNL1        0.0270
      8  C         23.4950  -22.0300  -10.4410 C.2     1  UNL1        0.0740
      9  C         22.3830  -22.2710  -11.2490 C.2     1  UNL1        0.0270
     10  C         21.1190  -22.4080  -10.6650 C.2     1  UNL1        0.0310
     11  S         25.0910  -21.8550  -11.1940 S.O2    1  UNL1        0.2390
     12  O         25.6180  -20.5580  -10.8450 O.2     1  UNL1       -0.2060
     13  O         25.0090  -22.3230  -12.5590 O.2     1  UNL1       -0.2060
     14  N         25.9820  -23.0240  -10.3720 N.3     1  UNL1       -0.2250
     15  H         25.4160  -23.8000  -10.0320 H       1  UNL1        0.1360
     16  H         26.7460  -23.3390  -10.9710 H       1  UNL1        0.1360
     17  C         17.8350  -23.3230   -7.3180 C.3     1  UNL1        0.0680
     18  C         16.9110  -22.4010   -8.1690 C.3     1  UNL1        0.0240
     19  C         15.8750  -23.3180   -8.8070 C.3     1  UNL1        0.0020
     20  C         15.6650  -24.3880   -7.7550 C.3     1  UNL1        0.0020
     21  C         17.0850  -24.6890   -7.2950 C.3     1  UNL1        0.0240
     22  C         18.0500  -22.6410   -5.9550 C.2     1  UNL1       -0.0400
     23  C         17.6170  -23.2900   -4.7810 C.2     1  UNL1        0.0080
     24  C         17.7950  -22.7090   -3.5240 C.2     1  UNL1        0.0010
     25  C         18.4240  -21.4750   -3.4110 C.2     1  UNL1        0.0000
     26  C         18.8850  -20.8270   -4.5540 C.2     1  UNL1        0.0010
     27  C         18.7070  -21.4080   -5.8140 C.2     1  UNL1        0.0080
@<TRIPOS>BOND
     1    13    11    2
     2     9    10    1
     3     9     8    2
     4    11    12    2
     5    11     8    1
     6    11    14    1
     7    16    14    1
     8    10     5    2
     9     8     7    1
    10    14    15    1
    11     5     1    1
    12     5     6    1
    13     7     6    2
    14    19    18    1
    15    19    20    1
    16     4     1    1
    17     1     2   am
    18    18    17    1
    19     3     2    2
    20     2    17    1
    21    20    21    1
    22    17    21    1
    23    17    22    1
    24    22    27    2
    25    22    23    1
    26    27    26    1
    27    23    24    2
    28    26    25    2
    29    24    25    1
