@<TRIPOS>MOLECULE
1402_out_ligand_01.pdbqt
 32 35 0 0 0
SMALL
GASTEIGER

@<TRIPOS>ATOM
      1  C         21.0620  -21.8770  -11.3320 C.2     1  UNL1        0.0340
      2  C         20.3730  -20.7260  -11.7140 C.2     1  UNL1        0.0300
      3  C         18.9880  -20.6350  -11.5330 C.2     1  UNL1        0.0090
      4  C         18.2660  -21.6990  -10.9810 C.2     1  UNL1       -0.0580
      5  C         18.9570  -22.8510  -10.5940 C.2     1  UNL1        0.0090
      6  C         20.3420  -22.9350  -10.7610 C.2     1  UNL1        0.0300
      7  N         22.4520  -22.0540  -11.4820 N.am    1  UNL1       -0.3270
      8  C         23.4550  -21.6710  -10.6090 C.2     1  UNL1        0.2260
      9  O         23.2980  -21.0550   -9.5580 O.2     1  UNL1       -0.2730
     10  H         22.7450  -22.5430  -12.3190 H       1  UNL1        0.1690
     11  C         24.8640  -21.9910  -11.0990 C.3     1  UNL1        0.1410
     12  C         24.9550  -22.4580  -12.5340 C.2     1  UNL1       -0.0490
     13  C         24.7280  -21.5660  -13.5910 C.2     1  UNL1        0.0100
     14  C         24.8030  -22.0000  -14.9190 C.2     1  UNL1        0.0370
     15  C         25.1100  -23.3300  -15.2080 C.2     1  UNL1        0.0680
     16  C         25.3400  -24.2190  -14.1560 C.2     1  UNL1        0.0370
     17  C         25.2680  -23.7900  -12.8300 C.2     1  UNL1        0.0100
     18  O         25.2110  -23.8810  -16.4550 O.2     1  UNL1       -0.3560
     19  C         24.4950  -23.2380  -17.5030 C.3     1  UNL1        0.2100
     20  C         16.7630  -21.6190  -10.8400 C.3     1  UNL1        0.0460
     21  C         16.1810  -22.7460   -9.9760 C.3     1  UNL1        0.0830
     22  C         16.4740  -22.5620   -8.5230 C.ar    1  UNL1        0.1050
     23  N         17.6140  -22.1690   -7.9990 N.ar    1  UNL1       -0.2330
     24  C         17.4000  -22.1230   -6.6420 C.ar    1  UNL1        0.0860
     25  C         18.2720  -21.7550   -5.6060 C.2     1  UNL1        0.0400
     26  C         16.1030  -22.5080   -6.3300 C.ar    1  UNL1        0.0620
     27  C         17.8040  -21.7680   -4.2780 C.2     1  UNL1       -0.0600
     28  C         18.7320  -21.3990   -3.1550 C.3     1  UNL1        0.0480
     29  C         16.4890  -22.1760   -4.0060 C.2     1  UNL1        0.0090
     30  C         15.6060  -22.5480   -5.0270 C.2     1  UNL1        0.0320
     31  N         15.5360  -22.7940   -7.5440 N.ar    1  UNL1       -0.3430
     32  H         14.5790  -23.0740   -7.7010 H       1  UNL1        0.1670
@<TRIPOS>BOND
     1    19    18    1
     2    18    15    1
     3    15    14    2
     4    15    16    1
     5    14    13    1
     6    16    17    2
     7    13    12    2
     8    17    12    1
     9    12    11    1
    10    10     7    1
    11     2     3    1
    12     2     1    2
    13     3     4    2
    14     7     1    1
    15     7     8   am
    16     1     6    1
    17    11     8    1
    18     4    20    1
    19     4     5    1
    20    20    21    1
    21     6     5    2
    22     8     9    2
    23    21    22    1
    24    22    23   ar
    25    22    31   ar
    26    23    24   ar
    27    32    31    1
    28    31    26   ar
    29    24    26   ar
    30    24    25    1
    31    26    30    1
    32    25    27    2
    33    30    29    2
    34    27    29    1
    35    27    28    1
