@<TRIPOS>MOLECULE
1403_out_ligand_01.pdbqt
 29 32 0 0 0
SMALL
GASTEIGER

@<TRIPOS>ATOM
      1  C         17.1790  -21.8090  -10.6930 C.ar    1  UNL1        0.1580
      2  N         17.1350  -21.0360  -11.7850 N.ar    1  UNL1       -0.1110
      3  O         18.4740  -20.9610  -12.1740 O.2     1  UNL1       -0.1890
      4  C         19.1930  -21.7010  -11.2720 C.ar    1  UNL1        0.2230
      5  C         20.6060  -21.8750  -11.3260 C.2     1  UNL1        0.0890
      6  C         21.5350  -21.4020  -12.2290 C.2     1  UNL1        0.0480
      7  C         22.8160  -21.8710  -11.8210 C.2     1  UNL1       -0.0050
      8  C         24.1200  -21.7220  -12.3320 C.2     1  UNL1        0.0370
      9  C         25.1820  -22.3370  -11.6610 C.2     1  UNL1        0.0350
     10 CL         26.7810  -22.1620  -12.2770 Cl      1  UNL1       -0.0840
     11  C         24.9690  -23.0870  -10.5060 C.2     1  UNL1        0.0260
     12  C         23.6830  -23.2470   -9.9830 C.2     1  UNL1        0.0320
     13  C         22.6280  -22.6270  -10.6620 C.2     1  UNL1        0.0430
     14  N         21.2800  -22.6110  -10.3850 N.pl3   1  UNL1       -0.3520
     15  N         18.4330  -22.2470  -10.3440 N.ar    1  UNL1       -0.2030
     16  H         20.8380  -23.0710   -9.6000 H       1  UNL1        0.1660
     17  C         15.9690  -22.1750   -9.9190 C.3     1  UNL1        0.1030
     18  C         16.1770  -23.4220   -9.0530 C.3     1  UNL1        0.1330
     19  N         16.3320  -23.1320   -7.6250 N.am    1  UNL1       -0.3520
     20  C         15.2570  -22.3970   -6.9670 C.3     1  UNL1        0.1520
     21  C         17.5440  -23.4720   -7.0260 C.2     1  UNL1        0.2530
     22  O         18.3910  -24.1750   -7.5710 O.2     1  UNL1       -0.2670
     23  C         17.8540  -22.9470   -5.6820 C.2     1  UNL1        0.0350
     24  C         17.6010  -23.7240   -4.5420 C.2     1  UNL1        0.0170
     25  C         17.8710  -23.2040   -3.2770 C.2     1  UNL1        0.0040
     26  C         18.3790  -21.9110   -3.1540 C.2     1  UNL1        0.0420
     27  C         18.6030  -21.1430   -4.2950 C.2     1  UNL1        0.1170
     28  F         19.0810  -19.8980   -4.1650 F       1  UNL1       -0.2060
     29  C         18.3390  -21.6440   -5.5620 C.2     1  UNL1        0.0590
@<TRIPOS>BOND
     1     8     7    2
     2     8     9    1
     3    10     9    1
     4     6     7    1
     5     6     5    2
     6     3     2   ar
     7     3     4   ar
     8     7    13    1
     9     2     1   ar
    10     9    11    2
    11     5     4    1
    12     5    14    1
    13     4    15   ar
    14     1    15   ar
    15     1    17    1
    16    13    14    1
    17    13    12    2
    18    11    12    1
    19    14    16    1
    20    17    18    1
    21    18    19    1
    22    19    21   am
    23    19    20    1
    24    22    21    2
    25    21    23    1
    26    23    29    2
    27    23    24    1
    28    29    27    1
    29    24    25    2
    30    27    28    1
    31    27    26    2
    32    25    26    1
