@<TRIPOS>MOLECULE
14044_out_ligand_01.pdbqt
 36 39 0 0 0
SMALL
GASTEIGER

@<TRIPOS>ATOM
      1  C         23.5430  -22.2940  -12.2430 C.2     1  UNL1        0.0320
      2  C         22.2480  -21.8070  -12.4470 C.2     1  UNL1        0.0190
      3  C         21.2350  -22.0940  -11.5260 C.2     1  UNL1        0.0300
      4  C         21.5010  -22.8620  -10.3850 C.2     1  UNL1        0.0340
      5  C         22.8010  -23.3290  -10.1770 C.2     1  UNL1        0.0300
      6  C         23.8180  -23.0460  -11.0970 C.2     1  UNL1        0.0190
      7  N         20.4250  -23.0990   -9.5080 N.am    1  UNL1       -0.3260
      8  C         20.3330  -22.7660   -8.1570 C.2     1  UNL1        0.2350
      9  O         21.2170  -22.2150   -7.5090 O.2     1  UNL1       -0.2720
     10  H         19.6540  -23.6370   -9.8900 H       1  UNL1        0.1690
     11  C         18.9610  -23.1630   -7.5530 C.3     1  UNL1        0.1440
     12  C         17.7720  -22.9710   -8.4900 C.2     1  UNL1       -0.0410
     13  C         17.7540  -21.9610   -9.4650 C.2     1  UNL1        0.0080
     14  C         16.6450  -21.7890  -10.2960 C.2     1  UNL1        0.0010
     15  C         15.5350  -22.6190  -10.1610 C.2     1  UNL1        0.0000
     16  C         15.5340  -23.6220   -9.1960 C.2     1  UNL1        0.0010
     17  C         16.6420  -23.7970   -8.3650 C.2     1  UNL1        0.0080
     18  C         18.7170  -22.5410   -6.1760 C.2     1  UNL1       -0.0410
     19  C         19.1600  -21.2340   -5.9150 C.2     1  UNL1        0.0080
     20  C         18.9470  -20.6460   -4.6670 C.2     1  UNL1        0.0010
     21  C         18.2980  -21.3580   -3.6620 C.2     1  UNL1        0.0000
     22  C         17.8670  -22.6610   -3.9000 C.2     1  UNL1        0.0010
     23  C         18.0790  -23.2530   -5.1460 C.2     1  UNL1        0.0080
     24  C         24.5950  -21.9580  -13.2490 C.2     1  UNL1        0.2560
     25  O         25.7690  -22.0440  -12.9090 O.2     1  UNL1       -0.2670
     26  N         24.1210  -21.5350  -14.4770 N.am    1  UNL1       -0.3210
     27  H         23.1160  -21.3790  -14.5450 H       1  UNL1        0.1690
     28  C         24.8650  -21.2100  -15.6430 C.2     1  UNL1        0.0680
     29  C         25.5500  -19.9920  -15.7560 C.2     1  UNL1        0.0320
     30  C         26.2950  -19.6730  -16.8990 C.2     1  UNL1        0.0020
     31  C         26.3740  -20.5660  -17.9600 C.2     1  UNL1        0.0030
     32  C         25.7100  -21.7870  -17.8820 C.2     1  UNL1        0.0380
     33  C         24.9600  -22.1100  -16.7320 C.2     1  UNL1        0.1290
     34  N         24.2780  -23.4150  -16.7220 N.pl3   1  UNL1       -0.1130
     35  O         23.2260  -23.5250  -17.3670 O.2     1  UNL1       -0.5320
     36  O         24.7890  -24.3380  -16.0660 O.2     1  UNL1       -0.5320
@<TRIPOS>BOND
     1    31    32    2
     2    31    30    1
     3    32    33    1
     4    35    34    2
     5    30    29    2
     6    33    34    1
     7    33    28    2
     8    34    36    2
     9    29    28    1
    10    28    26    1
    11    27    26    1
    12    26    24   am
    13    24    25    2
    14    24     1    1
    15     2     1    2
    16     2     3    1
    17     1     6    1
    18     3     4    2
    19     6     5    2
    20     4     5    1
    21     4     7    1
    22    14    15    2
    23    14    13    1
    24    15    16    1
    25    10     7    1
    26     7     8   am
    27    13    12    2
    28    16    17    2
    29    12    17    1
    30    12    11    1
    31     8    11    1
    32     8     9    2
    33    11    18    1
    34    18    19    2
    35    18    23    1
    36    19    20    1
    37    23    22    2
    38    20    21    2
    39    22    21    1
