@<TRIPOS>MOLECULE
1405_out_ligand_01.pdbqt
 37 39 0 0 0
SMALL
GASTEIGER

@<TRIPOS>ATOM
      1  C         23.3920  -21.7320  -12.7130 C.2     1  UNL1       -0.0180
      2  C         22.2470  -21.2110  -13.3180 C.2     1  UNL1        0.0150
      3  C         20.9930  -21.3680  -12.7180 C.2     1  UNL1        0.0390
      4  C         20.8600  -22.0520  -11.5050 C.2     1  UNL1        0.0910
      5  C         22.0150  -22.5620  -10.8960 C.2     1  UNL1        0.1080
      6  C         23.2760  -22.4100  -11.4970 C.2     1  UNL1        0.0400
      7  S         21.9180  -23.4610   -9.3650 S.O2    1  UNL1        0.2480
      8  O         20.8450  -24.4240   -9.4750 O.2     1  UNL1       -0.2050
      9  O         23.2650  -23.8710   -9.0170 O.2     1  UNL1       -0.2050
     10  N         21.5440  -22.2320   -8.2350 N.pl3   1  UNL1       -0.1810
     11  H         22.3440  -22.1760   -7.6020 H       1  UNL1        0.1460
     12  C         20.3400  -22.4800   -7.4990 C.2     1  UNL1        0.0220
     13  C         19.5290  -23.5730   -7.8210 C.2     1  UNL1        0.0260
     14  C         18.3180  -23.7590   -7.1510 C.2     1  UNL1        0.0260
     15  C         17.9220  -22.8370   -6.1770 C.2     1  UNL1        0.0740
     16  C         18.7310  -21.7430   -5.8530 C.2     1  UNL1        0.0260
     17  C         19.9380  -21.5630   -6.5290 C.2     1  UNL1        0.0260
     18  S         16.3750  -23.0460   -5.3350 S.O2    1  UNL1        0.2390
     19  O         16.3320  -24.3850   -4.7940 O.2     1  UNL1       -0.2060
     20  O         15.3250  -22.5060   -6.1650 O.2     1  UNL1       -0.2060
     21  N         16.5440  -21.9700   -4.0530 N.3     1  UNL1       -0.2250
     22  H         16.0000  -21.1290   -4.2500 H       1  UNL1        0.1360
     23  H         17.5150  -21.7510   -3.8300 H       1  UNL1        0.1360
     24  O         19.6690  -22.2350  -10.8630 O.2     1  UNL1       -0.3540
     25  C         18.5980  -21.3590  -11.1900 C.3     1  UNL1        0.2100
     26  C         24.6800  -21.5860  -13.3490 C.ar    1  UNL1        0.0540
     27  C         24.9430  -21.8580  -14.6750 C.ar    1  UNL1        0.1880
     28  O         26.2580  -21.6120  -14.9220 O.2     1  UNL1       -0.1940
     29  N         26.8810  -21.1790  -13.7640 N.ar    1  UNL1       -0.1300
     30  C         25.9300  -21.1680  -12.8220 C.ar    1  UNL1        0.0770
     31  N         24.1200  -22.3160  -15.6790 N.am    1  UNL1       -0.3050
     32  C         24.4410  -23.3920  -16.4800 C.2     1  UNL1        0.2190
     33  C         23.3730  -23.6860  -17.5030 C.3     1  UNL1        0.1170
     34  O         25.4670  -24.0590  -16.4400 O.2     1  UNL1       -0.2740
     35  H         23.2450  -21.8290  -15.8170 H       1  UNL1        0.1710
     36  C         26.2660  -20.7330  -11.4370 C.3     1  UNL1        0.0580
     37  C         26.7570  -19.2940  -11.3790 C.3     1  UNL1        0.0110
@<TRIPOS>BOND
     1    33    32    1
     2    32    34    2
     3    32    31   am
     4    35    31    1
     5    31    27    1
     6    28    27   ar
     7    28    29   ar
     8    27    26   ar
     9    29    30   ar
    10    26    30   ar
    11    26     1    1
    12     2     3    1
    13     2     1    2
    14    30    36    1
    15     3     4    2
    16     1     6    1
    17     4     5    1
    18     4    24    1
    19     6     5    2
    20    36    37    1
    21    25    24    1
    22     5     7    1
    23     8     7    2
    24     7     9    2
    25     7    10    1
    26    10    11    1
    27    10    12    1
    28    13    12    2
    29    13    14    1
    30    12    17    1
    31    14    15    2
    32    17    16    2
    33    15    16    1
    34    15    18    1
    35    20    18    2
    36    18    19    2
    37    18    21    1
    38    22    21    1
    39    21    23    1
