@<TRIPOS>MOLECULE
14075_out_ligand_01.pdbqt
 34 36 0 0 0
SMALL
GASTEIGER

@<TRIPOS>ATOM
      1  C         17.4880  -22.7840   -9.8230 C.2     1  UNL1       -0.0400
      2  C         18.6370  -23.4390   -9.3550 C.2     1  UNL1        0.0100
      3  C         19.8930  -23.1450   -9.8970 C.2     1  UNL1        0.0170
      4  C         20.0130  -22.1780  -10.9030 C.2     1  UNL1        0.0320
      5  C         18.8680  -21.5310  -11.3850 C.2     1  UNL1        0.0170
      6  C         17.6140  -21.8270  -10.8430 C.2     1  UNL1        0.0100
      7  C         16.1290  -23.0880   -9.2360 C.3     1  UNL1        0.1700
      8  N         16.0050  -22.5110   -7.9030 N.3     1  UNL1       -0.3110
      9  H         16.4980  -21.6440   -7.6990 H       1  UNL1        0.1720
     10  S         15.9530  -23.5680   -6.5990 S.O2    1  UNL1        0.2590
     11  O         14.5790  -23.5900   -6.1490 O.2     1  UNL1       -0.2010
     12  O         16.6390  -24.7680   -7.0220 O.2     1  UNL1       -0.2010
     13  C         16.9930  -22.7590   -5.3960 C.2     1  UNL1        0.0860
     14  C         16.7860  -22.8780   -4.0100 C.2     1  UNL1       -0.0390
     15  C         17.6180  -22.1380   -3.1530 C.2     1  UNL1        0.0090
     16  C         15.7210  -23.7430   -3.3970 C.3     1  UNL1        0.0500
     17  C         18.6420  -21.3300   -3.6540 C.2     1  UNL1        0.0070
     18  C         18.8750  -21.2510   -5.0290 C.2     1  UNL1       -0.0600
     19  C         19.9650  -20.3730   -5.5670 C.3     1  UNL1        0.0480
     20  C         18.0390  -21.9600   -5.8950 C.2     1  UNL1        0.0320
     21  C         21.3290  -21.8330  -11.5140 C.2     1  UNL1        0.2560
     22  O         21.3340  -21.1230  -12.5120 O.2     1  UNL1       -0.2670
     23  N         22.4350  -22.3340  -10.8490 N.am    1  UNL1       -0.3230
     24  H         22.2690  -22.7820   -9.9590 H       1  UNL1        0.1690
     25  C         23.7890  -22.2020  -11.2260 C.2     1  UNL1        0.0350
     26  C         24.6990  -21.3560  -10.5910 C.2     1  UNL1        0.0290
     27  C         26.0230  -21.2760  -11.0310 C.2     1  UNL1        0.0030
     28  C         26.4510  -22.0400  -12.1150 C.2     1  UNL1        0.0160
     29  C         25.5560  -22.8970  -12.7700 C.2     1  UNL1        0.0500
     30  C         24.2240  -22.9650  -12.3190 C.2     1  UNL1        0.0450
     31  C         26.0120  -23.7030  -13.9590 C.3     1  UNL1        0.4170
     32  F         26.5930  -24.8890  -13.6180 F       1  UNL1       -0.1660
     33  F         26.9290  -23.0480  -14.7220 F       1  UNL1       -0.1660
     34  F         24.9840  -24.0190  -14.7940 F       1  UNL1       -0.1660
@<TRIPOS>BOND
     1    34    31    1
     2    33    31    1
     3    31    32    1
     4    31    29    1
     5    29    30    1
     6    29    28    2
     7    22    21    2
     8    30    25    2
     9    28    27    1
    10    21     4    1
    11    21    23   am
    12     5     4    2
    13     5     6    1
    14    25    23    1
    15    25    26    1
    16    27    26    2
    17     4     3    1
    18    23    24    1
    19     6     1    2
    20     3     2    2
    21     1     2    1
    22     1     7    1
    23     7     8    1
    24     8     9    1
    25     8    10    1
    26    12    10    2
    27    10    11    2
    28    10    13    1
    29    20    13    2
    30    20    18    1
    31    19    18    1
    32    13    14    1
    33    18    17    2
    34    14    16    1
    35    14    15    2
    36    17    15    1
