@<TRIPOS>MOLECULE
14086_out_ligand_01.pdbqt
 29 32 0 0 0
SMALL
GASTEIGER

@<TRIPOS>ATOM
      1  C         22.3930  -23.3890   -9.0030 C.2     1  UNL1        0.0340
      2  C         22.1990  -22.2530   -8.2090 C.2     1  UNL1        0.0300
      3  C         20.9830  -22.0370   -7.5460 C.2     1  UNL1        0.0170
      4  C         19.9320  -22.9540   -7.6630 C.2     1  UNL1        0.0100
      5  C         20.1330  -24.0850   -8.4660 C.2     1  UNL1        0.0170
      6  C         21.3490  -24.3020   -9.1280 C.2     1  UNL1        0.0300
      7  N         23.6430  -23.5260   -9.6330 N.am    1  UNL1       -0.3270
      8  C         24.1670  -22.7640  -10.6620 C.2     1  UNL1        0.2310
      9  O         23.6280  -21.7980  -11.1960 O.2     1  UNL1       -0.2720
     10  H         24.2010  -24.3310   -9.3660 H       1  UNL1        0.1690
     11  C         25.5800  -23.1650  -11.0710 C.3     1  UNL1        0.1820
     12  S         26.3840  -21.9740  -12.2020 S.3     1  UNL1       -0.1210
     13  C         25.7360  -22.4590  -13.7960 C.2     1  UNL1        0.0010
     14  C         25.1830  -21.4600  -14.6040 C.2     1  UNL1        0.0190
     15  C         24.6620  -21.7660  -15.8640 C.2     1  UNL1        0.0080
     16  C         24.6680  -23.0840  -16.3310 C.2     1  UNL1       -0.0620
     17  C         24.1460  -23.4110  -17.6980 C.3     1  UNL1        0.0480
     18  C         25.2180  -24.0840  -15.5230 C.2     1  UNL1        0.0080
     19  C         25.7370  -23.7760  -14.2610 C.2     1  UNL1        0.0190
     20  C         18.6400  -22.7760   -6.9880 C.ar    1  UNL1        0.1390
     21  N         17.4620  -22.7000   -7.5840 N.ar    1  UNL1       -0.2280
     22  C         16.5330  -22.5400   -6.5860 C.ar    1  UNL1        0.0860
     23  C         15.1400  -22.4040   -6.6680 C.2     1  UNL1        0.0340
     24  C         17.1460  -22.5240   -5.3410 C.ar    1  UNL1        0.0620
     25  C         14.4110  -22.2560   -5.4800 C.2     1  UNL1        0.0020
     26  C         15.0550  -22.2440   -4.2410 C.2     1  UNL1        0.0020
     27  C         16.4450  -22.3800   -4.1420 C.2     1  UNL1        0.0320
     28  N         18.4780  -22.6800   -5.6240 N.ar    1  UNL1       -0.3380
     29  H         19.2150  -22.7290   -4.9400 H       1  UNL1        0.1670
@<TRIPOS>BOND
     1    17    16    1
     2    16    15    2
     3    16    18    1
     4    15    14    1
     5    18    19    2
     6    14    13    2
     7    19    13    1
     8    13    12    1
     9    12    11    1
    10     9     8    2
    11    11     8    1
    12     8     7   am
    13     7    10    1
    14     7     1    1
    15     6     1    2
    16     6     5    1
    17     1     2    1
    18     5     4    2
    19     2     3    2
    20     4     3    1
    21     4    20    1
    22    21    20   ar
    23    21    22   ar
    24    20    28   ar
    25    23    22    2
    26    23    25    1
    27    22    24   ar
    28    28    24   ar
    29    28    29    1
    30    25    26    2
    31    24    27    2
    32    26    27    1
