@<TRIPOS>MOLECULE
14089_out_ligand_01.pdbqt
 30 34 0 0 0
SMALL
GASTEIGER

@<TRIPOS>ATOM
      1  C         20.3940  -22.7360  -10.1120 C.2     1  UNL1        0.0330
      2  C         19.7650  -21.9480  -11.1090 C.2     1  UNL1        0.0180
      3  C         20.4990  -21.4360  -12.1860 C.2     1  UNL1        0.0190
      4  C         21.8470  -21.7390  -12.2340 C.2     1  UNL1        0.0480
      5  C         22.4580  -22.5200  -11.2700 C.2     1  UNL1        0.0490
      6  C         21.7620  -23.0400  -10.1970 C.2     1  UNL1        0.0350
      7  C         23.8680  -22.6440  -11.6350 C.2     1  UNL1        0.2620
      8  O         24.6880  -23.2720  -10.9940 O.2     1  UNL1       -0.2670
      9  N         24.0330  -21.9320  -12.7900 N.am    1  UNL1       -0.2740
     10  C         22.8630  -21.3700  -13.2170 C.2     1  UNL1        0.2620
     11  O         22.6330  -20.7050  -14.2080 O.2     1  UNL1       -0.2670
     12  C         19.6200  -23.2980   -8.9700 C.2     1  UNL1        0.2560
     13  O         20.0040  -24.3550   -8.4870 O.2     1  UNL1       -0.2670
     14  N         18.5520  -22.5260   -8.5520 N.am    1  UNL1       -0.3230
     15  H         18.4470  -21.6120   -8.9740 H       1  UNL1        0.1690
     16  C         17.6270  -22.8280   -7.5300 C.2     1  UNL1        0.0370
     17  C         16.5300  -23.6970   -7.6970 C.2     1  UNL1        0.0320
     18  C         15.6420  -23.9510   -6.6420 C.2     1  UNL1        0.0420
     19  C         15.8730  -23.3230   -5.4410 C.2     1  UNL1        0.1050
     20  C         16.9370  -22.4720   -5.2690 C.2     1  UNL1        0.1070
     21  O         15.1210  -23.4500   -4.3150 O.2     1  UNL1       -0.3230
     22  C         17.8270  -22.2030   -6.2880 C.2     1  UNL1        0.0690
     23  O         16.9890  -21.9530   -4.0120 O.2     1  UNL1       -0.3230
     24  C         15.8360  -22.5810   -3.4130 C.3     1  UNL1        0.3520
     25  C         25.3020  -21.7740  -13.4650 C.3     1  UNL1        0.2000
     26  C         26.0210  -20.6090  -12.8850 C.2     1  UNL1        0.0700
     27  C         26.3330  -20.2350  -11.5940 C.2     1  UNL1        0.0360
     28  C         27.0350  -19.0100  -11.6910 C.2     1  UNL1        0.0270
     29  C         27.1090  -18.7150  -13.0310 C.2     1  UNL1        0.1420
     30  O         26.4960  -19.6800  -13.7650 O.2     1  UNL1       -0.3250
@<TRIPOS>BOND
     1    11    10    2
     2    30    29    1
     3    30    26    1
     4    25    26    1
     5    25     9    1
     6    10     9   am
     7    10     4    1
     8    29    28    2
     9    26    27    2
    10     9     7   am
    11     4     3    2
    12     4     5    1
    13     3     2    1
    14    28    27    1
    15     7     5    1
    16     7     8    2
    17     5     6    2
    18     2     1    2
    19     6     1    1
    20     1    12    1
    21    15    14    1
    22    12    14   am
    23    12    13    2
    24    14    16    1
    25    17    16    2
    26    17    18    1
    27    16    22    1
    28    18    19    2
    29    22    20    2
    30    19    20    1
    31    19    21    1
    32    20    23    1
    33    21    24    1
    34    23    24    1
