@<TRIPOS>MOLECULE
14098_out_ligand_01.pdbqt
 31 34 0 0 0
SMALL
GASTEIGER

@<TRIPOS>ATOM
      1  C         20.4730  -22.5130   -7.6380 C.2     1  UNL1        0.0320
      2  C         21.6290  -21.7290   -7.6810 C.2     1  UNL1        0.0190
      3  C         22.6290  -22.0000   -8.6210 C.2     1  UNL1        0.0300
      4  C         22.4830  -23.0500   -9.5350 C.2     1  UNL1        0.0340
      5  C         21.3160  -23.8180   -9.5030 C.2     1  UNL1        0.0300
      6  C         20.3120  -23.5500   -8.5640 C.2     1  UNL1        0.0190
      7  N         23.5350  -23.2570  -10.4460 N.am    1  UNL1       -0.3250
      8  C         23.5930  -22.8970  -11.7840 C.2     1  UNL1        0.2540
      9  O         22.7250  -22.2900  -12.4070 O.2     1  UNL1       -0.2700
     10  H         24.3310  -23.7920  -10.1120 H       1  UNL1        0.1690
     11  C         24.9460  -23.2610  -12.4280 C.3     1  UNL1        0.2450
     12  C         26.0850  -23.2040  -11.4160 C.3     1  UNL1        0.2180
     13  O         26.3840  -21.8590  -11.0220 O.2     1  UNL1       -0.3450
     14  C         26.4250  -21.0130  -12.0960 C.2     1  UNL1        0.1020
     15  C         27.0250  -19.7720  -11.8910 C.2     1  UNL1        0.0390
     16  C         25.8920  -21.3340  -13.3460 C.2     1  UNL1        0.1030
     17  C         27.1210  -18.8630  -12.9450 C.2     1  UNL1        0.0030
     18  C         26.6140  -19.1950  -14.2030 C.2     1  UNL1        0.0030
     19  C         25.9990  -20.4320  -14.4030 C.2     1  UNL1        0.0400
     20  O         25.2410  -22.5100  -13.6100 O.2     1  UNL1       -0.3310
     21  C         19.4320  -22.1950   -6.6200 C.2     1  UNL1        0.2560
     22  O         19.5000  -21.1170   -6.0410 O.2     1  UNL1       -0.2670
     23  N         18.5010  -23.1960   -6.4070 N.am    1  UNL1       -0.3230
     24  H         18.6640  -24.0800   -6.8710 H       1  UNL1        0.1690
     25  C         17.3880  -23.1590   -5.5390 C.2     1  UNL1        0.0360
     26  C         17.3660  -23.7540   -4.2750 C.2     1  UNL1        0.0290
     27  C         16.2250  -23.6700   -3.4690 C.2     1  UNL1        0.0040
     28  C         15.0970  -22.9870   -3.9170 C.2     1  UNL1        0.0190
     29  C         15.1180  -22.3900   -5.1730 C.2     1  UNL1        0.0130
     30 BR         13.5920  -21.4580   -5.7920 Br      1  UNL1       -0.0510
     31  C         16.2520  -22.4700   -5.9830 C.2     1  UNL1        0.0480
@<TRIPOS>BOND
     1    19    18    2
     2    19    16    1
     3    18    17    1
     4    20    16    1
     5    20    11    1
     6    16    14    2
     7    17    15    2
     8    11     8    1
     9    11    12    1
    10     9     8    2
    11    14    15    1
    12    14    13    1
    13     8     7   am
    14    12    13    1
    15     7    10    1
    16     7     4    1
    17     4     5    2
    18     4     3    1
    19     5     6    1
    20     3     2    2
    21     6     1    2
    22     2     1    1
    23     1    21    1
    24    24    23    1
    25    21    23   am
    26    21    22    2
    27    23    25    1
    28    31    25    2
    29    31    29    1
    30    30    29    1
    31    25    26    1
    32    29    28    2
    33    26    27    2
    34    28    27    1
