@<TRIPOS>MOLECULE
14099_out_ligand_01.pdbqt
 24 26 0 0 0
SMALL
GASTEIGER

@<TRIPOS>ATOM
      1  C         18.7830  -22.8430   -7.5860 C.2     1  UNL1        0.0360
      2  C         17.8550  -23.9120   -7.6710 C.2     1  UNL1        0.0300
      3  C         17.0190  -24.2460   -6.5990 C.2     1  UNL1        0.0200
      4  C         17.1380  -23.4880   -5.4540 C.2     1  UNL1        0.0480
      5  C         18.0370  -22.4400   -5.3610 C.2     1  UNL1        0.0500
      6  C         18.8720  -22.0920   -6.4070 C.2     1  UNL1        0.0470
      7  C         17.8910  -21.8590   -4.0260 C.2     1  UNL1        0.2590
      8  O         18.5130  -20.9130   -3.5890 O.2     1  UNL1       -0.2670
      9  N         16.9270  -22.5840   -3.3950 N.am    1  UNL1       -0.2890
     10  C         16.4240  -23.5730   -4.1810 C.2     1  UNL1        0.2590
     11  O         15.5570  -24.3790   -3.9140 O.2     1  UNL1       -0.2670
     12  H         16.6170  -22.4000   -2.4540 H       1  UNL1        0.1720
     13  N         19.5680  -22.5960   -8.7320 N.am    1  UNL1       -0.3230
     14  C         20.6750  -23.3090   -9.1570 C.2     1  UNL1        0.2560
     15  O         21.1280  -24.3270   -8.6480 O.2     1  UNL1       -0.2670
     16  H         19.2380  -21.8630   -9.3470 H       1  UNL1        0.1690
     17  C         21.3270  -22.7780  -10.3870 C.2     1  UNL1        0.0320
     18  C         20.5780  -21.9650  -11.2390 C.2     1  UNL1        0.0170
     19  C         21.1590  -21.4460  -12.3970 C.2     1  UNL1        0.0080
     20  C         22.4920  -21.7400  -12.7260 C.2     1  UNL1       -0.0560
     21  C         23.0780  -21.1670  -13.9890 C.3     1  UNL1        0.0490
     22  C         23.2450  -22.5800  -11.8800 C.2     1  UNL1       -0.0550
     23  C         22.6510  -23.0980  -10.7160 C.2     1  UNL1        0.0240
     24  C         24.6660  -22.9480  -12.2100 C.3     1  UNL1        0.0490
@<TRIPOS>BOND
     1    21    20    1
     2    20    19    2
     3    20    22    1
     4    19    18    1
     5    24    22    1
     6    22    23    2
     7    18    17    2
     8    23    17    1
     9    17    14    1
    10    16    13    1
    11    14    13   am
    12    14    15    2
    13    13     1    1
    14     2     1    2
    15     2     3    1
    16     1     6    1
    17     3     4    2
    18     6     5    2
    19     4     5    1
    20     4    10    1
    21     5     7    1
    22    10    11    2
    23    10     9   am
    24     7     8    2
    25     7     9   am
    26     9    12    1
