@<TRIPOS>MOLECULE
14097_out_ligand_01.pdbqt
 29 32 0 0 0
SMALL
GASTEIGER

@<TRIPOS>ATOM
      1  C         21.1880  -21.6980  -12.0380 C.2     1  UNL1        0.0330
      2  C         19.9720  -21.0020  -12.2690 C.2     1  UNL1        0.0180
      3  C         18.8680  -21.1970  -11.4290 C.2     1  UNL1        0.0190
      4  C         19.0200  -22.0860  -10.3830 C.2     1  UNL1        0.0480
      5  C         20.2050  -22.7700  -10.1600 C.2     1  UNL1        0.0490
      6  C         21.3080  -22.6070  -10.9750 C.2     1  UNL1        0.0350
      7  C         20.0110  -23.6160   -8.9810 C.2     1  UNL1        0.2620
      8  O         20.8630  -24.3360   -8.5030 O.2     1  UNL1       -0.2670
      9  N         18.7260  -23.4110   -8.5650 N.am    1  UNL1       -0.2760
     10  C         18.0670  -22.5090   -9.3580 C.2     1  UNL1        0.2620
     11  O         16.9250  -22.1050   -9.2840 O.2     1  UNL1       -0.2670
     12  C         22.3570  -21.5160  -12.9380 C.2     1  UNL1        0.2510
     13  O         22.2430  -20.8600  -13.9670 O.2     1  UNL1       -0.2680
     14  N         23.5200  -22.1450  -12.5560 N.am    1  UNL1       -0.3530
     15  H         23.5110  -22.8130  -11.8000 H       1  UNL1        0.1630
     16  C         24.6980  -22.0690  -13.3930 C.3     1  UNL1        0.1620
     17  C         25.5390  -20.8820  -13.0310 C.2     1  UNL1       -0.0230
     18  C         25.9640  -20.6590  -11.7150 C.2     1  UNL1        0.0120
     19  C         26.7600  -19.5520  -11.4240 C.2     1  UNL1        0.0200
     20  C         27.1210  -18.7120  -12.4680 C.2     1  UNL1        0.1160
     21  N         26.7450  -18.9040  -13.7530 N.2     1  UNL1       -0.2730
     22  C         25.9630  -19.9810  -14.0060 C.2     1  UNL1        0.1240
     23  C         18.1430  -24.0400   -7.4010 C.3     1  UNL1        0.1750
     24  C         18.1840  -23.1350   -6.2030 C.2     1  UNL1       -0.0220
     25  C         18.8450  -21.9050   -6.2430 C.2     1  UNL1        0.0120
     26  C         18.8780  -21.1040   -5.1070 C.2     1  UNL1        0.0200
     27  C         18.2560  -21.5650   -3.9590 C.2     1  UNL1        0.1160
     28  N         17.6160  -22.7500   -3.8780 N.2     1  UNL1       -0.2730
     29  C         17.5950  -23.5080   -4.9970 C.2     1  UNL1        0.1240
@<TRIPOS>BOND
     1    22    21    1
     2    22    17    2
     3    13    12    2
     4    21    20    2
     5    16    17    1
     6    16    14    1
     7    17    18    1
     8    12    14   am
     9    12     1    1
    10    14    15    1
    11    20    19    1
    12     2     1    2
    13     2     3    1
    14     1     6    1
    15    18    19    2
    16     3     4    2
    17     6     5    2
    18     4     5    1
    19     4    10    1
    20     5     7    1
    21    10    11    2
    22    10     9   am
    23     7     9   am
    24     7     8    2
    25     9    23    1
    26    23    24    1
    27    25    24    2
    28    25    26    1
    29    24    29    1
    30    26    27    2
    31    29    28    2
    32    27    28    1
