@<TRIPOS>MOLECULE
14094_out_ligand_01.pdbqt
 29 32 0 0 0
SMALL
GASTEIGER

@<TRIPOS>ATOM
      1  N         19.3340  -22.3330   -9.2040 N.am    1  UNL1       -0.3220
      2  C         19.1880  -23.5080   -8.4890 C.2     1  UNL1        0.2570
      3  O         19.9000  -24.5030   -8.5550 O.2     1  UNL1       -0.2670
      4  H         18.7820  -21.5480   -8.8770 H       1  UNL1        0.1690
      5  C         20.2430  -22.0800  -10.2540 C.2     1  UNL1        0.0420
      6  C         21.6130  -22.3230  -10.1160 C.2     1  UNL1        0.0540
      7  C         22.4890  -22.0380  -11.1680 C.2     1  UNL1        0.0760
      8  C         22.0170  -21.5320  -12.3760 C.2     1  UNL1        0.0250
      9  C         20.6500  -21.3150  -12.5320 C.2     1  UNL1        0.0100
     10  C         19.7510  -21.5860  -11.4840 C.2     1  UNL1       -0.0350
     11  C         18.2860  -21.3250  -11.7160 C.3     1  UNL1        0.0500
     12  S         24.2220  -22.3360  -10.9480 S.O2    1  UNL1        0.2390
     13  O         24.8340  -21.1200  -10.4610 O.2     1  UNL1       -0.2060
     14  O         24.7040  -23.0350  -12.1150 O.2     1  UNL1       -0.2060
     15  N         24.2530  -23.3930   -9.6400 N.3     1  UNL1       -0.2250
     16  H         23.6260  -24.1920   -9.7350 H       1  UNL1        0.1360
     17  H         24.0900  -22.8690   -8.7800 H       1  UNL1        0.1360
     18  C         18.1000  -23.4760   -7.4790 C.2     1  UNL1        0.0430
     19  C         16.9810  -24.3100   -7.7120 C.2     1  UNL1        0.0180
     20  C         15.9310  -24.3850   -6.7870 C.2     1  UNL1        0.0090
     21  C         16.0100  -23.6170   -5.6370 C.2     1  UNL1       -0.0460
     22  C         17.0910  -22.7960   -5.4370 C.2     1  UNL1       -0.0120
     23  C         15.0260  -23.5140   -4.5080 C.2     1  UNL1        0.0440
     24  C         16.9530  -22.1160   -4.2540 C.2     1  UNL1       -0.0460
     25  C         18.1700  -22.6600   -6.3170 C.2     1  UNL1       -0.0090
     26  C         17.9270  -21.2110   -3.8660 C.2     1  UNL1        0.0080
     27  C         15.6820  -22.4900   -3.5480 C.2     1  UNL1        0.0440
     28  C         19.0270  -21.0090   -4.7080 C.2     1  UNL1        0.0010
     29  C         19.1520  -21.7150   -5.9210 C.2     1  UNL1        0.0130
@<TRIPOS>BOND
     1     9     8    2
     2     9    10    1
     3     8     7    1
     4    14    12    2
     5    11    10    1
     6    10     5    2
     7     7    12    1
     8     7     6    2
     9    12    13    2
    10    12    15    1
    11     5     6    1
    12     5     1    1
    13    16    15    1
    14    15    17    1
    15     1     4    1
    16     1     2   am
    17     3     2    2
    18     2    18    1
    19    19    18    2
    20    19    20    1
    21    18    25    1
    22    20    21    2
    23    25    29    1
    24    25    22    2
    25    29    28    2
    26    21    22    1
    27    21    23    1
    28    22    24    1
    29    28    26    1
    30    23    27    2
    31    24    26    2
    32    24    27    1
