@<TRIPOS>MOLECULE
14114_out_ligand_01.pdbqt
 36 39 0 0 0
SMALL
GASTEIGER

@<TRIPOS>ATOM
      1  C         19.2580  -21.8540  -11.2780 C.2     1  UNL1        0.0320
      2  C         19.2860  -23.1170  -10.6750 C.2     1  UNL1        0.0170
      3  C         18.1570  -23.5920  -10.0020 C.2     1  UNL1        0.0100
      4  C         16.9950  -22.8090   -9.9080 C.2     1  UNL1       -0.0400
      5  C         16.9800  -21.5400  -10.5040 C.2     1  UNL1        0.0100
      6  C         18.1070  -21.0630  -11.1780 C.2     1  UNL1        0.0170
      7  C         15.7830  -23.3430   -9.1860 C.3     1  UNL1        0.1700
      8  N         15.6990  -22.7890   -7.8440 N.3     1  UNL1       -0.3110
      9  H         15.5670  -21.7860   -7.7320 H       1  UNL1        0.1720
     10  S         16.4640  -23.5590   -6.5770 S.O2    1  UNL1        0.2590
     11  O         15.6020  -23.4230   -5.4260 O.2     1  UNL1       -0.2010
     12  O         16.9190  -24.8480   -7.0480 O.2     1  UNL1       -0.2010
     13  C         17.8930  -22.5350   -6.3090 C.2     1  UNL1        0.0800
     14  C         17.8720  -21.5960   -5.2730 C.2     1  UNL1        0.0250
     15  C         18.9910  -20.7940   -5.0530 C.2     1  UNL1        0.0020
     16  C         20.1240  -20.9380   -5.8560 C.2     1  UNL1        0.0160
     17  C         20.1620  -21.8940   -6.8850 C.2     1  UNL1        0.0490
     18  C         19.0310  -22.6970   -7.1070 C.2     1  UNL1        0.0410
     19  C         21.3830  -22.0470   -7.7610 C.3     1  UNL1        0.4170
     20  F         21.6680  -23.3480   -8.0440 F       1  UNL1       -0.1660
     21  F         21.2300  -21.4250   -8.9610 F       1  UNL1       -0.1660
     22  F         22.5150  -21.5280   -7.2100 F       1  UNL1       -0.1660
     23  C         20.4360  -21.3020  -12.0070 C.2     1  UNL1        0.2560
     24  O         20.3010  -20.2410  -12.6040 O.2     1  UNL1       -0.2670
     25  N         21.5720  -22.0890  -11.9610 N.am    1  UNL1       -0.3230
     26  H         21.4800  -23.0030  -11.5360 H       1  UNL1        0.1690
     27  C         22.8350  -21.8050  -12.5210 C.2     1  UNL1        0.0370
     28  C         24.0370  -21.8670  -11.8110 C.2     1  UNL1        0.0320
     29  C         25.2510  -21.5700  -12.4390 C.2     1  UNL1        0.0420
     30  C         25.2720  -21.2080  -13.7820 C.2     1  UNL1        0.1020
     31  C         24.0800  -21.1740  -14.5080 C.2     1  UNL1        0.1040
     32  O         26.4950  -20.9090  -14.3260 O.2     1  UNL1       -0.3460
     33  C         22.8670  -21.4570  -13.8790 C.2     1  UNL1        0.0690
     34  O         24.0230  -20.8620  -15.8430 O.2     1  UNL1       -0.3460
     35  C         25.3180  -20.9300  -16.4500 C.3     1  UNL1        0.2020
     36  C         26.3560  -20.2360  -15.5820 C.3     1  UNL1        0.2020
@<TRIPOS>BOND
     1    35    34    1
     2    35    36    1
     3    34    31    1
     4    36    32    1
     5    31    33    1
     6    31    30    2
     7    32    30    1
     8    33    27    2
     9    30    29    1
    10    24    23    2
    11    27    25    1
    12    27    28    1
    13    29    28    2
    14    23    25   am
    15    23     1    1
    16    25    26    1
    17     1     6    2
    18     1     2    1
    19     6     5    1
    20     2     3    2
    21     5     4    2
    22     3     4    1
    23     4     7    1
    24     7     8    1
    25    21    19    1
    26    20    19    1
    27     8     9    1
    28     8    10    1
    29    19    22    1
    30    19    17    1
    31    18    17    1
    32    18    13    2
    33    12    10    2
    34    17    16    2
    35    10    13    1
    36    10    11    2
    37    13    14    1
    38    16    15    1
    39    14    15    2
