@<TRIPOS>MOLECULE
14119_out_ligand_01.pdbqt
 29 32 0 0 0
SMALL
GASTEIGER

@<TRIPOS>ATOM
      1  C         20.7760  -22.8280  -10.3860 C.2     1  UNL1        0.0330
      2  C         20.0550  -21.9310  -11.2150 C.2     1  UNL1        0.0180
      3  C         20.6680  -21.2890  -12.2980 C.2     1  UNL1        0.0190
      4  C         22.0000  -21.5750  -12.5240 C.2     1  UNL1        0.0480
      5  C         22.7020  -22.4590  -11.7260 C.2     1  UNL1        0.0490
      6  C         22.1230  -23.1110  -10.6510 C.2     1  UNL1        0.0350
      7  C         24.0650  -22.5370  -12.2470 C.2     1  UNL1        0.2620
      8  O         24.9400  -23.2250  -11.7550 O.2     1  UNL1       -0.2670
      9  N         24.1150  -21.7040  -13.3290 N.am    1  UNL1       -0.2760
     10  C         22.9150  -21.0900  -13.5560 C.2     1  UNL1        0.2620
     11  O         22.6150  -20.2880  -14.4200 O.2     1  UNL1       -0.2670
     12  C         20.0460  -23.4830   -9.2610 C.2     1  UNL1        0.2560
     13  O         20.4910  -24.5390   -8.8300 O.2     1  UNL1       -0.2670
     14  N         18.9010  -22.8310   -8.8400 N.am    1  UNL1       -0.3230
     15  H         18.5930  -22.0330   -9.3790 H       1  UNL1        0.1690
     16  C         18.0500  -23.2030   -7.7780 C.2     1  UNL1        0.0350
     17  C         18.3990  -23.1150   -6.4270 C.2     1  UNL1        0.0320
     18  C         17.4940  -23.5000   -5.4330 C.2     1  UNL1        0.0440
     19  C         16.2380  -23.9710   -5.7910 C.2     1  UNL1        0.1160
     20  F         15.3720  -24.3390   -4.8390 F       1  UNL1       -0.2060
     21  C         15.8690  -24.0620   -7.1250 C.2     1  UNL1        0.0440
     22  C         16.7730  -23.6770   -8.1190 C.2     1  UNL1        0.0320
     23  C         25.2830  -21.5200  -14.1590 C.3     1  UNL1        0.1750
     24  C         25.0480  -22.0110  -15.5610 C.2     1  UNL1       -0.0220
     25  C         25.0750  -21.1390  -16.6540 C.2     1  UNL1        0.0120
     26  C         24.8750  -21.6370  -17.9380 C.2     1  UNL1        0.0200
     27  C         24.6610  -22.9970  -18.0880 C.2     1  UNL1        0.1160
     28  N         24.6400  -23.8710  -17.0590 N.2     1  UNL1       -0.2730
     29  C         24.8390  -23.3620  -15.8230 C.2     1  UNL1        0.1240
@<TRIPOS>BOND
     1    27    26    2
     2    27    28    1
     3    26    25    1
     4    28    29    2
     5    25    24    2
     6    29    24    1
     7    24    23    1
     8    11    10    2
     9    23     9    1
    10    10     9   am
    11    10     4    1
    12     9     7   am
    13     4     3    2
    14     4     5    1
    15     3     2    1
    16     7     8    2
    17     7     5    1
    18     5     6    2
    19     2     1    2
    20     6     1    1
    21     1    12    1
    22    15    14    1
    23    12    14   am
    24    12    13    2
    25    14    16    1
    26    22    16    2
    27    22    21    1
    28    16    17    1
    29    21    19    2
    30    17    18    2
    31    19    18    1
    32    19    20    1
