@<TRIPOS>MOLECULE
14118_out_ligand_01.pdbqt
 36 40 0 0 0
SMALL
GASTEIGER

@<TRIPOS>ATOM
      1  C         23.0370  -23.1250  -10.7400 C.2     1  UNL1        0.0420
      2  C         22.1930  -22.4030  -11.5850 C.2     1  UNL1        0.0310
      3  C         20.8380  -22.2730  -11.2770 C.2     1  UNL1        0.0270
      4  C         20.3380  -22.8580  -10.1080 C.2     1  UNL1        0.0800
      5  C         21.1750  -23.5980   -9.2680 C.2     1  UNL1        0.0270
      6  C         22.5300  -23.7250   -9.5840 C.2     1  UNL1        0.0310
      7  N         24.4090  -23.3060  -11.0640 N.pl3   1  UNL1       -0.2810
      8  H         24.6530  -24.0380  -11.7290 H       1  UNL1        0.1790
      9  S         25.4030  -21.9490  -11.2350 S.O2    1  UNL1        0.2630
     10  O         24.8130  -20.8260  -10.5380 O.2     1  UNL1       -0.2000
     11  O         26.7470  -22.3980  -10.9310 O.2     1  UNL1       -0.2000
     12  C         25.3300  -21.6210  -12.9800 C.2     1  UNL1        0.0800
     13  C         25.5620  -20.3280  -13.4540 C.2     1  UNL1        0.0260
     14  C         25.4870  -20.0770  -14.8240 C.2     1  UNL1        0.0140
     15  C         25.1970  -21.1130  -15.7290 C.2     1  UNL1       -0.0260
     16  C         25.1150  -20.8720  -17.1090 C.2     1  UNL1        0.0120
     17  C         24.9860  -22.4260  -15.2430 C.2     1  UNL1       -0.0250
     18  C         24.8330  -21.9100  -17.9990 C.2     1  UNL1        0.0010
     19  C         24.6310  -23.2010  -17.5220 C.2     1  UNL1        0.0010
     20  C         24.7080  -23.4590  -16.1520 C.2     1  UNL1        0.0120
     21  C         25.0610  -22.6710  -13.8640 C.2     1  UNL1        0.0370
     22  S         18.6080  -22.7070   -9.7180 S.O2    1  UNL1        0.2630
     23  O         17.8770  -23.5100  -10.6770 O.2     1  UNL1       -0.2000
     24  O         18.3120  -21.3010   -9.5430 O.2     1  UNL1       -0.2000
     25  N         18.4610  -23.5050   -8.2400 N.pl3   1  UNL1       -0.2800
     26  H         18.9700  -24.3840   -8.2090 H       1  UNL1        0.1790
     27  C         18.3560  -22.7380   -7.0380 C.2     1  UNL1        0.0530
     28  C         19.4010  -21.8630   -6.7260 C.2     1  UNL1        0.0310
     29  C         19.3730  -21.1340   -5.5440 C.2     1  UNL1        0.0030
     30  C         18.3020  -21.2790   -4.6650 C.2     1  UNL1        0.0120
     31  C         17.2420  -22.1540   -4.9560 C.2     1  UNL1       -0.0240
     32  C         16.1750  -22.2940   -4.0530 C.2     1  UNL1        0.0120
     33  C         17.2530  -22.9020   -6.1590 C.2     1  UNL1        0.0010
     34  C         15.1180  -23.1620   -4.3200 C.2     1  UNL1        0.0010
     35  C         15.1130  -23.9030   -5.4940 C.2     1  UNL1        0.0010
     36  C         16.1650  -23.7770   -6.4020 C.2     1  UNL1        0.0140
@<TRIPOS>BOND
     1    18    19    2
     2    18    16    1
     3    19    20    1
     4    16    15    2
     5    20    17    2
     6    15    17    1
     7    15    14    1
     8    17    21    1
     9    14    13    2
    10    21    12    2
    11    13    12    1
    12    12     9    1
    13     8     7    1
    14     2     3    1
    15     2     1    2
    16     3     4    2
    17     9     7    1
    18     9    11    2
    19     9    10    2
    20     7     1    1
    21     1     6    1
    22    23    22    2
    23     4    22    1
    24     4     5    1
    25    22    24    2
    26    22    25    1
    27     6     5    2
    28    25    26    1
    29    25    27    1
    30    27    28    2
    31    27    33    1
    32    28    29    1
    33    36    33    1
    34    36    35    2
    35    33    31    2
    36    29    30    2
    37    35    34    1
    38    31    30    1
    39    31    32    1
    40    34    32    2
