@<TRIPOS>MOLECULE
14120_out_ligand_01.pdbqt
 33 35 0 0 0
SMALL
GASTEIGER

@<TRIPOS>ATOM
      1  C         22.8660  -22.9940  -10.7510 C.2     1  UNL1        0.0220
      2  C         22.7370  -23.5750   -9.4890 C.2     1  UNL1        0.0250
      3  C         21.5400  -23.4330   -8.7820 C.2     1  UNL1        0.0190
      4  C         20.4670  -22.7340   -9.3510 C.2     1  UNL1        0.0320
      5  C         20.6010  -22.1570  -10.6200 C.2     1  UNL1        0.0190
      6  C         21.8010  -22.2970  -11.3220 C.2     1  UNL1        0.0250
      7  C         19.2050  -22.6070   -8.5730 C.2     1  UNL1        0.2560
      8  O         18.1480  -22.5460   -9.1880 O.2     1  UNL1       -0.2670
      9  N         19.3820  -22.5290   -7.2030 N.am    1  UNL1       -0.3230
     10  H         20.3330  -22.4420   -6.8670 H       1  UNL1        0.1690
     11  C         18.3770  -22.4650   -6.2150 C.2     1  UNL1        0.0350
     12  C         18.6670  -21.7360   -5.0550 C.2     1  UNL1        0.0290
     13  C         17.7280  -21.6250   -4.0290 C.2     1  UNL1        0.0030
     14  C         16.4890  -22.2500   -4.1480 C.2     1  UNL1        0.0160
     15  C         16.1840  -23.0020   -5.2910 C.2     1  UNL1        0.0500
     16  C         17.1360  -23.0950   -6.3240 C.2     1  UNL1        0.0450
     17  C         14.8490  -23.6880   -5.4360 C.3     1  UNL1        0.4170
     18  F         14.7890  -24.4890   -6.5350 F       1  UNL1       -0.1660
     19  F         13.8070  -22.8160   -5.5580 F       1  UNL1       -0.1660
     20  F         14.5380  -24.4810   -4.3720 F       1  UNL1       -0.1660
     21  N         24.0670  -23.1700  -11.5120 N.pl3   1  UNL1       -0.1810
     22  H         23.8720  -23.0990  -12.5130 H       1  UNL1        0.1460
     23  S         25.2870  -22.0220  -11.1680 S.O2    1  UNL1        0.2460
     24  O         26.5110  -22.7110  -10.8180 O.2     1  UNL1       -0.2060
     25  O         24.6980  -21.0420  -10.2820 O.2     1  UNL1       -0.2060
     26  C         25.5100  -21.2970  -12.7880 C.2     1  UNL1        0.0810
     27  C         26.1790  -20.0740  -12.9880 C.2     1  UNL1       -0.0390
     28  C         26.3160  -19.6030  -14.3050 C.2     1  UNL1        0.0090
     29  C         26.7960  -19.2640  -11.8830 C.3     1  UNL1        0.0500
     30  C         25.8020  -20.3200  -15.3900 C.2     1  UNL1        0.0070
     31  C         25.1330  -21.5290  -15.1890 C.2     1  UNL1       -0.0600
     32  C         24.6130  -22.3120  -16.3570 C.3     1  UNL1        0.0480
     33  C         25.0010  -22.0190  -13.8850 C.2     1  UNL1        0.0320
@<TRIPOS>BOND
     1    32    31    1
     2    30    31    2
     3    30    28    1
     4    31    33    1
     5    28    27    2
     6    33    26    2
     7    27    26    1
     8    27    29    1
     9    26    23    1
    10    22    21    1
    11    21    23    1
    12    21     1    1
    13     6     1    2
    14     6     5    1
    15    23    24    2
    16    23    25    2
    17     1     2    1
    18     5     4    2
    19     2     3    2
    20     4     3    1
    21     4     7    1
    22     8     7    2
    23     7     9   am
    24     9    10    1
    25     9    11    1
    26    18    17    1
    27    16    11    2
    28    16    15    1
    29    11    12    1
    30    19    17    1
    31    17    15    1
    32    17    20    1
    33    15    14    2
    34    12    13    2
    35    14    13    1
