@<TRIPOS>MOLECULE
14127_out_ligand_01.pdbqt
 31 33 0 0 0
SMALL
GASTEIGER

@<TRIPOS>ATOM
      1  C         17.6140  -23.3950   -8.8660 C.2     1  UNL1        0.1020
      2  C         19.0110  -23.5540   -8.9240 C.2     1  UNL1        0.0440
      3  C         19.7620  -22.9370   -9.9300 C.2     1  UNL1        0.0340
      4  C         19.1170  -22.1510  -10.8860 C.2     1  UNL1        0.0190
      5  C         17.7310  -21.9770  -10.8170 C.2     1  UNL1        0.0260
      6  C         16.9700  -22.5910   -9.8090 C.2     1  UNL1        0.0570
      7 CL         15.2750  -22.2880   -9.8800 Cl      1  UNL1       -0.0830
      8  S         16.7880  -24.2380   -7.5380 S.O2    1  UNL1        0.2650
      9  O         17.7170  -25.0380   -6.7760 O.2     1  UNL1       -0.2000
     10  O         15.6100  -24.8580   -8.1140 O.2     1  UNL1       -0.2000
     11  N         16.2060  -22.9780   -6.5790 N.pl3   1  UNL1       -0.2800
     12  H         15.5600  -22.3710   -7.0780 H       1  UNL1        0.1790
     13  C         17.0110  -22.4190   -5.5450 C.2     1  UNL1        0.0490
     14  C         16.7200  -22.6910   -4.1980 C.2     1  UNL1       -0.0350
     15  C         17.5060  -22.0900   -3.2030 C.2     1  UNL1        0.0090
     16  C         15.5960  -23.6020   -3.7870 C.3     1  UNL1        0.0500
     17  C         18.5680  -21.2490   -3.5400 C.2     1  UNL1        0.0070
     18  C         18.8810  -21.0080   -4.8790 C.2     1  UNL1       -0.0600
     19  C         20.0050  -20.0870   -5.2490 C.3     1  UNL1        0.0480
     20  C         18.0920  -21.5950   -5.8750 C.2     1  UNL1        0.0370
     21  C         21.2280  -23.1890   -9.9760 C.2     1  UNL1        0.2560
     22  O         21.6790  -24.0550   -9.2370 O.2     1  UNL1       -0.2670
     23  N         21.9290  -22.3830  -10.8490 N.am    1  UNL1       -0.3220
     24  H         21.4260  -21.6340  -11.3100 H       1  UNL1        0.1690
     25  C         23.3160  -22.4080  -11.1320 C.2     1  UNL1        0.0520
     26  C         24.2690  -22.9050  -10.2390 C.2     1  UNL1        0.0310
     27  C         25.6290  -22.9060  -10.5740 C.2     1  UNL1        0.0020
     28  C         26.0510  -22.4140  -11.8060 C.2     1  UNL1        0.0020
     29  C         25.1160  -21.9180  -12.7110 C.2     1  UNL1        0.0210
     30  C         23.7580  -21.9170  -12.3760 C.2     1  UNL1        0.0370
     31 BR         22.5320  -21.2310  -13.6610 Br      1  UNL1       -0.0490
@<TRIPOS>BOND
     1    31    30    1
     2    29    30    1
     3    29    28    2
     4    30    25    2
     5    28    27    1
     6    24    23    1
     7    25    23    1
     8    25    26    1
     9     4     5    2
    10     4     3    1
    11    23    21   am
    12     5     6    1
    13    27    26    2
    14    21     3    1
    15    21    22    2
    16     3     2    2
    17     7     6    1
    18     6     1    2
    19     2     1    1
    20     1     8    1
    21    10     8    2
    22     8     9    2
    23     8    11    1
    24    12    11    1
    25    11    13    1
    26    20    13    2
    27    20    18    1
    28    13    14    1
    29    19    18    1
    30    18    17    2
    31    14    16    1
    32    14    15    2
    33    17    15    1
