@<TRIPOS>MOLECULE
14137_out_ligand_01.pdbqt
 28 31 0 0 0
SMALL
GASTEIGER

@<TRIPOS>ATOM
      1  N         20.6210  -22.7130   -9.8080 N.am    1  UNL1       -0.3230
      2  C         20.8450  -22.5950   -8.4490 C.2     1  UNL1        0.2570
      3  O         21.8690  -22.2250   -7.8910 O.2     1  UNL1       -0.2670
      4  H         19.6800  -22.9650  -10.0890 H       1  UNL1        0.1690
      5  C         21.5390  -22.4790  -10.8510 C.2     1  UNL1        0.0350
      6  C         22.8100  -23.0570  -10.9170 C.2     1  UNL1        0.0310
      7  C         23.6660  -22.7780  -11.9870 C.2     1  UNL1        0.0270
      8  C         23.2410  -21.9240  -13.0060 C.2     1  UNL1        0.0740
      9  C         21.9800  -21.3300  -12.9530 C.2     1  UNL1        0.0270
     10  C         21.1330  -21.6120  -11.8760 C.2     1  UNL1        0.0310
     11  S         24.3230  -21.5660  -14.3630 S.O2    1  UNL1        0.2390
     12  O         23.7420  -22.1080  -15.5690 O.2     1  UNL1       -0.2060
     13  O         25.6790  -21.8480  -13.9570 O.2     1  UNL1       -0.2060
     14  N         24.1600  -19.8930  -14.4880 N.3     1  UNL1       -0.2250
     15  H         23.4260  -19.5160  -13.8900 H       1  UNL1        0.1360
     16  H         24.0140  -19.6510  -15.4690 H       1  UNL1        0.1360
     17  C         19.6620  -22.9100   -7.6130 C.2     1  UNL1        0.0430
     18  C         18.8940  -24.0380   -7.9840 C.2     1  UNL1        0.0180
     19  C         17.7880  -24.4380   -7.2220 C.2     1  UNL1        0.0090
     20  C         17.4590  -23.7010   -6.0970 C.2     1  UNL1       -0.0460
     21  C         18.2030  -22.5970   -5.7640 C.2     1  UNL1       -0.0120
     22  C         16.3330  -23.9160   -5.1280 C.2     1  UNL1        0.0440
     23  C         17.6930  -22.0070   -4.6350 C.2     1  UNL1       -0.0460
     24  C         19.3100  -22.1300   -6.4780 C.2     1  UNL1       -0.0090
     25  C         18.2830  -20.8600   -4.1350 C.2     1  UNL1        0.0080
     26  C         16.5000  -22.7560   -4.1150 C.2     1  UNL1        0.0440
     27  C         19.3870  -20.3240   -4.8110 C.2     1  UNL1        0.0010
     28  C         19.8970  -20.9420   -5.9700 C.2     1  UNL1        0.0130
@<TRIPOS>BOND
     1    12    11    2
     2    16    14    1
     3    14    11    1
     4    14    15    1
     5    11    13    2
     6    11     8    1
     7     8     9    2
     8     8     7    1
     9     9    10    1
    10     7     6    2
    11    10     5    2
    12     6     5    1
    13     5     1    1
    14     4     1    1
    15     1     2   am
    16     2     3    2
    17     2    17    1
    18    18    17    2
    19    18    19    1
    20    17    24    1
    21    19    20    2
    22    24    28    1
    23    24    21    2
    24    20    21    1
    25    20    22    1
    26    28    27    2
    27    21    23    1
    28    22    26    2
    29    27    25    1
    30    23    25    2
    31    23    26    1
