@<TRIPOS>MOLECULE
14136_out_ligand_01.pdbqt
 28 31 0 0 0
SMALL
GASTEIGER

@<TRIPOS>ATOM
      1  C         20.1580  -21.9480  -11.2200 C.2     1  UNL1        0.0330
      2  C         19.0060  -21.3310  -11.7690 C.2     1  UNL1        0.0180
      3  C         17.7380  -21.5660  -11.2210 C.2     1  UNL1        0.0190
      4  C         17.6640  -22.4230  -10.1400 C.2     1  UNL1        0.0480
      5  C         18.7860  -23.0390   -9.6140 C.2     1  UNL1        0.0490
      6  C         20.0480  -22.8280  -10.1320 C.2     1  UNL1        0.0350
      7  C         18.3450  -23.8770   -8.4990 C.2     1  UNL1        0.2620
      8  O         19.0890  -24.5490   -7.8120 O.2     1  UNL1       -0.2670
      9  N         16.9890  -23.7270   -8.4160 N.am    1  UNL1       -0.2760
     10  C         16.5090  -22.8690   -9.3650 C.2     1  UNL1        0.2620
     11  O         15.3670  -22.5060   -9.5670 O.2     1  UNL1       -0.2670
     12  C         21.5120  -21.7190  -11.8000 C.2     1  UNL1        0.2560
     13  O         21.5970  -21.0280  -12.8060 O.2     1  UNL1       -0.2670
     14  N         22.5500  -22.3540  -11.1460 N.am    1  UNL1       -0.3220
     15  H         22.3160  -22.9940  -10.3980 H       1  UNL1        0.1690
     16  C         23.9200  -22.2700  -11.4730 C.2     1  UNL1        0.0520
     17  C         24.7200  -21.4170  -10.7080 C.2     1  UNL1        0.0320
     18  C         26.0790  -21.2910  -10.9910 C.2     1  UNL1        0.0210
     19  C         26.6010  -22.0260  -12.0400 C.2     1  UNL1        0.1160
     20  N         25.8670  -22.8580  -12.8050 N.2     1  UNL1       -0.2710
     21  C         24.5450  -22.9630  -12.5070 C.2     1  UNL1        0.1450
     22  C         16.1540  -24.4250   -7.4630 C.3     1  UNL1        0.1750
     23  C         16.0560  -23.6760   -6.1640 C.2     1  UNL1       -0.0220
     24  C         14.9490  -22.8750   -5.8650 C.2     1  UNL1        0.0120
     25  C         14.9060  -22.1800   -4.6610 C.2     1  UNL1        0.0200
     26  C         15.9790  -22.3020   -3.7940 C.2     1  UNL1        0.1160
     27  N         17.0700  -23.0550   -4.0530 N.2     1  UNL1       -0.2730
     28  C         17.0870  -23.7190   -5.2310 C.2     1  UNL1        0.1240
@<TRIPOS>BOND
     1    13    12    2
     2    20    21    1
     3    20    19    2
     4    21    16    2
     5    19    18    1
     6    12     1    1
     7    12    14   am
     8     2     3    1
     9     2     1    2
    10    16    14    1
    11    16    17    1
    12     3     4    2
    13     1     6    1
    14    14    15    1
    15    18    17    2
    16     4     5    1
    17     4    10    1
    18     6     5    2
    19     5     7    1
    20    11    10    2
    21    10     9   am
    22     7     9   am
    23     7     8    2
    24     9    22    1
    25    22    23    1
    26    23    24    2
    27    23    28    1
    28    24    25    1
    29    28    27    2
    30    25    26    2
    31    27    26    1
