@<TRIPOS>MOLECULE
1414_out_ligand_01.pdbqt
 35 37 0 0 0
SMALL
GASTEIGER

@<TRIPOS>ATOM
      1  C         25.5480  -20.1250  -17.4420 C.3     1  UNL1        0.0500
      2  C         25.5860  -20.7380  -16.0670 C.2     1  UNL1       -0.0340
      3  C         26.0470  -19.8530  -15.0140 C.2     1  UNL1        0.0330
      4  C         26.1130  -20.2470  -13.7310 C.2     1  UNL1        0.0120
      5  C         26.6010  -19.2950  -12.6710 C.3     1  UNL1        0.0680
      6  N         25.7360  -21.5470  -13.3900 N.am    1  UNL1       -0.3080
      7  C         25.3390  -22.4790  -14.3550 C.2     1  UNL1        0.2690
      8  O         25.1080  -23.6570  -14.0690 O.2     1  UNL1       -0.2660
      9  C         25.2400  -22.0060  -15.7690 C.2     1  UNL1        0.1180
     10  C         24.8010  -22.9400  -16.7470 C.1     1  UNL1        0.1050
     11  N         24.4580  -23.6730  -17.5790 N.1     1  UNL1       -0.1910
     12  C         25.8040  -22.0290  -12.0040 C.3     1  UNL1        0.2350
     13  C         24.4980  -21.7480  -11.2500 C.2     1  UNL1        0.2400
     14  O         24.4910  -21.0250  -10.2580 O.2     1  UNL1       -0.2710
     15  N         23.4080  -22.3990  -11.8050 N.am    1  UNL1       -0.3260
     16  H         23.6120  -23.0060  -12.6000 H       1  UNL1        0.1690
     17  C         22.0720  -22.3830  -11.3620 C.2     1  UNL1        0.0340
     18  C         21.1470  -21.6990  -12.1620 C.2     1  UNL1        0.0300
     19  C         19.7960  -21.6370  -11.8040 C.2     1  UNL1        0.0190
     20  C         19.3540  -22.2510  -10.6270 C.2     1  UNL1        0.0320
     21  C         20.2750  -22.9410   -9.8320 C.2     1  UNL1        0.0190
     22  C         21.6260  -23.0050  -10.1960 C.2     1  UNL1        0.0300
     23  C         17.9260  -22.2270  -10.1970 C.2     1  UNL1        0.2510
     24  O         17.1150  -21.5300  -10.7960 O.2     1  UNL1       -0.2680
     25  N         17.5850  -23.0360   -9.1330 N.am    1  UNL1       -0.3530
     26  H         18.2350  -23.7400   -8.8170 H       1  UNL1        0.1630
     27  C         16.2130  -23.1670   -8.6950 C.3     1  UNL1        0.1610
     28  C         16.0990  -22.9180   -7.2130 C.2     1  UNL1       -0.0390
     29  C         14.9320  -23.2660   -6.5140 C.2     1  UNL1        0.0120
     30  C         14.8270  -23.0150   -5.1440 C.2     1  UNL1        0.0440
     31  C         15.8840  -22.4110   -4.4690 C.2     1  UNL1        0.1380
     32  F         15.7560  -22.1770   -3.1540 F       1  UNL1       -0.2040
     33  C         17.0480  -22.0550   -5.1480 C.2     1  UNL1        0.0730
     34 CL         18.3520  -21.3010   -4.3150 Cl      1  UNL1       -0.0810
     35  C         17.1580  -22.3060   -6.5160 C.2     1  UNL1        0.0350
@<TRIPOS>BOND
     1    11    10    3
     2     1     2    1
     3    10     9    1
     4     2     9    2
     5     2     3    1
     6     9     7    1
     7     3     4    2
     8     7     8    2
     9     7     6   am
    10     4     6    1
    11     4     5    1
    12     6    12    1
    13    16    15    1
    14    18    19    1
    15    18    17    2
    16    12    13    1
    17    15    17    1
    18    15    13   am
    19    19    20    2
    20    17    22    1
    21    13    14    2
    22    24    23    2
    23    20    23    1
    24    20    21    1
    25    23    25   am
    26    22    21    2
    27    25    26    1
    28    25    27    1
    29    27    28    1
    30    28    35    2
    31    28    29    1
    32    35    33    1
    33    29    30    2
    34    33    31    2
    35    33    34    1
    36    30    31    1
    37    31    32    1
