@<TRIPOS>MOLECULE
14151_out_ligand_01.pdbqt
 32 35 0 0 0
SMALL
GASTEIGER

@<TRIPOS>ATOM
      1  N         23.5120  -22.5280  -11.5770 N.am    1  UNL1       -0.3270
      2  C         23.9000  -21.7730  -10.4850 C.2     1  UNL1        0.2310
      3  O         24.8530  -20.9970  -10.4450 O.2     1  UNL1       -0.2720
      4  H         22.7310  -23.1630  -11.4090 H       1  UNL1        0.1690
      5  C         22.9860  -21.9320   -9.2780 C.3     1  UNL1        0.1840
      6  S         21.7250  -23.2170   -9.5620 S.3     1  UNL1       -0.1000
      7  C         20.4760  -22.2610  -10.3740 C.2     1  UNL1        0.1080
      8  N         20.8630  -21.5560  -11.4650 N.2     1  UNL1       -0.2340
      9  C         19.9280  -20.8630  -12.1280 C.2     1  UNL1        0.2350
     10  N         18.6300  -20.8070  -11.8560 N.2     1  UNL1       -0.2340
     11  C         18.2870  -21.5300  -10.7780 C.ar    1  UNL1        0.1130
     12  S         16.6610  -21.5950  -10.3080 S.2     1  UNL1       -0.0730
     13  C         19.1270  -22.2750   -9.9620 C.ar    1  UNL1        0.0430
     14  C         17.0040  -22.6360   -8.9990 C.ar    1  UNL1       -0.0080
     15  C         18.3670  -22.8830   -8.8630 C.ar    1  UNL1       -0.0290
     16  C         15.8480  -23.1320   -8.1670 C.3     1  UNL1        0.0460
     17  C         18.9770  -23.7020   -7.7450 C.3     1  UNL1        0.0400
     18  C         18.1700  -23.7540   -6.4480 C.3     1  UNL1        0.0050
     19  C         16.9680  -24.6980   -6.4820 C.3     1  UNL1        0.0010
     20  C         16.0510  -24.5700   -7.6970 C.3     1  UNL1        0.0050
     21  C         24.1030  -22.5830  -12.8520 C.2     1  UNL1        0.0340
     22  C         23.7600  -21.5670  -13.7560 C.2     1  UNL1        0.0310
     23  C         24.3040  -21.5400  -15.0430 C.2     1  UNL1        0.0270
     24  C         25.1970  -22.5410  -15.4310 C.2     1  UNL1        0.0740
     25  C         25.5580  -23.5520  -14.5380 C.2     1  UNL1        0.0270
     26  C         25.0060  -23.5730  -13.2520 C.2     1  UNL1        0.0310
     27  S         25.9140  -22.5110  -17.0450 S.O2    1  UNL1        0.2390
     28  O         27.1210  -23.3050  -17.0420 O.2     1  UNL1       -0.2060
     29  O         25.8760  -21.1610  -17.5600 O.2     1  UNL1       -0.2060
     30  N         24.7890  -23.3720  -17.9450 N.3     1  UNL1       -0.2250
     31  H         24.1240  -22.7300  -18.3760 H       1  UNL1        0.1360
     32  H         25.2690  -23.9810  -18.6090 H       1  UNL1        0.1360
@<TRIPOS>BOND
     1    32    30    1
     2    31    30    1
     3    30    27    1
     4    29    27    2
     5    27    28    2
     6    27    24    1
     7    24    23    2
     8    24    25    1
     9    23    22    1
    10    25    26    2
    11    22    21    2
    12    26    21    1
    13    21     1    1
    14     9    10    2
    15     9     8    1
    16    10    11    1
    17     1     4    1
    18     1     2   am
    19     8     7    2
    20    11    12   ar
    21    11    13   ar
    22     2     3    2
    23     2     5    1
    24     7    13    1
    25     7     6    1
    26    12    14   ar
    27    13    15   ar
    28     6     5    1
    29    14    15   ar
    30    14    16    1
    31    15    17    1
    32    16    20    1
    33    17    18    1
    34    20    19    1
    35    19    18    1
