@<TRIPOS>MOLECULE
14152_out_ligand_01.pdbqt
 27 30 0 0 0
SMALL
GASTEIGER

@<TRIPOS>ATOM
      1  C         19.4580  -22.1590  -10.0280 C.2     1  UNL1        0.0330
      2  C         19.0380  -21.4220  -11.1650 C.2     1  UNL1        0.0180
      3  C         19.9360  -21.1230  -12.1960 C.2     1  UNL1        0.0190
      4  C         21.2320  -21.5830  -12.0610 C.2     1  UNL1        0.0480
      5  C         21.6400  -22.3150  -10.9610 C.2     1  UNL1        0.0490
      6  C         20.7780  -22.6250   -9.9270 C.2     1  UNL1        0.0350
      7  C         23.0530  -22.6380  -11.1470 C.2     1  UNL1        0.2620
      8  O         23.7250  -23.2580  -10.3460 O.2     1  UNL1       -0.2670
      9  N         23.4170  -22.1020  -12.3510 N.am    1  UNL1       -0.2740
     10  C         22.3840  -21.4380  -12.9500 C.2     1  UNL1        0.2620
     11  O         22.3570  -20.8100  -13.9900 O.2     1  UNL1       -0.2670
     12  C         18.5110  -22.4960   -8.9300 C.2     1  UNL1        0.2560
     13  O         17.3350  -22.6790   -9.2190 O.2     1  UNL1       -0.2670
     14  N         19.0760  -22.6000   -7.6740 N.am    1  UNL1       -0.3220
     15  H         20.0830  -22.5410   -7.6040 H       1  UNL1        0.1690
     16  C         18.3940  -22.8730   -6.4680 C.2     1  UNL1        0.0520
     17  C         18.2920  -21.8400   -5.5320 C.2     1  UNL1        0.0320
     18  C         17.6250  -22.0530   -4.3270 C.2     1  UNL1        0.0210
     19  C         17.0720  -23.3000   -4.0930 C.2     1  UNL1        0.1160
     20  N         17.1450  -24.3220   -4.9690 N.2     1  UNL1       -0.2710
     21  C         17.8030  -24.0890   -6.1360 C.2     1  UNL1        0.1450
     22  C         24.7390  -22.2300  -12.9220 C.3     1  UNL1        0.2000
     23  C         25.5610  -21.0580  -12.5190 C.2     1  UNL1        0.0700
     24  C         26.0590  -20.6230  -11.3060 C.2     1  UNL1        0.0360
     25  C         26.7750  -19.4320  -11.5720 C.2     1  UNL1        0.0270
     26  C         26.6680  -19.2160  -12.9270 C.2     1  UNL1        0.1420
     27  O         25.9310  -20.1970  -13.5080 O.2     1  UNL1       -0.3250
@<TRIPOS>BOND
     1    11    10    2
     2    27    26    1
     3    27    23    1
     4    10     9   am
     5    10     4    1
     6    26    25    2
     7    22    23    1
     8    22     9    1
     9    23    24    2
    10     9     7   am
    11     3     4    2
    12     3     2    1
    13     4     5    1
    14    25    24    1
    15     2     1    2
    16     7     5    1
    17     7     8    2
    18     5     6    2
    19     1     6    1
    20     1    12    1
    21    13    12    2
    22    12    14   am
    23    14    15    1
    24    14    16    1
    25    16    21    2
    26    16    17    1
    27    21    20    1
    28    17    18    2
    29    20    19    2
    30    18    19    1
