@<TRIPOS>MOLECULE
14166_out_ligand_01.pdbqt
 33 35 0 0 0
SMALL
GASTEIGER

@<TRIPOS>ATOM
      1  C         22.1910  -21.7870  -12.1770 C.2     1  UNL1        0.0330
      2  C         21.0730  -21.0940  -12.6480 C.2     1  UNL1        0.0170
      3  C         19.8390  -21.2370  -12.0060 C.2     1  UNL1        0.0090
      4  C         19.6980  -22.0540  -10.8690 C.2     1  UNL1       -0.0390
      5  C         18.3330  -22.1700  -10.2490 C.3     1  UNL1        0.0500
      6  C         20.8370  -22.7340  -10.3920 C.2     1  UNL1        0.0860
      7  C         22.0720  -22.6020  -11.0490 C.2     1  UNL1        0.0420
      8  C         23.5270  -21.6600  -12.8270 C.2     1  UNL1        0.2560
      9  N         23.5350  -20.9270  -13.9950 N.am    1  UNL1       -0.3210
     10  H         22.6530  -20.6030  -14.3750 H       1  UNL1        0.1690
     11  O         24.4830  -22.2160  -12.3000 O.2     1  UNL1       -0.2670
     12  C         24.6370  -20.6120  -14.8220 C.2     1  UNL1        0.0680
     13  C         25.5500  -19.5930  -14.5420 C.2     1  UNL1        0.0320
     14  C         26.6140  -19.3440  -15.4110 C.2     1  UNL1        0.0020
     15  C         26.7700  -20.1100  -16.5650 C.2     1  UNL1        0.0030
     16  C         25.8630  -21.1310  -16.8560 C.2     1  UNL1        0.0390
     17  C         24.7940  -21.3870  -15.9930 C.2     1  UNL1        0.0950
     18  O         23.8380  -22.3600  -16.1880 O.2     1  UNL1       -0.3490
     19  C         24.2190  -23.5030  -16.9510 C.3     1  UNL1        0.1710
     20  C         23.2580  -23.6220  -18.1220 C.3     1  UNL1        0.0340
     21  S         20.7870  -23.8120   -8.9620 S.O2    1  UNL1        0.2630
     22  O         19.7100  -24.7630   -9.1430 O.2     1  UNL1       -0.2000
     23  O         22.1320  -24.2820   -8.7050 O.2     1  UNL1       -0.2000
     24  N         20.3050  -22.7800   -7.7170 N.pl3   1  UNL1       -0.2800
     25  H         21.0930  -22.3700   -7.2230 H       1  UNL1        0.1790
     26  C         19.0950  -23.0250   -7.0020 C.2     1  UNL1        0.0480
     27  C         18.3360  -24.1630   -7.2860 C.2     1  UNL1        0.0310
     28  C         17.1770  -24.4420   -6.5630 C.2     1  UNL1        0.0090
     29  C         16.7510  -23.5800   -5.5500 C.2     1  UNL1       -0.0610
     30  C         15.5060  -23.8950   -4.7750 C.3     1  UNL1        0.0480
     31  C         17.4940  -22.4230   -5.2870 C.2     1  UNL1        0.0150
     32  C         18.6640  -22.1270   -6.0090 C.2     1  UNL1       -0.0340
     33  C         19.4250  -20.8760   -5.6690 C.3     1  UNL1        0.0500
@<TRIPOS>BOND
     1    20    19    1
     2    19    18    1
     3    16    15    2
     4    16    17    1
     5    15    14    1
     6    18    17    1
     7    17    12    2
     8    14    13    2
     9    12    13    1
    10    12     9    1
    11    10     9    1
    12     9     8   am
    13     8    11    2
    14     8     1    1
    15     2     1    2
    16     2     3    1
    17     1     7    1
    18     3     4    2
    19     7     6    2
    20     4     6    1
    21     4     5    1
    22     6    21    1
    23    22    21    2
    24    21    23    2
    25    21    24    1
    26    24    25    1
    27    24    26    1
    28    27    26    2
    29    27    28    1
    30    26    32    1
    31    28    29    2
    32    32    33    1
    33    32    31    2
    34    29    31    1
    35    29    30    1
