@<TRIPOS>MOLECULE
14163_out_ligand_01.pdbqt
 30 32 0 0 0
SMALL
GASTEIGER

@<TRIPOS>ATOM
      1  C         22.9350  -22.1840  -11.7040 C.2     1  UNL1        0.0720
      2  C         23.5790  -22.9170  -12.7110 C.2     1  UNL1        0.0220
      3  C         24.9010  -23.2960  -12.5330 C.2     1  UNL1        0.0200
      4  C         25.5280  -22.9240  -11.3580 C.2     1  UNL1        0.1180
      5  N         24.9290  -22.2110  -10.3770 N.2     1  UNL1       -0.2480
      6  C         23.6420  -21.8220  -10.5470 C.2     1  UNL1        0.1180
      7  C         21.5320  -21.7470  -11.8960 C.2     1  UNL1        0.2590
      8  O         21.2660  -21.0630  -12.8780 O.2     1  UNL1       -0.2670
      9  N         20.6570  -22.1780  -10.9130 N.am    1  UNL1       -0.3230
     10  H         21.0670  -22.6540  -10.1190 H       1  UNL1        0.1690
     11  C         19.2680  -21.9540  -10.8430 C.2     1  UNL1        0.0350
     12  C         18.7560  -20.8890  -11.5950 C.2     1  UNL1        0.0290
     13  C         17.3910  -20.5960  -11.5820 C.2     1  UNL1        0.0030
     14  C         16.5220  -21.3660  -10.8120 C.2     1  UNL1        0.0160
     15  C         17.0130  -22.4330  -10.0450 C.2     1  UNL1        0.0500
     16  C         18.3900  -22.7200  -10.0720 C.2     1  UNL1        0.0450
     17  C         16.0620  -23.2770   -9.2320 C.3     1  UNL1        0.4170
     18  F         16.6590  -24.3110   -8.5800 F       1  UNL1       -0.1660
     19  F         15.0810  -23.8310   -9.9980 F       1  UNL1       -0.1660
     20  F         15.4180  -22.5570   -8.2690 F       1  UNL1       -0.1660
     21  N         22.9900  -21.1410   -9.5010 N.pl3   1  UNL1       -0.2760
     22  H         23.4500  -20.2330   -9.3820 H       1  UNL1        0.1290
     23  C         22.8710  -21.8600   -8.2320 C.3     1  UNL1        0.0980
     24  C         21.6700  -22.8130   -8.2370 C.3     1  UNL1        0.0530
     25  C         20.5770  -22.3340   -7.3140 C.2     1  UNL1       -0.0570
     26  C         20.7400  -21.1630   -6.5610 C.2     1  UNL1        0.0070
     27  C         19.7370  -20.7390   -5.6880 C.2     1  UNL1        0.0010
     28  C         18.5660  -21.4830   -5.5560 C.2     1  UNL1        0.0000
     29  C         18.3950  -22.6510   -6.2970 C.2     1  UNL1        0.0010
     30  C         19.3960  -23.0760   -7.1710 C.2     1  UNL1        0.0070
@<TRIPOS>BOND
     1     8     7    2
     2     2     3    1
     3     2     1    2
     4     3     4    2
     5     7     1    1
     6     7     9   am
     7     1     6    1
     8    12    13    1
     9    12    11    2
    10    13    14    2
    11     4     5    1
    12     9    11    1
    13     9    10    1
    14    11    16    1
    15    14    15    1
    16     6     5    2
    17     6    21    1
    18    16    15    2
    19    15    17    1
    20    19    17    1
    21    21    22    1
    22    21    23    1
    23    17    18    1
    24    17    20    1
    25    24    23    1
    26    24    25    1
    27    25    30    2
    28    25    26    1
    29    30    29    1
    30    26    27    2
    31    29    28    2
    32    27    28    1
