@<TRIPOS>MOLECULE
14161_out_ligand_01.pdbqt
 33 36 0 0 0
SMALL
GASTEIGER

@<TRIPOS>ATOM
      1  C         17.7570  -22.1070  -10.3000 C.2     1  UNL1        0.0540
      2  C         17.4930  -20.8260  -10.8100 C.2     1  UNL1        0.0190
      3  C         18.4240  -20.1980  -11.6390 C.2     1  UNL1        0.0010
      4  C         19.6130  -20.8450  -11.9730 C.2     1  UNL1        0.0020
      5  C         19.8750  -22.1270  -11.4820 C.2     1  UNL1        0.0250
      6  C         18.9490  -22.7670  -10.6540 C.2     1  UNL1        0.0380
      7  N         19.2890  -24.0500  -10.1020 N.pl3   1  UNL1       -0.1800
      8  H         18.4650  -24.6230   -9.8620 H       1  UNL1        0.1460
      9  S         20.3280  -24.0370   -8.7580 S.O2    1  UNL1        0.2450
     10  O         19.7240  -23.2540   -7.7000 O.2     1  UNL1       -0.2060
     11  O         20.7540  -25.4030   -8.5350 O.2     1  UNL1       -0.2060
     12  C         21.7370  -23.1590   -9.3880 C.2     1  UNL1        0.0750
     13  C         22.2300  -22.0660   -8.6740 C.2     1  UNL1        0.0260
     14  C         23.3630  -21.3990   -9.1390 C.2     1  UNL1        0.0140
     15  C         24.0040  -21.8120  -10.3180 C.2     1  UNL1       -0.0260
     16  C         25.1530  -21.1560  -10.7900 C.2     1  UNL1        0.0120
     17  C         23.4870  -22.9100  -11.0480 C.2     1  UNL1       -0.0250
     18  C         25.7800  -21.5740  -11.9640 C.2     1  UNL1        0.0010
     19  C         25.2670  -22.6500  -12.6840 C.2     1  UNL1        0.0010
     20  C         24.1280  -23.3150  -12.2290 C.2     1  UNL1        0.0120
     21  C         22.3470  -23.5780  -10.5740 C.2     1  UNL1        0.0370
     22  C         16.7670  -22.7910   -9.4270 C.2     1  UNL1        0.2540
     23  N         16.8850  -22.5670   -8.0760 N.am    1  UNL1       -0.3490
     24  H         17.7250  -22.1310   -7.7210 H       1  UNL1        0.1630
     25  O         15.9200  -23.5250   -9.9290 O.2     1  UNL1       -0.2680
     26  C         16.0510  -23.2600   -7.1070 C.3     1  UNL1        0.1140
     27  C         16.1120  -24.7760   -7.3190 C.3     1  UNL1        0.0370
     28  C         16.4510  -22.8090   -5.7120 C.2     1  UNL1       -0.0360
     29  C         17.6710  -22.1340   -5.5370 C.2     1  UNL1        0.0090
     30  C         18.0940  -21.7320   -4.2680 C.2     1  UNL1        0.0010
     31  C         17.3060  -22.0070   -3.1530 C.2     1  UNL1        0.0000
     32  C         16.1010  -22.6890   -3.3060 C.2     1  UNL1        0.0010
     33  C         15.6780  -23.0920   -4.5760 C.2     1  UNL1        0.0090
@<TRIPOS>BOND
     1    19    20    2
     2    19    18    1
     3    20    17    1
     4     4     3    2
     5     4     5    1
     6    18    16    2
     7     3     2    1
     8     5     6    2
     9    17    21    1
    10    17    15    2
    11     2     1    2
    12    16    15    1
    13     6     1    1
    14     6     7    1
    15    21    12    2
    16    15    14    1
    17     1    22    1
    18     7     8    1
    19     7     9    1
    20    25    22    2
    21    22    23   am
    22    12     9    1
    23    12    13    1
    24    14    13    2
    25     9    11    2
    26     9    10    2
    27    23    24    1
    28    23    26    1
    29    27    26    1
    30    26    28    1
    31    28    29    2
    32    28    33    1
    33    29    30    1
    34    33    32    2
    35    30    31    2
    36    32    31    1
