@<TRIPOS>MOLECULE
14173_out_ligand_01.pdbqt
 33 36 0 0 0
SMALL
GASTEIGER

@<TRIPOS>ATOM
      1  C         25.5740  -20.9680  -13.5920 C.ar    1  UNL1        0.0980
      2  S         25.2730  -21.2900  -15.2540 S.2     1  UNL1       -0.0750
      3  C         25.9370  -19.8240  -15.6950 C.ar    1  UNL1       -0.0070
      4  C         26.3910  -19.0800  -14.6440 C.ar    1  UNL1       -0.0210
      5  C         26.1900  -19.7330  -13.4080 C.ar    1  UNL1        0.0850
      6  C         26.5610  -19.2090  -12.1310 C.1     1  UNL1        0.1030
      7  N         26.8540  -18.8170  -11.0780 N.1     1  UNL1       -0.1910
      8  C         26.9700  -17.7950  -15.1100 C.3     1  UNL1        0.0420
      9  C         26.4750  -17.7260  -16.5900 C.3     1  UNL1        0.0100
     10  C         26.1240  -19.1850  -17.0180 C.3     1  UNL1        0.0470
     11  N         25.2230  -21.8770  -12.6060 N.am    1  UNL1       -0.3180
     12  C         23.9610  -22.1180  -12.0870 C.2     1  UNL1        0.2460
     13  O         22.8980  -21.6070  -12.4250 O.2     1  UNL1       -0.2710
     14  H         25.9810  -22.3810  -12.1530 H       1  UNL1        0.1690
     15  C         23.9880  -23.1870  -10.9850 C.3     1  UNL1        0.2780
     16  O         23.7090  -22.7010   -9.6760 O.2     1  UNL1       -0.3420
     17  C         22.5040  -23.0170   -9.1110 C.2     1  UNL1        0.0690
     18  C         21.7270  -24.1400   -9.3970 C.2     1  UNL1        0.0380
     19  C         20.4950  -24.3220   -8.7560 C.2     1  UNL1        0.0200
     20  C         20.0380  -23.3880   -7.8190 C.2     1  UNL1        0.0320
     21  C         20.8060  -22.2520   -7.5460 C.2     1  UNL1        0.0200
     22  C         22.0350  -22.0770   -8.1890 C.2     1  UNL1        0.0380
     23  C         18.7180  -23.6210   -7.1650 C.2     1  UNL1        0.2560
     24  N         18.1400  -22.4930   -6.6120 N.am    1  UNL1       -0.3220
     25  H         18.7090  -21.6590   -6.6010 H       1  UNL1        0.1690
     26  O         18.2830  -24.7660   -7.1420 O.2     1  UNL1       -0.2670
     27  C         16.8820  -22.3860   -5.9710 C.2     1  UNL1        0.0410
     28  C         15.6810  -22.3120   -6.6870 C.2     1  UNL1        0.0300
     29  C         14.4540  -22.2000   -6.0280 C.2     1  UNL1        0.0020
     30  C         14.4100  -22.1570   -4.6390 C.2     1  UNL1        0.0010
     31  C         15.5940  -22.2240   -3.9100 C.2     1  UNL1        0.0090
     32  C         16.8370  -22.3380   -4.5600 C.2     1  UNL1       -0.0350
     33  C         18.0780  -22.4060   -3.7100 C.3     1  UNL1        0.0500
@<TRIPOS>BOND
     1    10     9    1
     2    10     3    1
     3     9     8    1
     4     3     2   ar
     5     3     4   ar
     6     2     1   ar
     7     8     4    1
     8     4     5   ar
     9     1     5   ar
    10     1    11    1
    11     5     6    1
    12    11    14    1
    13    11    12   am
    14    13    12    2
    15     6     7    3
    16    12    15    1
    17    15    16    1
    18    16    17    1
    19    18    17    2
    20    18    19    1
    21    17    22    1
    22    19    20    2
    23    22    21    2
    24    20    21    1
    25    20    23    1
    26    23    26    2
    27    23    24   am
    28    28    29    1
    29    28    27    2
    30    24    25    1
    31    24    27    1
    32    29    30    2
    33    27    32    1
    34    30    31    1
    35    32    31    2
    36    32    33    1
