@<TRIPOS>MOLECULE
14179_out_ligand_01.pdbqt
 30 32 0 0 0
SMALL
GASTEIGER

@<TRIPOS>ATOM
      1  C         16.8400  -21.0480  -11.1140 C.3     1  UNL1        0.0500
      2  C         18.2370  -21.5790  -10.9370 C.2     1  UNL1       -0.0390
      3  C         19.2530  -21.0670  -11.7620 C.2     1  UNL1        0.0090
      4  C         20.5730  -21.5110  -11.6420 C.2     1  UNL1        0.0170
      5  C         20.9040  -22.4670  -10.6800 C.2     1  UNL1        0.0330
      6  C         19.9090  -22.9900   -9.8480 C.2     1  UNL1        0.0420
      7  C         18.5840  -22.5450   -9.9710 C.2     1  UNL1        0.0810
      8  S         17.3700  -23.2480   -8.8570 S.O2    1  UNL1        0.2460
      9  O         18.0490  -24.2000   -8.0050 O.2     1  UNL1       -0.2060
     10  O         16.2200  -23.6330   -9.6460 O.2     1  UNL1       -0.2060
     11  N         16.9360  -21.8570   -7.9720 N.pl3   1  UNL1       -0.1810
     12  H         16.1500  -21.4040   -8.4360 H       1  UNL1        0.1460
     13  C         16.7000  -22.0800   -6.5710 C.2     1  UNL1        0.0290
     14  C         15.4250  -22.5000   -6.1820 C.2     1  UNL1        0.0250
     15  C         15.1360  -22.7220   -4.8420 C.2     1  UNL1        0.0020
     16  C         16.1250  -22.5270   -3.8810 C.2     1  UNL1        0.0070
     17  C         17.4140  -22.1030   -4.2450 C.2     1  UNL1       -0.0540
     18  C         18.4330  -21.9090   -3.1540 C.3     1  UNL1        0.0490
     19  C         17.7110  -21.8630   -5.6090 C.2     1  UNL1       -0.0340
     20  C         19.0820  -21.4020   -6.0380 C.3     1  UNL1        0.0500
     21  C         22.2890  -22.9870  -10.5370 C.2     1  UNL1        0.2520
     22  O         22.5640  -23.7320   -9.6050 O.2     1  UNL1       -0.2680
     23  N         23.1970  -22.5700  -11.4880 N.am    1  UNL1       -0.3520
     24  H         22.9050  -21.9280  -12.2110 H       1  UNL1        0.1630
     25  C         24.5700  -23.0650  -11.5100 C.3     1  UNL1        0.0840
     26  C         25.5310  -21.9630  -11.0290 C.3     1  UNL1        0.0250
     27  C         26.9280  -22.1350  -11.6100 C.3     1  UNL1        0.0020
     28  C         26.9160  -22.0530  -13.1390 C.3     1  UNL1        0.0000
     29  C         25.6110  -22.5480  -13.7660 C.3     1  UNL1        0.0020
     30  C         24.9360  -23.6100  -12.9040 C.3     1  UNL1        0.0250
@<TRIPOS>BOND
     1    29    28    1
     2    29    30    1
     3    28    27    1
     4    30    25    1
     5    24    23    1
     6     3     4    1
     7     3     2    2
     8     4     5    2
     9    27    26    1
    10    25    23    1
    11    25    26    1
    12    23    21   am
    13     1     2    1
    14     2     7    1
    15     5    21    1
    16     5     6    1
    17    21    22    2
    18     7     6    2
    19     7     8    1
    20    10     8    2
    21     8     9    2
    22     8    11    1
    23    12    11    1
    24    11    13    1
    25    13    14    2
    26    13    19    1
    27    14    15    1
    28    20    19    1
    29    19    17    2
    30    15    16    2
    31    17    16    1
    32    17    18    1
