@<TRIPOS>MOLECULE
14182_out_ligand_01.pdbqt
 33 36 0 0 0
SMALL
GASTEIGER

@<TRIPOS>ATOM
      1  C         20.3910  -22.7390  -10.5960 C.2     1  UNL1        0.0330
      2  C         19.7710  -21.7670  -11.4210 C.2     1  UNL1        0.0180
      3  C         20.4840  -21.1390  -12.4490 C.2     1  UNL1        0.0190
      4  C         21.8080  -21.4990  -12.6120 C.2     1  UNL1        0.0480
      5  C         22.4200  -22.4360  -11.7980 C.2     1  UNL1        0.0490
      6  C         21.7430  -23.0710  -10.7760 C.2     1  UNL1        0.0350
      7  C         23.8090  -22.5620  -12.2390 C.2     1  UNL1        0.2620
      8  O         24.6220  -23.3130  -11.7360 O.2     1  UNL1       -0.2670
      9  N         23.9610  -21.7000  -13.2880 N.am    1  UNL1       -0.2760
     10  C         22.8050  -21.0290  -13.5720 C.2     1  UNL1        0.2620
     11  O         22.5870  -20.2040  -14.4370 O.2     1  UNL1       -0.2670
     12  C         19.6460  -23.4040   -9.4900 C.2     1  UNL1        0.2560
     13  N         18.4730  -22.7710   -9.1160 N.am    1  UNL1       -0.3220
     14  H         18.1820  -21.9960   -9.6930 H       1  UNL1        0.1690
     15  O         20.1050  -24.4460   -9.0430 O.2     1  UNL1       -0.2670
     16  C         17.5950  -23.1270   -8.0610 C.2     1  UNL1        0.0420
     17  C         16.3620  -23.7490   -8.3070 C.2     1  UNL1        0.0300
     18  C         15.5200  -24.1320   -7.2620 C.2     1  UNL1        0.0030
     19  C         15.9110  -23.9250   -5.9480 C.2     1  UNL1        0.0180
     20  C         17.1460  -23.3260   -5.6750 C.2     1  UNL1        0.0470
     21  C         17.9880  -22.8750   -6.7220 C.2     1  UNL1       -0.0190
     22  C         19.2700  -22.1440   -6.4060 C.3     1  UNL1        0.0520
     23  C         17.4940  -23.1990   -4.2420 C.2     1  UNL1        0.2930
     24  O         17.9360  -24.1110   -3.5650 O.2     1  UNL1       -0.2590
     25  O         17.3220  -21.9090   -3.8580 O.3     1  UNL1       -0.3230
     26  C         18.4390  -21.3670   -3.1530 C.3     1  UNL1        0.2130
     27  C         25.2080  -21.4890  -13.9890 C.3     1  UNL1        0.1750
     28  C         25.1180  -21.9310  -15.4230 C.2     1  UNL1       -0.0220
     29  C         25.2000  -21.0150  -16.4760 C.2     1  UNL1        0.0120
     30  C         25.0880  -21.4610  -17.7890 C.2     1  UNL1        0.0200
     31  C         24.8910  -22.8150  -18.0070 C.2     1  UNL1        0.1160
     32  N         24.7950  -23.7270  -17.0170 N.2     1  UNL1       -0.2730
     33  C         24.9030  -23.2670  -15.7500 C.2     1  UNL1        0.1240
@<TRIPOS>BOND
     1    31    30    2
     2    31    32    1
     3    30    29    1
     4    32    33    2
     5    29    28    2
     6    33    28    1
     7    28    27    1
     8    11    10    2
     9    27     9    1
    10    10     9   am
    11    10     4    1
    12     9     7   am
    13     4     3    2
    14     4     5    1
    15     3     2    1
    16     7     5    1
    17     7     8    2
    18     5     6    2
    19     2     1    2
    20     6     1    1
    21     1    12    1
    22    14    13    1
    23    12    13   am
    24    12    15    2
    25    13    16    1
    26    17    16    2
    27    17    18    1
    28    16    21    1
    29    18    19    2
    30    21    22    1
    31    21    20    2
    32    19    20    1
    33    20    23    1
    34    23    25    1
    35    23    24    2
    36    25    26    1
