@<TRIPOS>MOLECULE
14216_out_ligand_01.pdbqt
 34 38 0 0 0
SMALL
GASTEIGER

@<TRIPOS>ATOM
      1  N         23.0970  -21.0240  -13.4860 N.ar    1  UNL1       -0.0680
      2  C         24.4620  -21.2700  -13.6030 C.ar    1  UNL1        0.2900
      3  O         25.1460  -20.8220  -14.5230 O.2     1  UNL1       -0.2650
      4  C         25.0980  -22.0790  -12.5240 C.ar    1  UNL1        0.0620
      5  C         26.4820  -22.2980  -12.5810 C.2     1  UNL1        0.0190
      6  C         27.1200  -23.0050  -11.5650 C.2     1  UNL1        0.0010
      7  C         26.3820  -23.4820  -10.4840 C.2     1  UNL1        0.0020
      8  C         25.0010  -23.2710  -10.4200 C.2     1  UNL1        0.0320
      9  C         24.3460  -22.5910  -11.4510 C.ar    1  UNL1        0.0750
     10  N         22.9540  -22.3460  -11.4710 N.ar    1  UNL1       -0.1170
     11  C         21.8880  -22.7470  -10.6890 C.ar    1  UNL1        0.2110
     12  N         20.7960  -22.1140  -11.0580 N.ar    1  UNL1       -0.1070
     13  N         21.0970  -21.3600  -12.1600 N.ar    1  UNL1        0.0460
     14  C         22.3720  -21.5420  -12.4340 C.ar    1  UNL1        0.7520
     15  S         21.8540  -23.9760   -9.4710 S.3     1  UNL1       -0.0800
     16  C         20.1290  -23.9010   -8.9010 C.3     1  UNL1        0.1860
     17  C         19.9440  -22.9840   -7.6950 C.2     1  UNL1        0.2380
     18  O         20.9540  -22.4090   -7.2680 O.2     1  UNL1       -0.2720
     19  N         18.6670  -22.8840   -7.1230 N.am    1  UNL1       -0.2820
     20  C         17.4950  -23.2540   -7.8440 C.2     1  UNL1        0.0420
     21  C         16.7780  -24.4030   -7.4820 C.2     1  UNL1        0.0300
     22  C         15.6320  -24.7690   -8.1900 C.2     1  UNL1        0.0020
     23  C         15.1920  -23.9860   -9.2560 C.2     1  UNL1        0.0000
     24  C         15.8930  -22.8350   -9.6160 C.2     1  UNL1        0.0020
     25  C         17.0420  -22.4690   -8.9120 C.2     1  UNL1        0.0300
     26  C         18.4670  -22.3850   -5.7820 C.2     1  UNL1        0.0420
     27  C         17.8060  -23.1510   -4.8090 C.2     1  UNL1        0.0300
     28  C         17.6040  -22.6680   -3.5110 C.2     1  UNL1        0.0020
     29  C         18.0660  -21.4060   -3.1530 C.2     1  UNL1        0.0000
     30  C         18.7280  -20.6260   -4.0950 C.2     1  UNL1        0.0020
     31  C         18.9240  -21.1110   -5.3930 C.2     1  UNL1        0.0300
     32  N         22.4350  -20.2790  -14.4820 N.pl3   1  UNL1       -0.2250
     33  H         23.1610  -19.8980  -15.0990 H       1  UNL1        0.1440
     34  H         21.9940  -19.4780  -14.0290 H       1  UNL1        0.1440
@<TRIPOS>BOND
     1    33    32    1
     2     3     2    2
     3    32    34    1
     4    32     1    1
     5     2     1   ar
     6     2     4   ar
     7     1    14   ar
     8     5     4    2
     9     5     6    1
    10     4     9   ar
    11    14    13   ar
    12    14    10   ar
    13    13    12   ar
    14     6     7    2
    15    10     9   ar
    16    10    11   ar
    17     9     8    2
    18    12    11   ar
    19    11    15    1
    20     7     8    1
    21    24    23    2
    22    24    25    1
    23    15    16    1
    24    23    22    1
    25    25    20    2
    26    16    17    1
    27    22    21    2
    28    20    21    1
    29    20    19    1
    30    17    18    2
    31    17    19   am
    32    19    26    1
    33    26    31    2
    34    26    27    1
    35    31    30    1
    36    27    28    2
    37    30    29    2
    38    28    29    1
