@<TRIPOS>MOLECULE
14225_out_ligand_01.pdbqt
 31 33 0 0 0
SMALL
GASTEIGER

@<TRIPOS>ATOM
      1  C         17.5560  -23.4620   -8.7270 C.2     1  UNL1        0.1020
      2  C         18.9490  -23.6240   -8.8020 C.2     1  UNL1        0.0440
      3  C         19.6790  -22.9730   -9.8020 C.2     1  UNL1        0.0340
      4  C         19.0170  -22.1740  -10.7400 C.2     1  UNL1        0.0190
      5  C         17.6310  -22.0200  -10.6630 C.2     1  UNL1        0.0260
      6  C         16.8910  -22.6590   -9.6590 C.2     1  UNL1        0.0570
      7 CL         15.1820  -22.4240   -9.6970 Cl      1  UNL1       -0.0830
      8  S         16.6880  -24.2850   -7.4210 S.O2    1  UNL1        0.2640
      9  O         15.5710  -25.0070   -7.9920 O.2     1  UNL1       -0.2000
     10  O         17.6690  -24.9880   -6.6210 O.2     1  UNL1       -0.2000
     11  N         16.0960  -23.0120   -6.4800 N.pl3   1  UNL1       -0.2810
     12  H         15.5610  -22.3580   -7.0500 H       1  UNL1        0.1790
     13  C         16.9510  -22.4690   -5.4820 C.2     1  UNL1        0.0430
     14  C         16.6780  -22.7130   -4.1370 C.2     1  UNL1        0.0300
     15  C         17.4760  -22.1290   -3.1530 C.2     1  UNL1        0.0030
     16  C         18.5380  -21.2980   -3.5140 C.2     1  UNL1        0.0070
     17  C         18.8200  -21.0530   -4.8640 C.2     1  UNL1       -0.0600
     18  C         19.9300  -20.1220   -5.2520 C.3     1  UNL1        0.0480
     19  C         18.0090  -21.6340   -5.8470 C.2     1  UNL1        0.0370
     20  C         21.1490  -23.1880   -9.8740 C.2     1  UNL1        0.2560
     21  O         21.6450  -23.9790   -9.0830 O.2     1  UNL1       -0.2670
     22  N         21.7930  -22.4270  -10.8320 N.am    1  UNL1       -0.3220
     23  H         21.2310  -21.7330  -11.3000 H       1  UNL1        0.1690
     24  C         23.1690  -22.4410  -11.1760 C.2     1  UNL1        0.0410
     25  C         24.1410  -22.9250  -10.2950 C.2     1  UNL1        0.0300
     26  C         25.4890  -22.9390  -10.6510 C.2     1  UNL1        0.0030
     27  C         25.8830  -22.4700  -11.8980 C.2     1  UNL1        0.0070
     28  C         24.9390  -21.9810  -12.8100 C.2     1  UNL1       -0.0540
     29  C         25.4340  -21.4880  -14.1440 C.3     1  UNL1        0.0490
     30  C         23.5660  -21.9640  -12.4540 C.2     1  UNL1       -0.0290
     31  C         22.5320  -21.4380  -13.4240 C.3     1  UNL1        0.0510
@<TRIPOS>BOND
     1    29    28    1
     2    31    30    1
     3    28    30    1
     4    28    27    2
     5    30    24    2
     6    27    26    1
     7    23    22    1
     8    24    22    1
     9    24    25    1
    10    22    20   am
    11     4     5    2
    12     4     3    1
    13     5     6    1
    14    26    25    2
    15    20     3    1
    16    20    21    2
    17     3     2    2
    18     7     6    1
    19     6     1    2
    20     2     1    1
    21     1     8    1
    22     9     8    2
    23     8    10    2
    24     8    11    1
    25    12    11    1
    26    11    13    1
    27    19    13    2
    28    19    17    1
    29    13    14    1
    30    18    17    1
    31    17    16    2
    32    14    15    2
    33    16    15    1
