@<TRIPOS>MOLECULE
14227_out_ligand_01.pdbqt
 34 36 0 0 0
SMALL
GASTEIGER

@<TRIPOS>ATOM
      1  C         17.5590  -23.3390   -8.8190 C.2     1  UNL1        0.0810
      2  C         18.9560  -23.4850   -8.8810 C.2     1  UNL1        0.0420
      3  C         19.6900  -22.8510   -9.8900 C.2     1  UNL1        0.0330
      4  C         19.0220  -22.1040  -10.8640 C.2     1  UNL1        0.0170
      5  C         17.6320  -21.9640  -10.8050 C.2     1  UNL1        0.0090
      6  C         16.8810  -22.5640   -9.7800 C.2     1  UNL1       -0.0390
      7  C         15.3900  -22.3770   -9.7940 C.3     1  UNL1        0.0500
      8  C         21.1720  -23.0290   -9.9120 C.2     1  UNL1        0.2560
      9  O         21.6700  -23.8070   -9.1090 O.2     1  UNL1       -0.2670
     10  N         21.8440  -22.2430  -10.8320 N.am    1  UNL1       -0.3230
     11  H         21.3000  -21.5500  -11.3290 H       1  UNL1        0.1690
     12  C         23.2290  -22.2350  -11.0970 C.2     1  UNL1        0.0350
     13  C         24.1650  -21.5310  -10.3390 C.2     1  UNL1        0.0290
     14  C         25.5250  -21.5830  -10.6610 C.2     1  UNL1        0.0030
     15  C         25.9630  -22.3420  -11.7440 C.2     1  UNL1        0.0160
     16  C         25.0430  -23.0550  -12.5210 C.2     1  UNL1        0.0500
     17  C         23.6780  -22.9990  -12.1820 C.2     1  UNL1        0.0450
     18  C         25.4980  -23.9000  -13.6840 C.3     1  UNL1        0.4170
     19  F         26.7900  -24.3170  -13.5530 F       1  UNL1       -0.1660
     20  F         25.4440  -23.2250  -14.8650 F       1  UNL1       -0.1660
     21  F         24.7580  -25.0290  -13.8600 F       1  UNL1       -0.1660
     22  S         16.7030  -24.2050   -7.5030 S.O2    1  UNL1        0.2460
     23  O         15.6710  -25.0280   -8.0910 O.2     1  UNL1       -0.2060
     24  O         17.7110  -24.7700   -6.6300 O.2     1  UNL1       -0.2060
     25  N         16.0030  -22.8900   -6.6620 N.pl3   1  UNL1       -0.1810
     26  H         15.8180  -22.1580   -7.3500 H       1  UNL1        0.1460
     27  C         16.8380  -22.3700   -5.6080 C.2     1  UNL1        0.0290
     28  C         16.5860  -22.6950   -4.2680 C.2     1  UNL1       -0.0400
     29  C         17.4640  -22.2170   -3.2840 C.2     1  UNL1        0.0090
     30  C         15.4300  -23.5590   -3.8600 C.3     1  UNL1        0.0500
     31  C         18.5580  -21.4180   -3.6250 C.2     1  UNL1        0.0070
     32  C         18.7990  -21.0800   -4.9590 C.2     1  UNL1       -0.0600
     33  C         20.0020  -20.2660   -5.3330 C.3     1  UNL1        0.0480
     34  C         17.9420  -21.5740   -5.9480 C.2     1  UNL1        0.0310
@<TRIPOS>BOND
     1    20    18    1
     2    21    18    1
     3    18    19    1
     4    18    16    1
     5    16    17    1
     6    16    15    2
     7    17    12    2
     8    15    14    1
     9    11    10    1
    10    12    10    1
    11    12    13    1
    12     4     5    2
    13     4     3    1
    14    10     8   am
    15     5     6    1
    16    14    13    2
    17     8     3    1
    18     8     9    2
    19     3     2    2
    20     7     6    1
    21     6     1    2
    22     2     1    1
    23     1    22    1
    24    23    22    2
    25    22    25    1
    26    22    24    2
    27    26    25    1
    28    25    27    1
    29    34    27    2
    30    34    32    1
    31    27    28    1
    32    33    32    1
    33    32    31    2
    34    28    30    1
    35    28    29    2
    36    31    29    1
