@<TRIPOS>MOLECULE
14231_out_ligand_01.pdbqt
 36 39 0 0 0
SMALL
GASTEIGER

@<TRIPOS>ATOM
      1  C         23.7170  -21.7740  -10.9830 C.2     1  UNL1        0.0800
      2  C         22.5550  -22.0330  -11.7110 C.2     1  UNL1        0.0270
      3  C         21.3560  -22.2890  -11.0370 C.2     1  UNL1        0.0310
      4  C         21.3080  -22.2730   -9.6410 C.2     1  UNL1        0.0340
      5  C         22.4800  -21.9890   -8.9240 C.2     1  UNL1        0.0310
      6  C         23.6830  -21.7380   -9.5880 C.2     1  UNL1        0.0270
      7  N         20.1450  -22.5240   -8.8860 N.am    1  UNL1       -0.3260
      8  C         19.7600  -23.7120   -8.2780 C.2     1  UNL1        0.2350
      9  O         20.4110  -24.7550   -8.2910 O.2     1  UNL1       -0.2720
     10  H         19.5030  -21.7440   -8.8020 H       1  UNL1        0.1690
     11  C         18.4280  -23.6370   -7.4910 C.3     1  UNL1        0.1440
     12  C         18.5070  -22.7440   -6.2510 C.2     1  UNL1       -0.0410
     13  C         19.2300  -21.5390   -6.2240 C.2     1  UNL1        0.0080
     14  C         19.2490  -20.7460   -5.0740 C.2     1  UNL1        0.0010
     15  C         18.5450  -21.1370   -3.9390 C.2     1  UNL1        0.0000
     16  C         17.8190  -22.3250   -3.9490 C.2     1  UNL1        0.0010
     17  C         17.7990  -23.1220   -5.0950 C.2     1  UNL1        0.0080
     18  C         17.2100  -23.3840   -8.3870 C.2     1  UNL1       -0.0410
     19  C         16.1910  -24.3510   -8.4370 C.2     1  UNL1        0.0080
     20  C         15.0850  -24.1820   -9.2710 C.2     1  UNL1        0.0010
     21  C         14.9800  -23.0470  -10.0700 C.2     1  UNL1        0.0000
     22  C         15.9810  -22.0790  -10.0350 C.2     1  UNL1        0.0010
     23  C         17.0900  -22.2450   -9.2030 C.2     1  UNL1        0.0080
     24  S         25.2380  -21.4390  -11.8330 S.O2    1  UNL1        0.2630
     25  O         25.7800  -22.7110  -12.2650 O.2     1  UNL1       -0.2000
     26  O         26.0330  -20.5280  -11.0370 O.2     1  UNL1       -0.2000
     27  N         24.7130  -20.6610  -13.2400 N.pl3   1  UNL1       -0.2810
     28  H         23.7030  -20.5210  -13.2130 H       1  UNL1        0.1790
     29  C         25.2740  -21.0780  -14.4780 C.2     1  UNL1        0.0430
     30  C         26.5490  -20.6510  -14.8320 C.2     1  UNL1        0.0300
     31  C         27.1210  -21.0910  -16.0260 C.2     1  UNL1        0.0090
     32  C         26.4250  -21.9660  -16.8760 C.2     1  UNL1       -0.0560
     33  C         27.0770  -22.4240  -18.1530 C.3     1  UNL1        0.0490
     34  C         25.1330  -22.3980  -16.5140 C.2     1  UNL1       -0.0540
     35  C         24.5710  -21.9510  -15.3070 C.2     1  UNL1        0.0370
     36  C         24.3540  -23.3520  -17.3780 C.3     1  UNL1        0.0490
@<TRIPOS>BOND
     1    33    32    1
     2    36    34    1
     3    32    34    2
     4    32    31    1
     5    34    35    1
     6    31    30    2
     7    35    29    2
     8    30    29    1
     9    29    27    1
    10    27    28    1
    11    27    24    1
    12    25    24    2
    13    24    26    2
    14    24     1    1
    15     2     3    1
    16     2     1    2
    17     3     4    2
    18     1     6    1
    19    21    22    2
    20    21    20    1
    21    22    23    1
    22     4     5    1
    23     4     7    1
    24     6     5    2
    25    20    19    2
    26    23    18    2
    27     7    10    1
    28     7     8   am
    29    19    18    1
    30    18    11    1
    31     9     8    2
    32     8    11    1
    33    11    12    1
    34    12    13    2
    35    12    17    1
    36    13    14    1
    37    17    16    2
    38    14    15    2
    39    16    15    1
