@<TRIPOS>MOLECULE
14243_out_ligand_01.pdbqt
 36 40 0 0 0
SMALL
GASTEIGER

@<TRIPOS>ATOM
      1  C         19.5780  -23.5560   -9.1690 C.2     1  UNL1        0.0320
      2  C         19.8520  -22.7390  -10.2710 C.2     1  UNL1        0.0190
      3  C         21.1620  -22.6240  -10.7570 C.2     1  UNL1        0.0300
      4  C         22.2120  -23.3130  -10.1460 C.2     1  UNL1        0.0340
      5  C         21.9370  -24.1150   -9.0320 C.2     1  UNL1        0.0300
      6  C         20.6320  -24.2330   -8.5440 C.2     1  UNL1        0.0190
      7  C         18.2080  -23.7190   -8.6070 C.2     1  UNL1        0.2510
      8  O         17.2280  -23.4580   -9.2960 O.2     1  UNL1       -0.2680
      9  N         18.1210  -24.1430   -7.2990 N.am    1  UNL1       -0.3560
     10  H         18.9570  -24.4130   -6.8000 H       1  UNL1        0.1620
     11  C         16.8450  -24.4910   -6.6950 C.3     1  UNL1        0.1370
     12  C         16.1990  -23.3120   -5.9240 C.3     1  UNL1        0.0030
     13  C         15.1620  -23.8330   -4.9000 C.3     1  UNL1        0.0160
     14  C         14.2280  -22.6500   -4.6520 C.3     1  UNL1        0.0010
     15  C         14.2400  -21.8370   -5.9450 C.3     1  UNL1        0.0010
     16  C         15.2500  -22.5270   -6.8630 C.3     1  UNL1        0.0160
     17  C         17.2900  -22.4790   -5.2200 C.2     1  UNL1       -0.0480
     18  C         18.0800  -21.5870   -5.9710 C.2     1  UNL1        0.0080
     19  C         19.0570  -20.7900   -5.3670 C.2     1  UNL1        0.0010
     20  C         19.2630  -20.8630   -3.9950 C.2     1  UNL1        0.0000
     21  C         18.4940  -21.7330   -3.2290 C.2     1  UNL1        0.0010
     22  C         17.5160  -22.5300   -3.8340 C.2     1  UNL1        0.0080
     23  N         23.5500  -23.2470  -10.5740 N.am    1  UNL1       -0.3250
     24  C         24.4150  -22.1660  -10.5210 C.2     1  UNL1        0.2540
     25  O         24.1640  -21.0610  -10.0490 O.2     1  UNL1       -0.2700
     26  H         23.9210  -24.0710  -11.0390 H       1  UNL1        0.1690
     27  C         25.8220  -22.5180  -11.0480 C.3     1  UNL1        0.2450
     28  C         26.5240  -21.3000  -11.6380 C.3     1  UNL1        0.2180
     29  O         25.9280  -20.8850  -12.8730 O.2     1  UNL1       -0.3450
     30  C         25.6660  -21.9480  -13.6940 C.2     1  UNL1        0.1020
     31  C         25.4010  -21.6540  -15.0300 C.2     1  UNL1        0.0390
     32  C         25.6410  -23.2710  -13.2500 C.2     1  UNL1        0.1030
     33  C         25.1430  -22.6880  -15.9320 C.2     1  UNL1        0.0030
     34  C         25.1450  -24.0140  -15.4940 C.2     1  UNL1        0.0030
     35  C         25.3950  -24.3050  -14.1520 C.2     1  UNL1        0.0400
     36  O         25.8380  -23.6330  -11.9440 O.2     1  UNL1       -0.3310
@<TRIPOS>BOND
     1    33    34    2
     2    33    31    1
     3    34    35    1
     4    31    30    2
     5    35    32    2
     6    30    32    1
     7    30    29    1
     8    32    36    1
     9    29    28    1
    10    36    27    1
    11    28    27    1
    12    27    24    1
    13    26    23    1
    14     3     2    1
    15     3     4    2
    16    23    24   am
    17    23     4    1
    18    24    25    2
    19     2     1    2
    20     4     5    1
    21     8     7    2
    22     1     7    1
    23     1     6    1
    24     5     6    2
    25     7     9   am
    26     9    10    1
    27     9    11    1
    28    16    15    1
    29    16    12    1
    30    11    12    1
    31    18    19    1
    32    18    17    2
    33    15    14    1
    34    12    17    1
    35    12    13    1
    36    19    20    2
    37    17    22    1
    38    13    14    1
    39    20    21    1
    40    22    21    2
