@<TRIPOS>MOLECULE
14247_out_ligand_01.pdbqt
 33 36 0 0 0
SMALL
GASTEIGER

@<TRIPOS>ATOM
      1  C         18.4810  -22.5320  -10.1620 C.2     1  UNL1        0.0800
      2  C         19.2620  -23.4120   -9.4120 C.2     1  UNL1        0.0270
      3  C         20.6310  -23.5050   -9.6720 C.2     1  UNL1        0.0310
      4  C         21.2260  -22.7230  -10.6740 C.2     1  UNL1        0.0340
      5  C         20.4260  -21.8580  -11.4250 C.2     1  UNL1        0.0310
      6  C         19.0530  -21.7630  -11.1770 C.2     1  UNL1        0.0270
      7  N         22.6120  -22.8760  -10.8640 N.am    1  UNL1       -0.3250
      8  C         23.6370  -22.1080  -10.3350 C.2     1  UNL1        0.2540
      9  O         23.5040  -21.1270   -9.6070 O.2     1  UNL1       -0.2700
     10  H         22.9160  -23.6850  -11.3980 H       1  UNL1        0.1690
     11  C         25.0250  -22.5650  -10.8300 C.3     1  UNL1        0.2450
     12  C         24.9350  -23.2740  -12.1760 C.3     1  UNL1        0.2180
     13  O         24.6110  -22.3660  -13.2370 O.2     1  UNL1       -0.3450
     14  C         25.3430  -21.2140  -13.1590 C.2     1  UNL1        0.1020
     15  C         25.3730  -20.4130  -14.3000 C.2     1  UNL1        0.0390
     16  C         26.0290  -20.8180  -12.0090 C.2     1  UNL1        0.1030
     17  C         26.1160  -19.2310  -14.3010 C.2     1  UNL1        0.0030
     18  C         26.8240  -18.8500  -13.1610 C.2     1  UNL1        0.0030
     19  C         26.7810  -19.6430  -12.0140 C.2     1  UNL1        0.0400
     20  O         26.0050  -21.5230  -10.8350 O.2     1  UNL1       -0.3310
     21  S         16.7320  -22.3950   -9.8350 S.O2    1  UNL1        0.2650
     22  O         16.3220  -21.1010  -10.3350 O.2     1  UNL1       -0.2000
     23  O         16.1250  -23.6320  -10.2700 O.2     1  UNL1       -0.2000
     24  N         16.7560  -22.3570   -8.1660 N.am    1  UNL1       -0.2460
     25  C         16.3130  -23.4360   -7.3870 C.2     1  UNL1        0.2650
     26  O         15.8960  -24.4840   -7.8520 O.2     1  UNL1       -0.2670
     27  H         16.8940  -21.4410   -7.7550 H       1  UNL1        0.1820
     28  C         16.3710  -23.2250   -5.9130 C.2     1  UNL1        0.0330
     29  C         15.2620  -22.6380   -5.2880 C.2     1  UNL1        0.0170
     30  C         15.2710  -22.3960   -3.9140 C.2     1  UNL1        0.0010
     31  C         16.3870  -22.7450   -3.1540 C.2     1  UNL1        0.0000
     32  C         17.4910  -23.3410   -3.7650 C.2     1  UNL1        0.0010
     33  C         17.4860  -23.5830   -5.1410 C.2     1  UNL1        0.0170
@<TRIPOS>BOND
     1    17    15    1
     2    17    18    2
     3    15    14    2
     4    13    14    1
     5    13    12    1
     6    18    19    1
     7    14    16    1
     8    12    11    1
     9    19    16    2
    10    16    20    1
    11     5     6    1
    12     5     4    2
    13    10     7    1
    14     6     1    2
    15     7     4    1
    16     7     8   am
    17    20    11    1
    18    11     8    1
    19     4     3    1
    20     8     9    2
    21    22    21    2
    22    23    21    2
    23     1    21    1
    24     1     2    1
    25    21    24    1
    26     3     2    2
    27    24    27    1
    28    24    25   am
    29    26    25    2
    30    25    28    1
    31    28    29    2
    32    28    33    1
    33    29    30    1
    34    33    32    2
    35    30    31    2
    36    32    31    1
