@<TRIPOS>MOLECULE
14246_out_ligand_01.pdbqt
 36 40 0 0 0
SMALL
GASTEIGER

@<TRIPOS>ATOM
      1  C         23.9600  -22.6560  -10.9410 C.2     1  UNL1        0.0800
      2  C         23.9570  -22.4070   -9.5690 C.2     1  UNL1        0.0270
      3  C         22.7470  -22.1750   -8.9070 C.2     1  UNL1        0.0310
      4  C         21.5410  -22.1720   -9.6120 C.2     1  UNL1        0.0340
      5  C         21.5620  -22.4000  -10.9970 C.2     1  UNL1        0.0310
      6  C         22.7660  -22.6390  -11.6650 C.2     1  UNL1        0.0270
      7  N         20.2830  -21.9450   -9.0230 N.am    1  UNL1       -0.3260
      8  C         19.6150  -22.7400   -8.1020 C.2     1  UNL1        0.2350
      9  O         20.0160  -23.8100   -7.6470 O.2     1  UNL1       -0.2720
     10  H         19.8060  -21.0970   -9.3070 H       1  UNL1        0.1690
     11  C         18.2500  -22.1750   -7.6640 C.2     1  UNL1        0.1490
     12  C         18.1870  -22.0040   -6.1630 C.2     1  UNL1       -0.0070
     13  C         19.0190  -21.0800   -5.5100 C.2     1  UNL1        0.0110
     14  C         17.3120  -22.7860   -5.4050 C.2     1  UNL1        0.0830
     15  C         18.9760  -20.9500   -4.1210 C.2     1  UNL1        0.0010
     16  C         18.1060  -21.7410   -3.3740 C.2     1  UNL1        0.0030
     17  C         17.2760  -22.6600   -4.0160 C.2     1  UNL1        0.0380
     18  O         16.4600  -23.7140   -5.9520 O.2     1  UNL1       -0.3100
     19  C         16.3010  -23.7350   -7.3160 C.2     1  UNL1        0.0830
     20  C         15.2720  -24.5430   -7.8040 C.2     1  UNL1        0.0380
     21  C         17.1100  -23.0140   -8.1970 C.2     1  UNL1       -0.0070
     22  C         15.0380  -24.6270   -9.1760 C.2     1  UNL1        0.0030
     23  C         15.8360  -23.9050  -10.0620 C.2     1  UNL1        0.0010
     24  C         16.8680  -23.1010   -9.5760 C.3     1  UNL1        0.0110
     25  S         25.4970  -22.9450  -11.7910 S.O2    1  UNL1        0.2630
     26  O         26.5100  -23.1790  -10.7820 O.2     1  UNL1       -0.2000
     27  O         25.2580  -23.9050  -12.8460 O.2     1  UNL1       -0.2000
     28  N         25.8520  -21.4360  -12.4630 N.pl3   1  UNL1       -0.2810
     29  H         25.4790  -20.6720  -11.9020 H       1  UNL1        0.1790
     30  C         25.8550  -21.2850  -13.8750 C.2     1  UNL1        0.0420
     31  C         24.6750  -21.0350  -14.5720 C.2     1  UNL1        0.0300
     32  C         24.7050  -20.8490  -15.9560 C.2     1  UNL1        0.0090
     33  C         25.9190  -20.9020  -16.6520 C.2     1  UNL1       -0.0620
     34  C         25.9470  -20.7310  -18.1430 C.3     1  UNL1        0.0480
     35  C         27.0970  -21.1730  -15.9470 C.2     1  UNL1        0.0090
     36  C         27.0670  -21.3600  -14.5620 C.2     1  UNL1        0.0300
@<TRIPOS>BOND
     1    34    33    1
     2    33    32    2
     3    33    35    1
     4    32    31    1
     5    35    36    2
     6    31    30    2
     7    36    30    1
     8    30    28    1
     9    27    25    2
    10    28    29    1
    11    28    25    1
    12    25     1    1
    13    25    26    2
    14     6     5    1
    15     6     1    2
    16     5     4    2
    17     1     2    1
    18    23    24    1
    19    23    22    2
    20     4     7    1
    21     4     3    1
    22    24    21    1
    23     2     3    2
    24    10     7    1
    25    22    20    1
    26     7     8   am
    27    21    11    2
    28    21    19    1
    29     8    11    1
    30     8     9    2
    31    20    19    2
    32    11    12    1
    33    19    18    1
    34    12    13    2
    35    12    14    1
    36    18    14    1
    37    13    15    1
    38    14    17    2
    39    15    16    2
    40    17    16    1
