@<TRIPOS>MOLECULE
14299_out_ligand_01.pdbqt
 30 33 0 0 0
SMALL
GASTEIGER

@<TRIPOS>ATOM
      1  C         23.5100  -21.6850  -12.9540 C.2     1  UNL1        0.2750
      2  O         23.4490  -21.1070  -14.0380 O.2     1  UNL1       -0.2660
      3  N         22.4110  -21.7700  -12.0810 N.am    1  UNL1       -0.3420
      4  C         21.1030  -21.4250  -12.6250 C.3     1  UNL1        0.1310
      5  C         20.0940  -21.0050  -11.5580 C.3     1  UNL1        0.0590
      6  C         20.0020  -22.0580  -10.4840 C.2     1  UNL1       -0.0470
      7  C         18.7950  -22.2870   -9.8060 C.2     1  UNL1        0.0330
      8  C         18.7330  -23.2810   -8.8220 C.2     1  UNL1        0.0800
      9  C         19.8730  -24.0030   -8.4590 C.2     1  UNL1        0.0260
     10  C         21.0730  -23.7630   -9.1270 C.2     1  UNL1        0.0110
     11  C         21.1470  -22.8080  -10.1530 C.2     1  UNL1       -0.0340
     12  C         22.4530  -22.6240  -10.8910 C.3     1  UNL1        0.1650
     13  S         17.1720  -23.6870   -8.0740 S.O2    1  UNL1        0.2630
     14  O         16.1970  -23.7880   -9.1370 O.2     1  UNL1       -0.2000
     15  O         17.3860  -24.7660   -7.1320 O.2     1  UNL1       -0.2000
     16  N         16.8030  -22.2850   -7.2330 N.pl3   1  UNL1       -0.2790
     17  H         16.0840  -21.6840   -7.6470 H       1  UNL1        0.1790
     18  C         17.2430  -22.0890   -5.9030 C.2     1  UNL1        0.0600
     19  C         18.4320  -21.3970   -5.6920 C.2     1  UNL1        0.0330
     20  C         18.8690  -21.1720   -4.3840 C.2     1  UNL1        0.0210
     21  C         18.0900  -21.6470   -3.3400 C.2     1  UNL1        0.1160
     22  N         16.8910  -22.2560   -3.5210 N.2     1  UNL1       -0.2710
     23  C         16.4920  -22.4650   -4.7960 C.2     1  UNL1        0.1460
     24  C         24.6950  -22.4330  -12.5660 C.2     1  UNL1        0.1560
     25  N         24.9780  -23.7380  -12.9370 N.2     1  UNL1       -0.2290
     26  C         26.1230  -23.9800  -12.3490 C.2     1  UNL1        0.2590
     27  O         26.6080  -22.9770  -11.5670 O.2     1  UNL1       -0.3060
     28  C         25.6760  -21.9850  -11.6930 C.2     1  UNL1        0.0880
     29  C         25.9010  -20.7370  -10.9300 C.3     1  UNL1        0.0630
     30  C         26.6180  -19.6920  -11.7740 C.3     1  UNL1        0.0120
@<TRIPOS>BOND
     1     2     1    2
     2     1    24    1
     3     1     3   am
     4    25    24    1
     5    25    26    2
     6     4     3    1
     7     4     5    1
     8    24    28    2
     9    26    27    1
    10     3    12    1
    11    30    29    1
    12    28    27    1
    13    28    29    1
    14     5     6    1
    15    12    11    1
    16     6    11    2
    17     6     7    1
    18    11    10    1
    19     7     8    2
    20    14    13    2
    21    10     9    2
    22     8     9    1
    23     8    13    1
    24    13    16    1
    25    13    15    2
    26    17    16    1
    27    16    18    1
    28    18    19    2
    29    18    23    1
    30    19    20    1
    31    23    22    2
    32    20    21    2
    33    22    21    1
