@<TRIPOS>MOLECULE
14304_out_ligand_01.pdbqt
 31 34 0 0 0
SMALL
GASTEIGER

@<TRIPOS>ATOM
      1  C         21.6180  -23.8040   -9.5430 C.3     1  UNL1        0.0510
      2  C         21.0300  -22.7800  -10.4510 C.ar    1  UNL1       -0.0220
      3  C         21.7070  -22.0140  -11.3930 C.ar    1  UNL1        0.0500
      4  N         20.7790  -21.1970  -11.9960 N.ar    1  UNL1       -0.3540
      5  C         19.5290  -21.3980  -11.4660 C.ar    1  UNL1        0.0430
      6  C         18.3150  -20.7700  -11.7630 C.2     1  UNL1        0.0310
      7  C         17.1830  -21.1780  -11.0490 C.2     1  UNL1        0.0110
      8  C         17.2550  -22.1810  -10.0780 C.2     1  UNL1       -0.0400
      9  C         18.4930  -22.7860   -9.7940 C.2     1  UNL1        0.0230
     10  C         19.6510  -22.3920  -10.4990 C.ar    1  UNL1       -0.0010
     11  H         20.9960  -20.5080  -12.7030 H       1  UNL1        0.1660
     12  C         16.0210  -22.5750   -9.3060 C.3     1  UNL1        0.1610
     13  N         16.2720  -22.5500   -7.8880 N.am    1  UNL1       -0.3510
     14  C         16.1010  -23.6620   -7.0910 C.2     1  UNL1        0.2750
     15  O         15.8700  -24.7800   -7.5460 O.2     1  UNL1       -0.2650
     16  H         16.3060  -21.6560   -7.4160 H       1  UNL1        0.1630
     17  C         16.2070  -23.3850   -5.6730 C.2     1  UNL1        0.1430
     18  C         15.4580  -23.8390   -4.6040 C.2     1  UNL1        0.0450
     19  C         15.9960  -23.2390   -3.4420 C.2     1  UNL1        0.0380
     20  C         17.0470  -22.4530   -3.8620 C.2     1  UNL1        0.0770
     21  O         17.1880  -22.5390   -5.2180 O.2     1  UNL1       -0.3070
     22  C         18.0230  -21.5880   -3.1550 C.3     1  UNL1        0.2290
     23  O         18.9120  -21.0550   -4.1290 O.3     1  UNL1       -0.3940
     24  H         19.0440  -21.7550   -4.7940 H       1  UNL1        0.2090
     25  C         23.1210  -21.9610  -11.7510 C.2     1  UNL1       -0.0090
     26  C         24.0960  -21.7800  -10.7610 C.2     1  UNL1        0.0170
     27  C         25.4500  -21.7370  -11.1050 C.2     1  UNL1        0.0430
     28  C         25.8230  -21.8770  -12.4370 C.2     1  UNL1        0.1160
     29  F         27.1210  -21.8380  -12.7660 F       1  UNL1       -0.2060
     30  C         24.8700  -22.0560  -13.4320 C.2     1  UNL1        0.0430
     31  C         23.5170  -22.0970  -13.0890 C.2     1  UNL1        0.0170
@<TRIPOS>BOND
     1    30    31    1
     2    30    28    2
     3    31    25    2
     4    29    28    1
     5    11     4    1
     6    28    27    1
     7     4     5   ar
     8     4     3   ar
     9     6     5    2
    10     6     7    1
    11    25     3    1
    12    25    26    1
    13     5    10   ar
    14     3     2   ar
    15    27    26    2
    16     7     8    2
    17    10     2   ar
    18    10     9    2
    19     2     1    1
    20     8     9    1
    21     8    12    1
    22    12    13    1
    23    13    16    1
    24    13    14   am
    25    15    14    2
    26    14    17    1
    27    17    21    1
    28    17    18    2
    29    21    20    1
    30    24    23    1
    31    18    19    1
    32    23    22    1
    33    20    19    2
    34    20    22    1
