@<TRIPOS>MOLECULE
14303_out_ligand_01.pdbqt
 29 32 0 0 0
SMALL
GASTEIGER

@<TRIPOS>ATOM
      1  O         21.0050  -24.1210   -9.5040 O.2     1  UNL1       -0.2680
      2  C         20.6960  -22.9530   -9.7260 C.2     1  UNL1        0.2540
      3  N         21.6340  -21.9620   -9.8790 N.am    1  UNL1       -0.3510
      4  H         21.3340  -20.9960   -9.8720 H       1  UNL1        0.1630
      5  C         19.2500  -22.5720   -9.8310 C.2     1  UNL1        0.0650
      6  C         18.8540  -21.9110  -11.0080 C.2     1  UNL1        0.0200
      7  C         17.5270  -21.5200  -11.2050 C.2     1  UNL1        0.0010
      8  C         16.5710  -21.7900  -10.2310 C.2     1  UNL1        0.0030
      9  C         16.9420  -22.4410   -9.0580 C.2     1  UNL1        0.0380
     10  C         18.2810  -22.8140   -8.8440 C.2     1  UNL1        0.0910
     11  O         18.6030  -23.4890   -7.6880 O.2     1  UNL1       -0.3100
     12  C         18.5570  -22.7780   -6.5070 C.2     1  UNL1        0.0760
     13  C         17.7400  -23.1270   -5.4280 C.2     1  UNL1        0.0370
     14  C         17.7280  -22.3290   -4.2820 C.2     1  UNL1        0.0030
     15  C         18.5170  -21.1800   -4.2210 C.2     1  UNL1        0.0000
     16  C         19.3150  -20.8210   -5.3080 C.2     1  UNL1        0.0030
     17  C         19.3290  -21.6170   -6.4540 C.2     1  UNL1        0.0370
     18  C         23.0320  -22.1770   -9.5790 C.3     1  UNL1        0.1830
     19  C         23.8390  -21.7670  -10.7680 C.2     1  UNL1        0.0740
     20  C         23.5100  -21.9330  -12.1330 C.2     1  UNL1        0.0590
     21  C         24.5780  -21.4160  -12.8340 C.2     1  UNL1        0.0600
     22  N         25.4520  -20.9680  -11.8840 N.pl3   1  UNL1       -0.2720
     23  C         24.8420  -21.3260  -14.2880 C.3     1  UNL1        0.3280
     24  N         25.0450  -21.1960  -10.6190 N.2     1  UNL1       -0.1750
     25  C         26.7290  -20.3260  -12.1200 C.3     1  UNL1        0.1530
     26  C         26.6210  -19.0860  -12.9990 C.3     1  UNL1        0.0520
     27  C         26.3320  -19.3980  -14.4690 C.3     1  UNL1        0.2720
     28  N         25.0010  -19.9430  -14.7250 N.3     1  UNL1        0.0890
     29  H         24.8300  -19.9130  -15.7310 H       1  UNL1        0.3160
@<TRIPOS>BOND
     1    29    28    1
     2    28    27    1
     3    28    23    1
     4    27    26    1
     5    23    21    1
     6    26    25    1
     7    21    20    2
     8    21    22    1
     9    20    19    1
    10    25    22    1
    11    22    24    1
    12     7     6    1
    13     7     8    2
    14     6     5    2
    15    19    24    2
    16    19    18    1
    17     8     9    1
    18     3     4    1
    19     3     2   am
    20     3    18    1
    21     5     2    1
    22     5    10    1
    23     2     1    2
    24     9    10    2
    25    10    11    1
    26    11    12    1
    27    12    17    2
    28    12    13    1
    29    17    16    1
    30    13    14    2
    31    16    15    2
    32    14    15    1
