@<TRIPOS>MOLECULE
14306_out_ligand_01.pdbqt
 32 36 0 0 0
SMALL
GASTEIGER

@<TRIPOS>ATOM
      1  C         21.6160  -23.8500   -9.9840 C.3     1  UNL1        0.0510
      2  C         21.0240  -22.7190  -10.7540 C.ar    1  UNL1       -0.0220
      3  C         21.7040  -21.8130  -11.5620 C.ar    1  UNL1        0.0500
      4  N         20.7830  -20.9120  -12.0340 N.ar    1  UNL1       -0.3540
      5  C         19.5200  -21.2220  -11.5920 C.ar    1  UNL1        0.0430
      6  C         18.2930  -20.5980  -11.8480 C.2     1  UNL1        0.0310
      7  C         17.1460  -21.1520  -11.2650 C.2     1  UNL1        0.0110
      8  C         17.2190  -22.2880  -10.4480 C.2     1  UNL1       -0.0400
      9  C         18.4690  -22.8880  -10.2090 C.2     1  UNL1        0.0230
     10  C         19.6380  -22.3530  -10.7900 C.ar    1  UNL1       -0.0010
     11  H         21.0050  -20.1380  -12.6510 H       1  UNL1        0.1660
     12  C         15.9710  -22.8980   -9.8540 C.3     1  UNL1        0.1610
     13  N         15.8920  -22.6650   -8.4310 N.am    1  UNL1       -0.3500
     14  C         15.7950  -23.7230   -7.5440 C.2     1  UNL1        0.2890
     15  O         15.7250  -24.8920   -7.9100 O.2     1  UNL1       -0.2640
     16  H         16.3010  -21.8120   -8.0700 H       1  UNL1        0.1630
     17  C         15.7550  -23.3020   -6.1650 C.ar    1  UNL1        0.2210
     18  N         14.7380  -23.4970   -5.3480 N.ar    1  UNL1       -0.1240
     19  N         15.0790  -22.9920   -4.1070 N.ar    1  UNL1       -0.1340
     20  C         16.2930  -22.4900   -4.1950 C.ar    1  UNL1        0.1300
     21  N         16.7460  -22.6530   -5.4770 N.ar    1  UNL1       -0.3120
     22  C         17.0840  -21.7840   -3.1530 C.3     1  UNL1        0.0810
     23  C         18.0210  -22.1760   -5.9740 C.3     1  UNL1        0.1320
     24  C         18.6600  -21.1680   -5.0180 C.3     1  UNL1        0.0210
     25  C         18.5550  -21.6430   -3.5660 C.3     1  UNL1        0.0090
     26  C         23.1150  -21.6990  -11.8880 C.2     1  UNL1       -0.0090
     27  C         24.0750  -21.6610  -10.8690 C.2     1  UNL1        0.0170
     28  C         25.4310  -21.5800  -11.1880 C.2     1  UNL1        0.0430
     29  C         25.8190  -21.5360  -12.5230 C.2     1  UNL1        0.1160
     30  F         27.1210  -21.4710  -12.8260 F       1  UNL1       -0.2060
     31  C         24.8750  -21.5620  -13.5450 C.2     1  UNL1        0.0430
     32  C         23.5200  -21.6410  -13.2280 C.2     1  UNL1        0.0170
@<TRIPOS>BOND
     1    31    32    1
     2    31    29    2
     3    32    26    2
     4    30    29    1
     5    11     4    1
     6    29    28    1
     7     4     5   ar
     8     4     3   ar
     9    26     3    1
    10    26    27    1
    11     6     5    2
    12     6     7    1
    13     5    10   ar
    14     3     2   ar
    15     7     8    2
    16    28    27    2
    17    10     2   ar
    18    10     9    2
    19     2     1    1
    20     8     9    1
    21     8    12    1
    22    12    13    1
    23    13    16    1
    24    13    14   am
    25    15    14    2
    26    14    17    1
    27    17    21   ar
    28    17    18   ar
    29    23    21    1
    30    23    24    1
    31    21    20   ar
    32    18    19   ar
    33    24    25    1
    34    20    19   ar
    35    20    22    1
    36    25    22    1
