@<TRIPOS>MOLECULE
14310_out_ligand_01.pdbqt
 31 34 0 0 0
SMALL
GASTEIGER

@<TRIPOS>ATOM
      1  C         19.9200  -20.7410   -5.8820 C.3     1  UNL1        0.0510
      2  C         19.6740  -21.9410   -6.7440 C.ar    1  UNL1       -0.0220
      3  C         18.5160  -22.6910   -6.8070 C.ar    1  UNL1        0.0500
      4  N         18.7410  -23.7230   -7.6940 N.ar    1  UNL1       -0.3540
      5  C         20.0000  -23.6430   -8.2380 C.ar    1  UNL1        0.0430
      6  C         20.6430  -24.4610   -9.1660 C.2     1  UNL1        0.0310
      7  C         21.9490  -24.1380   -9.5340 C.2     1  UNL1        0.0110
      8  C         22.6040  -23.0270   -8.9710 C.2     1  UNL1       -0.0400
      9  C         21.9330  -22.2160   -8.0350 C.2     1  UNL1        0.0230
     10  C         20.6070  -22.5290   -7.6660 C.ar    1  UNL1       -0.0010
     11  H         18.0640  -24.4350   -7.9370 H       1  UNL1        0.1660
     12  C         24.0050  -22.6790   -9.4050 C.3     1  UNL1        0.1610
     13  N         24.0280  -22.3810  -10.8140 N.am    1  UNL1       -0.3510
     14  C         24.8700  -21.4170  -11.3570 C.2     1  UNL1        0.2720
     15  O         25.6260  -20.6780  -10.7320 O.2     1  UNL1       -0.2660
     16  H         23.5520  -23.0270  -11.4380 H       1  UNL1        0.1630
     17  C         24.7930  -21.3050  -12.8320 C.2     1  UNL1        0.1410
     18  C         23.5580  -21.5120  -13.4520 C.2     1  UNL1        0.1570
     19  N         23.4170  -21.4510  -14.8030 N.2     1  UNL1       -0.2340
     20  C         24.5560  -21.1260  -15.4660 C.2     1  UNL1        0.1790
     21  C         25.7900  -20.9030  -14.8510 C.2     1  UNL1        0.1750
     22  N         25.9540  -21.0300  -13.5120 N.2     1  UNL1       -0.2500
     23  O         24.4050  -21.0030  -16.8070 O.2     1  UNL1       -0.3440
     24  H         24.9510  -20.2130  -17.0020 H       1  UNL1        0.2190
     25  C         17.2680  -22.5590   -6.0670 C.2     1  UNL1       -0.0090
     26  C         17.2750  -22.5560   -4.6620 C.2     1  UNL1        0.0170
     27  C         16.0760  -22.3750   -3.9630 C.2     1  UNL1        0.0430
     28  C         14.8800  -22.2030   -4.6670 C.2     1  UNL1        0.1160
     29  F         13.7310  -22.0210   -3.9950 F       1  UNL1       -0.2060
     30  C         14.8590  -22.2180   -6.0660 C.2     1  UNL1        0.0430
     31  C         16.0570  -22.3920   -6.7650 C.2     1  UNL1        0.0170
@<TRIPOS>BOND
     1    24    23    1
     2    23    20    1
     3    20    21    1
     4    20    19    2
     5    21    22    2
     6    19    18    1
     7    22    17    1
     8    18    17    2
     9    17    14    1
    10    16    13    1
    11    14    13   am
    12    14    15    2
    13    13    12    1
    14     7     6    1
    15     7     8    2
    16    12     8    1
    17     6     5    2
    18     8     9    1
    19     5     4   ar
    20     5    10   ar
    21     9    10    2
    22    11     4    1
    23     4     3   ar
    24    10     2   ar
    25     3     2   ar
    26     3    25    1
    27    31    25    2
    28    31    30    1
    29     2     1    1
    30    25    26    1
    31    30    28    2
    32    28    29    1
    33    28    27    1
    34    26    27    2
