@<TRIPOS>MOLECULE
14314_out_ligand_01.pdbqt
 30 33 0 0 0
SMALL
GASTEIGER

@<TRIPOS>ATOM
      1  C         17.2330  -22.5420   -7.9220 C.2     1  UNL1        0.2550
      2  O         16.5680  -21.5860   -8.3100 O.2     1  UNL1       -0.2670
      3  N         17.9270  -23.3890   -8.7850 N.am    1  UNL1       -0.3430
      4  C         17.7730  -23.1760  -10.2200 C.3     1  UNL1        0.1310
      5  C         18.8750  -22.2520  -10.7370 C.3     1  UNL1        0.0590
      6  C         20.2400  -22.7230  -10.2850 C.2     1  UNL1       -0.0470
      7  C         21.3840  -22.2690  -10.9550 C.2     1  UNL1        0.0330
      8  C         22.6490  -22.6750  -10.5200 C.2     1  UNL1        0.0800
      9  C         22.7880  -23.5480   -9.4400 C.2     1  UNL1        0.0260
     10  C         21.6520  -23.9890   -8.7630 C.2     1  UNL1        0.0110
     11  C         20.3720  -23.5720   -9.1650 C.2     1  UNL1       -0.0340
     12  C         19.1580  -24.0880   -8.4110 C.3     1  UNL1        0.1650
     13  S         24.0930  -22.1000  -11.3850 S.O2    1  UNL1        0.2630
     14  O         24.8400  -23.2670  -11.8060 O.2     1  UNL1       -0.2000
     15  O         24.7100  -21.0600  -10.5920 O.2     1  UNL1       -0.2000
     16  N         23.4460  -21.4250  -12.7930 N.pl3   1  UNL1       -0.2790
     17  H         22.7630  -20.6970  -12.5860 H       1  UNL1        0.1790
     18  C         24.2980  -21.2420  -13.9200 C.2     1  UNL1        0.0600
     19  C         24.2150  -22.0810  -15.0260 C.2     1  UNL1        0.0330
     20  C         25.0900  -21.8960  -16.0940 C.2     1  UNL1        0.0210
     21  C         26.0260  -20.8770  -16.0100 C.2     1  UNL1        0.1160
     22  N         26.1400  -20.0500  -14.9480 N.2     1  UNL1       -0.2710
     23  C         25.2740  -20.2510  -13.9270 C.2     1  UNL1        0.1460
     24  C         17.2540  -22.8200   -6.4740 C.2     1  UNL1        0.0500
     25  C         16.6960  -23.9980   -6.0020 C.2     1  UNL1        0.1330
     26  N         16.6900  -24.3520   -4.6930 N.2     1  UNL1       -0.2720
     27  C         17.2950  -23.5030   -3.8300 C.2     1  UNL1        0.1220
     28  C         17.9000  -22.3060   -4.2040 C.2     1  UNL1       -0.0430
     29  C         18.5990  -21.4450   -3.2010 C.3     1  UNL1        0.0490
     30  C         17.8900  -21.9730   -5.5620 C.2     1  UNL1        0.0260
@<TRIPOS>BOND
     1    20    21    2
     2    20    19    1
     3    21    22    1
     4    19    18    2
     5    22    23    2
     6    23    18    1
     7    18    16    1
     8    16    17    1
     9    16    13    1
    10    14    13    2
    11    13    15    2
    12    13     8    1
    13     7     8    1
    14     7     6    2
    15     5     6    1
    16     5     4    1
    17     8     9    2
    18     6    11    1
    19     4     3    1
    20     9    10    1
    21    11    10    2
    22    11    12    1
    23     3    12    1
    24     3     1   am
    25     2     1    2
    26     1    24    1
    27    24    25    2
    28    24    30    1
    29    25    26    1
    30    30    28    2
    31    26    27    2
    32    28    27    1
    33    28    29    1
