@<TRIPOS>MOLECULE
14322_out_ligand_01.pdbqt
 33 36 0 0 0
SMALL
GASTEIGER

@<TRIPOS>ATOM
      1  C         21.4050  -24.0880   -9.3350 C.3     1  UNL1        0.0510
      2  C         21.0080  -23.0330  -10.3060 C.ar    1  UNL1       -0.0220
      3  C         21.8470  -22.3310  -11.1630 C.ar    1  UNL1        0.0520
      4  N         21.0550  -21.4680  -11.8880 N.ar    1  UNL1       -0.3540
      5  C         19.7420  -21.5540  -11.4960 C.ar    1  UNL1        0.0430
      6  C         18.6150  -20.8440  -11.9420 C.2     1  UNL1        0.0310
      7  C         17.3820  -21.1600  -11.3610 C.2     1  UNL1        0.0110
      8  C         17.2700  -22.1640  -10.3780 C.2     1  UNL1       -0.0400
      9  C         18.4230  -22.8640   -9.9570 C.2     1  UNL1        0.0230
     10  C         19.6790  -22.5470  -10.5150 C.ar    1  UNL1       -0.0010
     11  H         21.3970  -20.8290  -12.5910 H       1  UNL1        0.1660
     12  C         15.9250  -22.5090   -9.7860 C.3     1  UNL1        0.1610
     13  N         16.0570  -23.5370   -8.7730 N.am    1  UNL1       -0.3570
     14  C         15.7750  -23.3010   -7.4490 C.2     1  UNL1        0.2180
     15  O         15.2220  -22.2890   -7.0320 O.2     1  UNL1       -0.2740
     16  H         16.5560  -24.3720   -9.0370 H       1  UNL1        0.1620
     17  C         16.2080  -24.4210   -6.5190 C.3     1  UNL1        0.1080
     18  C         17.7270  -24.4810   -6.4080 C.3     1  UNL1        0.0660
     19  C         18.2790  -23.1300   -5.9950 C.2     1  UNL1        0.0330
     20  N         17.8700  -22.6260   -4.8780 N.2     1  UNL1       -0.1810
     21  N         18.2790  -21.3770   -4.5390 N.am    1  UNL1       -0.2470
     22  C         19.1870  -20.6090   -5.2270 C.2     1  UNL1        0.2370
     23  H         17.7230  -20.9090   -3.8280 H       1  UNL1        0.1920
     24  O         19.3640  -19.4180   -4.9960 O.2     1  UNL1       -0.2720
     25  C         20.0010  -21.3510   -6.2430 C.3     1  UNL1        0.1100
     26  C         19.1730  -22.3900   -6.9550 C.3     1  UNL1        0.0660
     27  C         23.3010  -22.3830  -11.3370 C.2     1  UNL1        0.0300
     28  C         23.8680  -23.0890  -12.4100 C.2     1  UNL1        0.0170
     29  C         25.2600  -23.1450  -12.5760 C.2     1  UNL1        0.0010
     30  C         26.1010  -22.4990  -11.6720 C.2     1  UNL1        0.0030
     31  C         25.5490  -21.7950  -10.5990 C.2     1  UNL1        0.0430
     32  C         24.1610  -21.7360  -10.4420 C.2     1  UNL1        0.1280
     33  F         23.6570  -21.0370   -9.4110 F       1  UNL1       -0.2050
@<TRIPOS>BOND
     1    11     4    1
     2    29    28    1
     3    29    30    2
     4    28    27    2
     5     6     5    2
     6     6     7    1
     7     4     5   ar
     8     4     3   ar
     9    30    31    1
    10     5    10   ar
    11     7     8    2
    12    27     3    1
    13    27    32    1
    14     3     2   ar
    15    31    32    2
    16    10     2   ar
    17    10     9    2
    18    32    33    1
    19     8     9    1
    20     8    12    1
    21     2     1    1
    22    12    13    1
    23    16    13    1
    24    13    14   am
    25    14    15    2
    26    14    17    1
    27    26    25    1
    28    26    19    1
    29    17    18    1
    30    18    19    1
    31    25    22    1
    32    19    20    2
    33    22    24    2
    34    22    21   am
    35    20    21    1
    36    21    23    1
