@<TRIPOS>MOLECULE
14378_out_ligand_01.pdbqt
 43 46 0 0 0
SMALL
GASTEIGER

@<TRIPOS>ATOM
      1  C         22.3190  -22.6660  -10.5330 C.ar    1  UNL1        0.1000
      2  N         22.6370  -23.6480   -9.6600 N.ar    1  UNL1       -0.1470
      3  N         21.6570  -24.3000   -8.9650 N.ar    1  UNL1       -0.1310
      4  C         20.3550  -23.9810   -9.1300 C.ar    1  UNL1        0.1610
      5  C         19.9700  -22.9780  -10.0510 C.ar    1  UNL1        0.0240
      6  C         18.6160  -22.6320  -10.2960 C.2     1  UNL1        0.0160
      7  C         18.2620  -21.6140  -11.1800 C.2     1  UNL1        0.0010
      8  C         19.2530  -20.9090  -11.8450 C.2     1  UNL1        0.0010
      9  C         20.5930  -21.2370  -11.6360 C.2     1  UNL1        0.0150
     10  C         20.9800  -22.2830  -10.7580 C.ar    1  UNL1        0.0090
     11  C         23.4920  -22.0580  -11.1810 C.2     1  UNL1       -0.0030
     12  C         23.6210  -21.9970  -12.5770 C.2     1  UNL1        0.0390
     13  C         24.7510  -21.4120  -13.1850 C.2     1  UNL1        0.0860
     14  C         25.7930  -20.8870  -12.4000 C.2     1  UNL1       -0.0390
     15  C         25.6660  -20.9660  -11.0040 C.2     1  UNL1        0.0090
     16  C         27.0260  -20.2360  -12.9580 C.3     1  UNL1        0.0500
     17  C         24.5400  -21.5430  -10.4070 C.2     1  UNL1        0.0140
     18  S         24.7310  -21.3510  -14.9700 S.O2    1  UNL1        0.2590
     19  O         25.2940  -20.1080  -15.4430 O.2     1  UNL1       -0.2010
     20  O         23.4190  -21.7850  -15.3960 O.2     1  UNL1       -0.2010
     21  N         25.7860  -22.5790  -15.3650 N.3     1  UNL1       -0.3060
     22  H         26.6480  -22.6050  -14.8150 H       1  UNL1        0.1720
     23  C         25.2430  -23.8610  -15.8330 C.3     1  UNL1        0.2430
     24  C         25.6700  -24.9770  -14.8990 C.2     1  UNL1        0.2770
     25  O         25.8870  -26.1310  -15.2490 O.2     1  UNL1       -0.2630
     26  O         25.7980  -24.4980  -13.6310 O.3     1  UNL1       -0.3210
     27  C         27.0890  -24.6640  -13.0250 C.3     1  UNL1        0.1740
     28  C         27.0430  -24.2280  -11.5730 C.3     1  UNL1        0.0340
     29  N         19.3580  -24.6330   -8.3520 N.pl3   1  UNL1       -0.3390
     30  H         18.8240  -25.2410   -8.9670 H       1  UNL1        0.1670
     31  C         18.5320  -24.0650   -7.3550 C.2     1  UNL1        0.0340
     32  C         17.2230  -24.4880   -7.1240 C.2     1  UNL1        0.0320
     33  C         16.4180  -23.8650   -6.1620 C.2     1  UNL1        0.0400
     34  C         16.8940  -22.7810   -5.4150 C.2     1  UNL1        0.0840
     35  C         18.1970  -22.3120   -5.6670 C.2     1  UNL1        0.0670
     36  C         18.9910  -22.9530   -6.6400 C.2     1  UNL1        0.0490
     37  O         16.1480  -22.1410   -4.4560 O.2     1  UNL1       -0.3550
     38  C         14.7490  -22.0080   -4.6840 C.3     1  UNL1        0.2100
     39  C         18.8430  -21.1600   -4.9630 C.2     1  UNL1        0.2520
     40  N         18.6210  -21.0030   -3.6270 N.am    1  UNL1       -0.3660
     41  H         18.0980  -21.6930   -3.0990 H       1  UNL1        0.1590
     42  H         19.1010  -20.2600   -3.1400 H       1  UNL1        0.1590
     43  O         19.5590  -20.3620   -5.5590 O.2     1  UNL1       -0.2680
@<TRIPOS>BOND
     1    23    21    1
     2    23    24    1
     3    19    18    2
     4    20    18    2
     5    21    18    1
     6    21    22    1
     7    25    24    2
     8    18    13    1
     9    24    26    1
    10    26    27    1
    11    13    12    1
    12    13    14    2
    13    27    28    1
    14    16    14    1
    15    12    11    2
    16    14    15    1
    17     8     9    2
    18     8     7    1
    19     9    10    1
    20    11     1    1
    21    11    17    1
    22     7     6    2
    23    15    17    2
    24    10     1   ar
    25    10     5   ar
    26     1     2   ar
    27     6     5    1
    28     5     4   ar
    29     2     3   ar
    30     4     3   ar
    31     4    29    1
    32    30    29    1
    33    29    31    1
    34    31    32    2
    35    31    36    1
    36    32    33    1
    37    36    35    2
    38    33    34    2
    39    35    34    1
    40    35    39    1
    41    43    39    2
    42    34    37    1
    43    39    40   am
    44    38    37    1
    45    40    42    1
    46    40    41    1
