@<TRIPOS>MOLECULE
14389_out_ligand_01.pdbqt
 38 41 0 0 0
SMALL
GASTEIGER

@<TRIPOS>ATOM
      1  C         22.2810  -22.6460  -10.5180 C.ar    1  UNL1        0.1000
      2  N         22.5490  -23.6440   -9.6510 N.ar    1  UNL1       -0.1470
      3  N         21.5320  -24.2620   -8.9780 N.ar    1  UNL1       -0.1310
      4  C         20.2460  -23.8960   -9.1640 C.ar    1  UNL1        0.1610
      5  C         19.9150  -22.8750  -10.0880 C.ar    1  UNL1        0.0240
      6  C         18.5820  -22.4790  -10.3640 C.2     1  UNL1        0.0160
      7  C         18.2870  -21.4690  -11.2810 C.2     1  UNL1        0.0010
      8  C         19.3160  -20.8320  -11.9550 C.2     1  UNL1        0.0010
      9  C         20.6370  -21.2090  -11.7140 C.2     1  UNL1        0.0150
     10  C         20.9640  -22.2270  -10.7830 C.ar    1  UNL1        0.0090
     11  N         19.2100  -24.5280   -8.4230 N.pl3   1  UNL1       -0.3390
     12  H         18.6400  -25.0700   -9.0660 H       1  UNL1        0.1670
     13  C         18.4320  -23.9860   -7.3770 C.2     1  UNL1        0.0340
     14  C         17.1300  -24.4070   -7.1010 C.2     1  UNL1        0.0320
     15  C         16.3710  -23.8030   -6.0910 C.2     1  UNL1        0.0400
     16  C         16.8830  -22.7390   -5.3400 C.2     1  UNL1        0.0840
     17  C         18.1760  -22.2670   -5.6390 C.2     1  UNL1        0.0670
     18  C         18.9250  -22.8910   -6.6590 C.2     1  UNL1        0.0490
     19  O         16.1810  -22.1190   -4.3370 O.2     1  UNL1       -0.3550
     20  C         14.7590  -22.1730   -4.3910 C.3     1  UNL1        0.2100
     21  C         18.8530  -21.1240   -4.9470 C.2     1  UNL1        0.2520
     22  N         18.6280  -20.9440   -3.6140 N.am    1  UNL1       -0.3660
     23  H         19.0960  -20.1850   -3.1400 H       1  UNL1        0.1590
     24  H         18.0330  -21.5750   -3.0900 H       1  UNL1        0.1590
     25  O         19.5940  -20.3560   -5.5500 O.2     1  UNL1       -0.2680
     26  C         23.4780  -22.0630  -11.1390 C.2     1  UNL1       -0.0030
     27  C         23.6190  -22.0370  -12.5340 C.2     1  UNL1        0.0390
     28  C         24.7600  -21.4780  -13.1370 C.2     1  UNL1        0.0860
     29  C         25.7960  -20.9430  -12.3490 C.2     1  UNL1       -0.0390
     30  C         25.6590  -20.9940  -10.9520 C.2     1  UNL1        0.0090
     31  C         27.0600  -20.3660  -12.9200 C.3     1  UNL1        0.0500
     32  C         24.5190  -21.5420  -10.3580 C.2     1  UNL1        0.0140
     33  S         24.8400  -21.5030  -14.9200 S.O2    1  UNL1        0.2590
     34  O         26.0670  -22.1580  -15.3130 O.2     1  UNL1       -0.2010
     35  O         23.5600  -21.9220  -15.4480 O.2     1  UNL1       -0.2010
     36  N         25.0270  -19.8730  -15.2890 N.3     1  UNL1       -0.3200
     37  C         26.0000  -19.4970  -16.3060 C.3     1  UNL1        0.1590
     38  H         24.9170  -19.2740  -14.4740 H       1  UNL1        0.1710
@<TRIPOS>BOND
     1    37    36    1
     2    35    33    2
     3    34    33    2
     4    36    33    1
     5    36    38    1
     6    33    28    1
     7    28    27    1
     8    28    29    2
     9    31    29    1
    10    27    26    2
    11    29    30    1
    12     8     9    2
    13     8     7    1
    14     9    10    1
    15     7     6    2
    16    26     1    1
    17    26    32    1
    18    30    32    2
    19    10     1   ar
    20    10     5   ar
    21     1     2   ar
    22     6     5    1
    23     5     4   ar
    24     2     3   ar
    25     4     3   ar
    26     4    11    1
    27    12    11    1
    28    11    13    1
    29    13    14    2
    30    13    18    1
    31    14    15    1
    32    18    17    2
    33    15    16    2
    34    17    16    1
    35    17    21    1
    36    25    21    2
    37    16    19    1
    38    21    22   am
    39    20    19    1
    40    22    23    1
    41    22    24    1
