@<TRIPOS>MOLECULE
14397_out_ligand_01.pdbqt
 41 44 0 0 0
SMALL
GASTEIGER

@<TRIPOS>ATOM
      1  C         20.2960  -23.8090   -9.1900 C.ar    1  UNL1        0.1610
      2  N         21.5770  -24.1790   -8.9780 N.ar    1  UNL1       -0.1310
      3  N         22.6050  -23.5730   -9.6430 N.ar    1  UNL1       -0.1470
      4  C         22.3490  -22.5910  -10.5310 C.ar    1  UNL1        0.1000
      5  C         21.0400  -22.1560  -10.8070 C.ar    1  UNL1        0.0090
      6  C         20.7370  -21.1310  -11.7390 C.2     1  UNL1        0.0150
      7  C         19.4230  -20.7370  -11.9880 C.2     1  UNL1        0.0010
      8  C         18.3800  -21.3600  -11.3200 C.2     1  UNL1        0.0010
      9  C         18.6530  -22.3720  -10.3990 C.2     1  UNL1        0.0160
     10  C         19.9800  -22.7870  -10.1150 C.ar    1  UNL1        0.0240
     11  C         23.5490  -22.0390  -11.1700 C.2     1  UNL1       -0.0030
     12  C         24.6030  -21.5270  -10.4040 C.2     1  UNL1        0.0140
     13  C         25.7410  -20.9960  -11.0180 C.2     1  UNL1        0.0090
     14  C         25.8700  -20.9650  -12.4180 C.2     1  UNL1       -0.0390
     15  C         27.1210  -20.3680  -12.9960 C.3     1  UNL1        0.0500
     16  C         24.8160  -21.4890  -13.1890 C.2     1  UNL1        0.0860
     17  C         23.6710  -22.0180  -12.5660 C.2     1  UNL1        0.0390
     18  S         24.8100  -21.5130  -14.9750 S.O2    1  UNL1        0.2590
     19  O         25.3080  -20.2650  -15.5080 O.2     1  UNL1       -0.2010
     20  O         23.5290  -22.0420  -15.3910 O.2     1  UNL1       -0.2010
     21  N         25.9410  -22.7000  -15.3030 N.3     1  UNL1       -0.3130
     22  H         26.9070  -22.3650  -15.3310 H       1  UNL1        0.1720
     23  C         25.7170  -24.0640  -14.8120 C.3     1  UNL1        0.1580
     24  C         26.7960  -24.3980  -13.7770 C.3     1  UNL1        0.1840
     25  O         26.2000  -24.6430  -12.5010 O.3     1  UNL1       -0.3990
     26  H         25.2400  -24.7340  -12.6360 H       1  UNL1        0.2090
     27  N         19.2490  -24.4250   -8.4500 N.pl3   1  UNL1       -0.3390
     28  H         18.6860  -24.9730   -9.0930 H       1  UNL1        0.1670
     29  C         18.4790  -23.8410   -7.4200 C.2     1  UNL1        0.0340
     30  C         17.2690  -24.4330   -7.0480 C.2     1  UNL1        0.0320
     31  C         16.5040  -23.9200   -5.9930 C.2     1  UNL1        0.0400
     32  C         16.9460  -22.8140   -5.2570 C.2     1  UNL1        0.0840
     33  C         18.1850  -22.2320   -5.5920 C.2     1  UNL1        0.0670
     34  C         18.9360  -22.7570   -6.6640 C.2     1  UNL1        0.0490
     35  O         16.2460  -22.2820   -4.2030 O.2     1  UNL1       -0.3550
     36  C         14.8280  -22.2380   -4.3010 C.3     1  UNL1        0.2100
     37  C         18.8070  -21.0810   -4.8620 C.2     1  UNL1        0.2520
     38  N         18.6270  -20.9960   -3.5130 N.am    1  UNL1       -0.3660
     39  H         18.2510  -21.7840   -2.9990 H       1  UNL1        0.1590
     40  H         19.1680  -20.3010   -3.0210 H       1  UNL1        0.1590
     41  O         19.4720  -20.2280   -5.4400 O.2     1  UNL1       -0.2680
@<TRIPOS>BOND
     1    19    18    2
     2    20    18    2
     3    22    21    1
     4    21    18    1
     5    21    23    1
     6    18    16    1
     7    23    24    1
     8    24    25    1
     9    16    17    1
    10    16    14    2
    11    15    14    1
    12    26    25    1
    13    17    11    2
    14    14    13    1
    15     7     6    2
    16     7     8    1
    17     6     5    1
    18     8     9    2
    19    11     4    1
    20    11    12    1
    21    13    12    2
    22     5     4   ar
    23     5    10   ar
    24     4     3   ar
    25     9    10    1
    26    10     1   ar
    27     3     2   ar
    28     1     2   ar
    29     1    27    1
    30    28    27    1
    31    27    29    1
    32    29    30    2
    33    29    34    1
    34    30    31    1
    35    34    33    2
    36    31    32    2
    37    33    32    1
    38    33    37    1
    39    41    37    2
    40    32    35    1
    41    37    38   am
    42    36    35    1
    43    38    40    1
    44    38    39    1
