@<TRIPOS>MOLECULE
14422_out_ligand_01.pdbqt
 36 40 0 0 0
SMALL
GASTEIGER

@<TRIPOS>ATOM
      1  N         20.6560  -23.6260   -9.4720 N.pl3   1  UNL1       -0.3530
      2  C         22.0050  -23.3750   -9.4500 C.2     1  UNL1        0.1030
      3  C         22.2230  -22.2090  -10.1450 C.2     1  UNL1       -0.0070
      4  C         20.9700  -21.7480  -10.6430 C.2     1  UNL1        0.0020
      5  C         20.5660  -20.6500  -11.4310 C.2     1  UNL1        0.0140
      6  C         19.2150  -20.4840  -11.7520 C.2     1  UNL1        0.0010
      7  C         18.2660  -21.3970  -11.3000 C.2     1  UNL1        0.0020
      8  C         18.6390  -22.4930  -10.5190 C.2     1  UNL1        0.0300
      9  C         19.9980  -22.6550  -10.2030 C.2     1  UNL1        0.0450
     10  C         23.5080  -21.6360  -10.3570 C.3     1  UNL1        0.0340
     11  C         24.1560  -21.4580  -11.5260 C.ar    1  UNL1        0.0820
     12  C         23.6140  -21.7940  -12.8870 C.ar    1  UNL1        0.1620
     13  C         25.5590  -20.8960  -11.4410 C.ar    1  UNL1        0.2830
     14  N         22.3790  -22.1330  -13.1030 N.pl3   1  UNL1       -0.2810
     15  N         24.5230  -21.6950  -13.9240 N.ar    1  UNL1       -0.1890
     16  H         22.2820  -22.3100  -14.1120 H       1  UNL1        0.1880
     17  N         24.1980  -22.0090  -15.2350 N.ar    1  UNL1       -0.1510
     18  C         25.8020  -21.2580  -13.6930 C.ar    1  UNL1        0.2010
     19  C         25.2500  -21.8240  -15.9860 C.ar    1  UNL1        0.2050
     20  S         26.7150  -21.2530  -15.1800 S.2     1  UNL1       -0.0240
     21  N         26.3310  -20.8830  -12.5850 N.ar    1  UNL1       -0.1820
     22  O         26.0020  -20.4730  -10.3770 O.2     1  UNL1       -0.2650
     23  C         25.3070  -22.0580  -17.4750 C.3     1  UNL1        0.4430
     24  F         25.0290  -23.3500  -17.8040 F       1  UNL1       -0.1640
     25  F         24.4120  -21.2880  -18.1530 F       1  UNL1       -0.1640
     26  F         26.5280  -21.7820  -18.0080 F       1  UNL1       -0.1640
     27  C         20.0310  -24.7460   -8.7790 C.3     1  UNL1        0.1550
     28  C         19.3030  -24.3180   -7.5060 C.3     1  UNL1        0.1960
     29  O         17.8830  -24.3890   -7.6410 O.2     1  UNL1       -0.3490
     30  C         17.0790  -23.8650   -6.6650 C.2     1  UNL1        0.0740
     31  C         17.2690  -24.0210   -5.2900 C.2     1  UNL1        0.0370
     32  C         16.3870  -23.4290   -4.3810 C.2     1  UNL1        0.0030
     33  C         15.3100  -22.6760   -4.8400 C.2     1  UNL1        0.0010
     34  C         15.1110  -22.5140   -6.2090 C.2     1  UNL1        0.0090
     35  C         15.9900  -23.1050   -7.1310 C.2     1  UNL1       -0.0290
     36  C         15.7600  -22.9120   -8.6060 C.3     1  UNL1        0.0510
@<TRIPOS>BOND
     1    25    23    1
     2    26    23    1
     3    24    23    1
     4    23    19    1
     5    19    17   ar
     6    19    20   ar
     7    17    15   ar
     8    20    18   ar
     9    16    14    1
    10    15    18   ar
    11    15    12   ar
    12    18    21   ar
    13    14    12    1
    14    12    11   ar
    15    21    13   ar
    16     6     5    1
    17     6     7    2
    18    11    13   ar
    19    11    10    1
    20    13    22    2
    21     5     4    2
    22     7     8    1
    23     4     9    1
    24     4     3    1
    25     8     9    2
    26    10     3    1
    27     9     1    1
    28     3     2    2
    29     1     2    1
    30     1    27    1
    31    27    28    1
    32    36    35    1
    33    29    28    1
    34    29    30    1
    35    35    30    2
    36    35    34    1
    37    30    31    1
    38    34    33    2
    39    31    32    2
    40    33    32    1
