@<TRIPOS>MOLECULE
14486_out_ligand_01.pdbqt
 31 36 0 0 0
SMALL
GASTEIGER

@<TRIPOS>ATOM
      1  C         19.4250  -22.6200   -8.3590 C.ar    1  UNL1        0.0750
      2  N         20.7000  -23.0590   -8.4180 N.ar    1  UNL1       -0.2390
      3  C         21.3540  -22.7900   -9.5610 C.ar    1  UNL1        0.1120
      4  S         22.9730  -23.2770   -9.7270 S.2     1  UNL1       -0.0640
      5  C         23.0920  -22.5960  -11.2960 C.ar    1  UNL1        0.0770
      6  C         24.1920  -22.5630  -12.1640 C.2     1  UNL1        0.1240
      7  N         24.0280  -21.9580  -13.3590 N.2     1  UNL1       -0.2290
      8  C         22.8360  -21.4250  -13.6550 C.2     1  UNL1        0.2350
      9  N         21.7440  -21.4060  -12.8890 N.2     1  UNL1       -0.2400
     10  C         21.8880  -22.0120  -11.6830 C.ar    1  UNL1        0.0920
     11  C         20.8590  -22.1270  -10.6750 C.ar    1  UNL1        0.0370
     12  C         19.5040  -21.7040  -10.6070 C.ar    1  UNL1       -0.0340
     13  C         18.7820  -21.9730   -9.4190 C.ar    1  UNL1       -0.0210
     14  C         17.3480  -21.4990   -9.3580 C.3     1  UNL1        0.0410
     15  C         16.5940  -21.8080  -10.6540 C.3     1  UNL1        0.0050
     16  C         17.3910  -21.5480  -11.9360 C.3     1  UNL1        0.0050
     17  C         18.7760  -20.9530  -11.6990 C.3     1  UNL1        0.0400
     18  N         25.4160  -23.1420  -11.8340 N.pl3   1  UNL1       -0.2700
     19  H         25.3170  -24.1010  -11.5100 H       1  UNL1        0.1290
     20  C         26.2720  -22.3390  -10.9720 C.3     1  UNL1        0.1590
     21  C         26.5780  -20.9970  -11.5480 C.2     1  UNL1        0.0650
     22  C         27.0290  -20.5720  -12.7800 C.2     1  UNL1        0.0360
     23  C         27.1210  -19.1600  -12.7060 C.2     1  UNL1        0.0270
     24  C         26.7260  -18.8160  -11.4360 C.2     1  UNL1        0.1420
     25  O         26.3940  -19.9230  -10.7230 O.2     1  UNL1       -0.3260
     26  C         18.7800  -22.8870   -7.0650 C.2     1  UNL1       -0.0070
     27  C         18.8020  -21.9250   -6.0430 C.2     1  UNL1        0.0140
     28  C         18.1910  -22.1700   -4.8110 C.2     1  UNL1        0.0010
     29  C         17.5400  -23.3810   -4.5860 C.2     1  UNL1        0.0000
     30  C         17.4930  -24.3430   -5.5930 C.2     1  UNL1        0.0010
     31  C         18.1060  -24.0970   -6.8240 C.2     1  UNL1        0.0140
@<TRIPOS>BOND
     1     8     7    2
     2     8     9    1
     3     7     6    1
     4     9    10    2
     5    22    23    1
     6    22    21    2
     7    23    24    2
     8     6    18    1
     9     6     5    2
    10    16    17    1
    11    16    15    1
    12    18    19    1
    13    18    20    1
    14    17    12    1
    15    10     5   ar
    16    10    11   ar
    17    21    20    1
    18    21    25    1
    19    24    25    1
    20     5     4   ar
    21    11    12   ar
    22    11     3   ar
    23    15    14    1
    24    12    13   ar
    25     4     3   ar
    26     3     2   ar
    27    13    14    1
    28    13     1   ar
    29     2     1   ar
    30     1    26    1
    31    26    31    2
    32    26    27    1
    33    31    30    1
    34    27    28    2
    35    30    29    2
    36    28    29    1
