@<TRIPOS>MOLECULE
14482_out_ligand_01.pdbqt
 33 36 0 0 0
SMALL
GASTEIGER

@<TRIPOS>ATOM
      1  C         18.7540  -23.0040  -10.2600 C.2     1  UNL1        0.0310
      2  C         19.4770  -22.1050  -11.0640 C.2     1  UNL1        0.0310
      3  C         20.8660  -21.9870  -10.9570 C.2     1  UNL1        0.0270
      4  C         21.5490  -22.7700  -10.0260 C.2     1  UNL1        0.0800
      5  C         20.8570  -23.6780   -9.2250 C.2     1  UNL1        0.0270
      6  C         19.4670  -23.7870   -9.3420 C.2     1  UNL1        0.0310
      7  N         17.3560  -23.0620  -10.4200 N.pl3   1  UNL1       -0.3660
      8  H         17.0530  -23.6930  -11.1550 H       1  UNL1        0.1650
      9  C         16.3760  -22.3750   -9.7540 C.2     1  UNL1        0.0920
     10  C         15.8050  -22.5980   -8.5620 C.2     1  UNL1        0.0720
     11  C         16.0950  -23.6550   -7.5570 C.2     1  UNL1        0.1840
     12  O         16.2460  -24.8170   -7.9180 O.2     1  UNL1       -0.2880
     13  C         16.1610  -23.3070   -6.1250 C.2     1  UNL1        0.0250
     14  C         15.1510  -23.8060   -5.2890 C.2     1  UNL1        0.0160
     15  C         15.1480  -23.4790   -3.9390 C.2     1  UNL1        0.0020
     16  C         16.1520  -22.6610   -3.4230 C.2     1  UNL1        0.0120
     17  C         17.1780  -22.1610   -4.2420 C.2     1  UNL1       -0.0250
     18  C         18.1790  -21.3370   -3.7010 C.2     1  UNL1        0.0120
     19  C         17.2020  -22.4870   -5.6200 C.2     1  UNL1       -0.0120
     20  C         19.2020  -20.8320   -4.5010 C.2     1  UNL1        0.0010
     21  C         19.2400  -21.1410   -5.8550 C.2     1  UNL1        0.0010
     22  C         18.2520  -21.9590   -6.4090 C.2     1  UNL1        0.0130
     23  S         23.3170  -22.6460   -9.9150 S.O2    1  UNL1        0.2760
     24  O         23.7340  -23.6400   -8.9430 O.2     1  UNL1       -0.2000
     25  O         23.6940  -21.2600   -9.7370 O.2     1  UNL1       -0.2000
     26  N         23.8490  -23.2010  -11.3860 N.pl3   1  UNL1       -0.1090
     27  H         24.3560  -24.0760  -11.3330 H       1  UNL1        0.1980
     28  C         24.4330  -22.2790  -12.2440 C.cat   1  UNL1        0.7350
     29  N         23.6720  -21.6450  -13.1370 N.2     1  UNL1       -0.0740
     30  C         24.3340  -20.8870  -14.0300 C.2     1  UNL1        0.1380
     31  C         25.7050  -20.7890  -14.0710 C.2     1  UNL1        0.0400
     32  C         26.3820  -21.5340  -13.1330 C.2     1  UNL1        0.1380
     33  N         25.7700  -22.3080  -12.2170 N.2     1  UNL1       -0.0740
@<TRIPOS>BOND
     1    31    30    2
     2    31    32    1
     3    30    29    1
     4    29    28    2
     5    32    33    2
     6    28    33    1
     7    28    26    1
     8    26    27    1
     9    26    23    1
    10     8     7    1
    11     2     3    1
    12     2     1    2
    13     3     4    2
    14     7     1    1
    15     7     9    1
    16     1     6    1
    17     4    23    1
    18     4     5    1
    19    23    25    2
    20    23    24    2
    21     9    10    2
    22     6     5    2
    23    10    11    1
    24    12    11    2
    25    11    13    1
    26    22    21    2
    27    22    19    1
    28    13    19    2
    29    13    14    1
    30    21    20    1
    31    19    17    1
    32    14    15    2
    33    20    18    2
    34    17    18    1
    35    17    16    2
    36    15    16    1
