@<TRIPOS>MOLECULE
14493_out_ligand_01.pdbqt
 35 38 0 0 0
SMALL
GASTEIGER

@<TRIPOS>ATOM
      1  C         19.5580  -23.5890   -9.3680 C.3     1  UNL1        0.1180
      2  C         20.9370  -23.6060   -8.6960 C.3     1  UNL1        0.0660
      3  C         22.0590  -23.6480   -9.7550 C.3     1  UNL1        0.2210
      4  N         21.7690  -22.7350  -10.8470 N.pl3   1  UNL1       -0.2400
      5  N         22.6550  -22.4890  -11.8200 N.2     1  UNL1       -0.1650
      6  C         22.0180  -21.6480  -12.6640 C.2     1  UNL1        0.1480
      7  C         20.6730  -21.4420  -12.2270 C.2     1  UNL1        0.0890
      8  C         20.5340  -22.1970  -11.0920 C.2     1  UNL1        0.1230
      9  N         19.4850  -22.4430  -10.2760 N.pl3   1  UNL1       -0.3660
     10  H         18.5400  -22.2120  -10.5790 H       1  UNL1        0.1610
     11  C         22.7110  -21.0840  -13.8510 C.2     1  UNL1        0.2760
     12  O         22.2960  -20.0770  -14.4180 O.2     1  UNL1       -0.2660
     13  N         23.8480  -21.7900  -14.2260 N.am    1  UNL1       -0.3220
     14  H         24.1310  -22.5470  -13.6240 H       1  UNL1        0.1690
     15  C         24.6980  -21.5380  -15.3250 C.2     1  UNL1        0.0350
     16  C         24.9520  -22.4520  -16.3470 C.2     1  UNL1        0.0290
     17  C         25.8130  -22.1210  -17.3960 C.2     1  UNL1        0.0030
     18  C         26.4280  -20.8730  -17.4350 C.2     1  UNL1        0.0100
     19  C         26.1930  -19.9360  -16.4210 C.2     1  UNL1       -0.0280
     20  C         25.3240  -20.2830  -15.3700 C.2     1  UNL1        0.0390
     21  C         26.8550  -18.5760  -16.4480 C.3     1  UNL1        0.1470
     22  C         27.1210  -18.0220  -15.0550 C.3     1  UNL1        0.0440
     23  O         26.0440  -17.6480  -17.1640 O.3     1  UNL1       -0.3910
     24  H         25.6770  -17.0200  -16.5190 H       1  UNL1        0.2100
     25  C         23.3870  -23.3410   -9.0970 C.3     1  UNL1        0.4090
     26  F         23.3080  -22.3040   -8.2320 F       1  UNL1       -0.1690
     27  F         24.3810  -23.0930   -9.9720 F       1  UNL1       -0.1690
     28  F         23.7890  -24.4190   -8.3690 F       1  UNL1       -0.1690
     29  C         18.4390  -23.5100   -8.3480 C.2     1  UNL1       -0.0350
     30  C         18.3870  -24.3810   -7.2490 C.2     1  UNL1        0.0100
     31  C         17.3420  -24.3050   -6.3260 C.2     1  UNL1        0.0070
     32  C         16.3190  -23.3650   -6.4870 C.2     1  UNL1       -0.0620
     33  C         15.2140  -23.2640   -5.4780 C.3     1  UNL1        0.0480
     34  C         16.3740  -22.4840   -7.5720 C.2     1  UNL1        0.0070
     35  C         17.4200  -22.5590   -8.4970 C.2     1  UNL1        0.0100
@<TRIPOS>BOND
     1    18    17    2
     2    18    19    1
     3    17    16    1
     4    23    24    1
     5    23    21    1
     6    21    19    1
     7    21    22    1
     8    19    20    2
     9    16    15    2
    10    20    15    1
    11    15    13    1
    12    12    11    2
    13    13    11   am
    14    13    14    1
    15    11     6    1
    16     6     7    1
    17     6     5    2
    18     7     8    2
    19     5     4    1
    20     8     4    1
    21     8     9    1
    22     4     3    1
    23    10     9    1
    24     9     1    1
    25    27    25    1
    26     3    25    1
    27     3     2    1
    28     1     2    1
    29     1    29    1
    30    25    28    1
    31    25    26    1
    32    35    29    2
    33    35    34    1
    34    29    30    1
    35    34    32    2
    36    30    31    2
    37    32    31    1
    38    32    33    1
