@<TRIPOS>MOLECULE
1451_out_ligand_01.pdbqt
 35 39 0 0 0
SMALL
GASTEIGER

@<TRIPOS>ATOM
      1  C         20.2790  -22.9650   -9.9780 C.2     1  UNL1        0.0170
      2  C         20.3510  -22.1000  -11.0810 C.2     1  UNL1        0.0170
      3  C         21.5720  -21.8480  -11.7200 C.2     1  UNL1        0.0180
      4  C         22.7440  -22.4570  -11.2580 C.2     1  UNL1        0.0320
      5  C         22.6810  -23.3340  -10.1690 C.2     1  UNL1        0.0180
      6  C         21.4590  -23.5810   -9.5350 C.2     1  UNL1        0.0170
      7  C         19.0190  -23.2470   -9.2960 C.ar    1  UNL1        0.1800
      8  O         17.8750  -22.7770   -9.8860 O.2     1  UNL1       -0.2940
      9  C         16.8690  -23.2030   -9.0660 C.ar    1  UNL1        0.0770
     10  C         15.4920  -22.8580   -9.4630 C.3     1  UNL1        0.0790
     11  C         17.4370  -23.9090   -8.0260 C.ar    1  UNL1        0.0780
     12  N         18.8110  -23.9020   -8.1700 N.ar    1  UNL1       -0.2250
     13  C         16.8040  -24.5990   -6.8760 C.3     1  UNL1        0.1760
     14  S         15.7590  -23.5220   -5.8410 S.O     1  UNL1        0.0550
     15  O         15.1810  -24.3440   -4.7250 O.2     1  UNL1       -0.2520
     16  C         17.0380  -22.4740   -5.1110 C.2     1  UNL1        0.0310
     17  C         17.2100  -22.4450   -3.7210 C.2     1  UNL1        0.0210
     18  C         18.1950  -21.6350   -3.1530 C.2     1  UNL1        0.0010
     19  C         19.0180  -20.8590   -3.9680 C.2     1  UNL1        0.0000
     20  C         18.8610  -20.8950   -5.3520 C.2     1  UNL1        0.0010
     21  C         17.8770  -21.7030   -5.9230 C.2     1  UNL1        0.0210
     22  C         24.0660  -22.2270  -11.9060 C.2     1  UNL1        0.2520
     23  O         25.1000  -22.3730  -11.2650 O.2     1  UNL1       -0.2680
     24  N         24.0370  -21.8190  -13.2210 N.am    1  UNL1       -0.3480
     25  H         23.1680  -21.4950  -13.6210 H       1  UNL1        0.1630
     26  C         25.2540  -21.4560  -13.9340 C.3     1  UNL1        0.1180
     27  C         25.6000  -19.9870  -13.6390 C.3     1  UNL1        0.0300
     28  C         26.6640  -19.4690  -14.5960 C.3     1  UNL1        0.0070
     29  C         26.1350  -19.4970  -16.0270 C.3     1  UNL1        0.0390
     30  C         25.5380  -20.8320  -16.4000 C.2     1  UNL1       -0.0500
     31  C         25.3820  -21.1440  -17.7600 C.2     1  UNL1        0.0070
     32  C         25.1040  -21.7470  -15.4200 C.2     1  UNL1       -0.0290
     33  C         24.8410  -22.3660  -18.1530 C.2     1  UNL1        0.0010
     34  C         24.4480  -23.2920  -17.1920 C.2     1  UNL1        0.0010
     35  C         24.5840  -22.9870  -15.8370 C.2     1  UNL1        0.0100
@<TRIPOS>BOND
     1    33    31    1
     2    33    34    2
     3    31    30    2
     4    34    35    1
     5    30    29    1
     6    30    32    1
     7    29    28    1
     8    35    32    2
     9    32    26    1
    10    28    27    1
    11    26    27    1
    12    26    24    1
    13    25    24    1
    14    24    22   am
    15    22    23    2
    16    22     4    1
    17     3     4    2
    18     3     2    1
    19     4     5    1
    20     2     1    2
    21     5     6    2
    22     1     6    1
    23     1     7    1
    24     8     7   ar
    25     8     9   ar
    26    10     9    1
    27     7    12   ar
    28     9    11   ar
    29    12    11   ar
    30    11    13    1
    31    13    14    1
    32    21    20    1
    33    21    16    2
    34    14    16    1
    35    14    15    2
    36    20    19    2
    37    16    17    1
    38    19    18    1
    39    17    18    2
