@<TRIPOS>MOLECULE
14526_out_ligand_01.pdbqt
 40 44 0 0 0
SMALL
GASTEIGER

@<TRIPOS>ATOM
      1  N         23.1440  -22.4790  -11.4620 N.am    1  UNL1       -0.3210
      2  C         23.0720  -22.9440  -10.1630 C.2     1  UNL1        0.2760
      3  O         23.9960  -23.3990   -9.5000 O.2     1  UNL1       -0.2660
      4  H         22.2450  -22.1560  -11.8190 H       1  UNL1        0.1690
      5  C         21.7060  -22.8440   -9.6210 C.2     1  UNL1        0.1480
      6  C         21.3280  -22.8510   -8.2510 C.2     1  UNL1        0.0890
      7  C         19.9620  -22.7510   -8.2570 C.2     1  UNL1        0.1230
      8  N         19.5960  -22.6150   -9.5700 N.pl3   1  UNL1       -0.2400
      9  N         19.0400  -22.7560   -7.2700 N.pl3   1  UNL1       -0.3660
     10  N         20.6240  -22.7490  -10.4290 N.2     1  UNL1       -0.1650
     11  C         18.2180  -22.5250  -10.0210 C.3     1  UNL1        0.2210
     12  C         17.2730  -22.1880   -8.8470 C.3     1  UNL1        0.0670
     13  C         17.6380  -23.0080   -7.5990 C.3     1  UNL1        0.1250
     14  H         19.3070  -23.0060   -6.3190 H       1  UNL1        0.1610
     15  C         18.0540  -21.4970  -11.1190 C.3     1  UNL1        0.4090
     16  F         16.8410  -20.8940  -11.0020 F       1  UNL1       -0.1690
     17  F         18.9830  -20.5190  -11.0580 F       1  UNL1       -0.1690
     18  F         18.0860  -22.0320  -12.3590 F       1  UNL1       -0.1690
     19  C         16.6790  -22.7350   -6.4640 C.2     1  UNL1        0.0050
     20  C         15.3090  -22.5540   -6.5360 C.2     1  UNL1        0.0170
     21  C         14.7180  -22.3220   -5.2600 C.2     1  UNL1        0.0080
     22  C         15.6540  -22.3380   -4.2500 C.2     1  UNL1        0.0500
     23  S         17.2320  -22.6210   -4.8410 S.3     1  UNL1       -0.1040
     24  C         24.2630  -22.4060  -12.3070 C.2     1  UNL1        0.0400
     25  C         24.7660  -21.1280  -12.5860 C.2     1  UNL1        0.0660
     26  C         25.8820  -20.9610  -13.4120 C.2     1  UNL1        0.0800
     27  C         26.4930  -22.0680  -13.9990 C.2     1  UNL1        0.0730
     28  C         25.9940  -23.3440  -13.7180 C.2     1  UNL1        0.1070
     29  C         24.8860  -23.5200  -12.8730 C.2     1  UNL1        0.0650
     30  O         26.2760  -19.6620  -13.6530 O.2     1  UNL1       -0.3110
     31  C         26.2080  -19.2210  -14.9540 C.2     1  UNL1        0.0760
     32  C         25.8220  -20.0660  -15.9970 C.2     1  UNL1        0.0370
     33  C         25.7850  -19.5740  -17.3010 C.2     1  UNL1        0.0030
     34  C         26.1490  -18.2500  -17.5630 C.2     1  UNL1        0.0070
     35  C         26.5740  -17.4090  -16.5240 C.2     1  UNL1       -0.0590
     36  C         26.9420  -15.9820  -16.7990 C.3     1  UNL1        0.0480
     37  C         26.5990  -17.9050  -15.2130 C.2     1  UNL1        0.0440
     38  N         26.6400  -24.5160  -14.3230 N.pl3   1  UNL1       -0.1160
     39  O         27.0550  -25.4020  -13.5610 O.2     1  UNL1       -0.5320
     40  O         26.7320  -24.5560  -15.5570 O.2     1  UNL1       -0.5320
@<TRIPOS>BOND
     1    34    33    2
     2    34    35    1
     3    33    32    1
     4    36    35    1
     5    35    37    2
     6    32    31    2
     7    40    38    2
     8    37    31    1
     9    31    30    1
    10    38    28    1
    11    38    39    2
    12    27    28    2
    13    27    26    1
    14    28    29    1
    15    30    26    1
    16    26    25    2
    17    29    24    2
    18    25    24    1
    19    18    15    1
    20    24     1    1
    21     4     1    1
    22     1     2   am
    23    15    17    1
    24    15    16    1
    25    15    11    1
    26    10     5    2
    27    10     8    1
    28     2     5    1
    29     2     3    2
    30    11     8    1
    31    11    12    1
    32     5     6    1
    33     8     7    1
    34    12    13    1
    35     7     6    2
    36     7     9    1
    37    13     9    1
    38    13    19    1
    39     9    14    1
    40    20    19    2
    41    20    21    1
    42    19    23    1
    43    21    22    2
    44    23    22    1
