@<TRIPOS>MOLECULE
14554_out_ligand_01.pdbqt
 26 28 0 0 0
SMALL
GASTEIGER

@<TRIPOS>ATOM
      1  C         17.8420  -22.7060  -11.8320 C.3     1  UNL1        0.0380
      2  C         18.3220  -21.4530  -11.0810 C.3     1  UNL1        0.0280
      3  C         17.1710  -20.4390  -11.0140 C.3     1  UNL1        0.0380
      4  C         19.5370  -20.8030  -11.7780 C.3     1  UNL1        0.0690
      5  C         20.8150  -21.5770  -11.5730 C.2     1  UNL1       -0.0420
      6  C         21.8580  -21.4810  -12.5040 C.2     1  UNL1        0.0080
      7  C         23.0570  -22.1650  -12.2940 C.2     1  UNL1        0.0010
      8  C         23.2270  -22.9410  -11.1490 C.2     1  UNL1        0.0010
      9  C         22.2000  -23.0340  -10.2080 C.2     1  UNL1        0.0160
     10  C         20.9960  -22.3520  -10.4140 C.2     1  UNL1        0.0160
     11  C         19.8800  -22.4450   -9.4090 C.2     1  UNL1        0.1350
     12  N         20.1120  -23.1120   -8.3150 N.2     1  UNL1       -0.2310
     13  N         18.6840  -21.8220   -9.7150 N.pl3   1  UNL1       -0.3650
     14  H         17.9070  -22.0830   -9.1190 H       1  UNL1        0.1620
     15  C         19.1210  -23.2280   -7.3360 C.2     1  UNL1        0.0590
     16  C         18.9590  -22.2190   -6.3830 C.2     1  UNL1        0.0330
     17  C         17.9650  -22.3170   -5.4080 C.2     1  UNL1        0.0270
     18  C         17.1270  -23.4370   -5.3930 C.2     1  UNL1        0.0740
     19  C         17.2600  -24.4400   -6.3570 C.2     1  UNL1        0.0270
     20  C         18.2590  -24.3290   -7.3270 C.2     1  UNL1        0.0330
     21  S         15.8440  -23.5540   -4.1810 S.O2    1  UNL1        0.2390
     22  O         16.2400  -24.4870   -3.1540 O.2     1  UNL1       -0.2060
     23  O         14.5630  -23.6260   -4.8450 O.2     1  UNL1       -0.2060
     24  N         15.9040  -22.0340   -3.4690 N.3     1  UNL1       -0.2250
     25  H         15.9520  -21.3180   -4.1950 H       1  UNL1        0.1360
     26  H         15.1120  -21.9230   -2.8340 H       1  UNL1        0.1360
@<TRIPOS>BOND
     1     6     7    1
     2     6     5    2
     3     7     8    2
     4     1     2    1
     5     4     5    1
     6     4     2    1
     7     5    10    1
     8     8     9    1
     9     2     3    1
    10     2    13    1
    11    10     9    2
    12    10    11    1
    13    13    11    1
    14    13    14    1
    15    11    12    2
    16    12    15    1
    17    15    20    2
    18    15    16    1
    19    20    19    1
    20    16    17    2
    21    19    18    2
    22    17    18    1
    23    18    21    1
    24    23    21    2
    25    25    24    1
    26    21    24    1
    27    21    22    2
    28    24    26    1
