@<TRIPOS>MOLECULE
14577_out_ligand_01.pdbqt
 41 44 0 0 0
SMALL
GASTEIGER

@<TRIPOS>ATOM
      1  C         20.2080  -23.8990   -9.1590 C.ar    1  UNL1        0.1610
      2  N         21.4880  -24.2710   -8.9450 N.ar    1  UNL1       -0.1310
      3  N         22.5220  -23.6530   -9.5910 N.ar    1  UNL1       -0.1470
      4  C         22.2780  -22.6480  -10.4600 C.ar    1  UNL1        0.1000
      5  C         20.9670  -22.2300  -10.7580 C.ar    1  UNL1        0.0090
      6  C         20.6620  -21.2150  -11.7020 C.2     1  UNL1        0.0150
      7  C         19.3470  -20.8370  -11.9740 C.2     1  UNL1        0.0010
      8  C         18.3010  -21.4710  -11.3210 C.2     1  UNL1        0.0010
      9  C         18.5750  -22.4800  -10.3960 C.2     1  UNL1        0.0160
     10  C         19.9010  -22.8780  -10.0890 C.ar    1  UNL1        0.0240
     11  C         23.4940  -22.0640  -11.0440 C.2     1  UNL1       -0.0030
     12  C         24.6240  -21.8290  -10.2500 C.2     1  UNL1        0.0140
     13  C         25.7820  -21.2640  -10.7930 C.2     1  UNL1        0.0090
     14  C         25.8490  -20.9060  -12.1490 C.2     1  UNL1       -0.0390
     15  C         27.1210  -20.2980  -12.6670 C.3     1  UNL1        0.0500
     16  C         24.7150  -21.1360  -12.9510 C.2     1  UNL1        0.0810
     17  C         23.5510  -21.7000  -12.3990 C.2     1  UNL1        0.0390
     18  S         24.6820  -20.7160  -14.6870 S.O2    1  UNL1        0.2420
     19  O         23.3620  -21.0260  -15.1960 O.2     1  UNL1       -0.2060
     20  O         25.2690  -19.4080  -14.8440 O.2     1  UNL1       -0.2060
     21  N         25.6940  -21.9080  -15.3500 N.3     1  UNL1       -0.2070
     22  H         25.4560  -22.7800  -14.8690 H       1  UNL1        0.1400
     23  C         25.7000  -22.1370  -16.8340 C.3     1  UNL1        0.0140
     24  C         25.4710  -20.8210  -17.5820 C.3     1  UNL1        0.0320
     25  C         24.6780  -23.1980  -17.2520 C.3     1  UNL1        0.0320
     26  C         27.1120  -22.6490  -17.1830 C.3     1  UNL1        0.0320
     27  N         19.1520  -24.5310   -8.4450 N.pl3   1  UNL1       -0.3390
     28  H         18.5700  -25.0320   -9.1100 H       1  UNL1        0.1670
     29  C         18.3860  -24.0180   -7.3770 C.2     1  UNL1        0.0340
     30  C         17.1000  -24.4650   -7.0750 C.2     1  UNL1        0.0320
     31  C         16.3500  -23.8840   -6.0440 C.2     1  UNL1        0.0400
     32  C         16.8570  -22.8120   -5.2990 C.2     1  UNL1        0.0840
     33  C         18.1330  -22.3120   -5.6230 C.2     1  UNL1        0.0670
     34  C         18.8720  -22.9150   -6.6620 C.2     1  UNL1        0.0490
     35  O         16.1640  -22.2120   -4.2780 O.2     1  UNL1       -0.3550
     36  C         14.7410  -22.2500   -4.3310 C.3     1  UNL1        0.2100
     37  C         18.7980  -21.1570   -4.9410 C.2     1  UNL1        0.2520
     38  N         18.5490  -20.9490   -3.6170 N.am    1  UNL1       -0.3660
     39  H         19.0090  -20.1800   -3.1510 H       1  UNL1        0.1590
     40  H         17.9460  -21.5690   -3.0910 H       1  UNL1        0.1590
     41  O         19.5520  -20.4010   -5.5470 O.2     1  UNL1       -0.2680
@<TRIPOS>BOND
     1    24    23    1
     2    25    23    1
     3    26    23    1
     4    23    21    1
     5    21    22    1
     6    21    18    1
     7    19    18    2
     8    20    18    2
     9    18    16    1
    10    16    17    1
    11    16    14    2
    12    15    14    1
    13    17    11    2
    14    14    13    1
    15     7     6    2
    16     7     8    1
    17     6     5    1
    18     8     9    2
    19    11     4    1
    20    11    12    1
    21    13    12    2
    22     5     4   ar
    23     5    10   ar
    24     4     3   ar
    25     9    10    1
    26    10     1   ar
    27     3     2   ar
    28     1     2   ar
    29     1    27    1
    30    28    27    1
    31    27    29    1
    32    29    30    2
    33    29    34    1
    34    30    31    1
    35    34    33    2
    36    31    32    2
    37    33    32    1
    38    33    37    1
    39    41    37    2
    40    32    35    1
    41    37    38   am
    42    36    35    1
    43    38    39    1
    44    38    40    1
