@<TRIPOS>MOLECULE
14599_out_ligand_01.pdbqt
 33 35 0 0 0
SMALL
GASTEIGER

@<TRIPOS>ATOM
      1  N         21.0900  -22.1940   -9.2250 N.am    1  UNL1       -0.3220
      2  C         20.7980  -23.4110   -8.6330 C.2     1  UNL1        0.2560
      3  O         21.3810  -24.4730   -8.8130 O.2     1  UNL1       -0.2670
      4  H         20.6470  -21.3830   -8.8230 H       1  UNL1        0.1690
      5  C         21.9910  -21.9480  -10.2900 C.2     1  UNL1        0.0440
      6  C         23.3540  -21.7090  -10.0560 C.2     1  UNL1        0.0470
      7  C         24.2510  -21.5140  -11.1160 C.2     1  UNL1        0.0340
      8  C         23.7970  -21.5830  -12.4320 C.2     1  UNL1        0.0180
      9  C         22.4470  -21.8210  -12.6810 C.2     1  UNL1        0.0120
     10  C         21.5260  -21.9950  -11.6260 C.2     1  UNL1       -0.0030
     11  C         25.6850  -21.2800  -10.8040 C.2     1  UNL1        0.2490
     12  N         26.4470  -22.3790  -10.5080 N.am    1  UNL1       -0.3660
     13  H         27.4420  -22.2090  -10.4390 H       1  UNL1        0.1590
     14  H         26.1510  -23.3100  -10.7630 H       1  UNL1        0.1590
     15  O         26.1850  -20.1640  -10.8350 O.2     1  UNL1       -0.2680
     16  C         20.0740  -22.2170  -12.0230 C.3     1  UNL1        0.3120
     17  N         19.1140  -21.5930  -11.0990 N.3     1  UNL1        0.0840
     18  C         18.6370  -20.2950  -11.5840 C.3     1  UNL1        0.3090
     19  C         17.9740  -22.4850  -10.8730 C.3     1  UNL1        0.3090
     20  C         19.6910  -23.3820   -7.6300 C.2     1  UNL1        0.0330
     21  C         18.7480  -24.4230   -7.6440 C.2     1  UNL1        0.0190
     22  C         17.6880  -24.4410   -6.7320 C.2     1  UNL1        0.0310
     23  C         17.5670  -23.4100   -5.8040 C.ar    1  UNL1        0.0520
     24  N         16.5170  -23.4100   -4.8830 N.ar    1  UNL1       -0.3080
     25  C         18.4950  -22.3690   -5.7930 C.ar    1  UNL1        0.0600
     26  C         16.3360  -22.4260   -3.9540 C.ar    1  UNL1        0.3270
     27  H         15.8330  -24.1570   -4.8740 H       1  UNL1        0.1700
     28  O         15.4080  -22.4620   -3.1530 O.2     1  UNL1       -0.2470
     29  N         17.2450  -21.4060   -3.9630 N.ar    1  UNL1       -0.2750
     30  C         18.3370  -21.3010   -4.7880 C.ar    1  UNL1        0.2610
     31  H         17.1210  -20.6870   -3.2650 H       1  UNL1        0.1730
     32  O         19.1500  -20.3900   -4.6990 O.2     1  UNL1       -0.2670
     33  C         19.5530  -22.3390   -6.7080 C.2     1  UNL1        0.0360
@<TRIPOS>BOND
     1     9     8    2
     2     9    10    1
     3     8     7    1
     4    16    10    1
     5    16    17    1
     6    10     5    2
     7    18    17    1
     8     7    11    1
     9     7     6    2
    10    17    19    1
    11    15    11    2
    12    11    12   am
    13    14    12    1
    14    12    13    1
    15     5     6    1
    16     5     1    1
    17     1     4    1
    18     1     2   am
    19     3     2    2
    20     2    20    1
    21    21    20    2
    22    21    22    1
    23    20    33    1
    24    22    23    2
    25    33    25    2
    26    23    25   ar
    27    23    24   ar
    28    25    30   ar
    29    24    27    1
    30    24    26   ar
    31    30    32    2
    32    30    29   ar
    33    29    26   ar
    34    29    31    1
    35    26    28    2
