@<TRIPOS>MOLECULE
14591_out_ligand_01.pdbqt
 30 34 0 0 0
SMALL
GASTEIGER

@<TRIPOS>ATOM
      1  C         24.3320  -22.3510  -12.0800 C.2     1  UNL1        0.1240
      2  N         24.1460  -21.8190  -13.3070 N.2     1  UNL1       -0.2290
      3  C         22.9270  -21.3780  -13.6420 C.2     1  UNL1        0.2350
      4  N         21.8260  -21.3890  -12.8900 N.2     1  UNL1       -0.2400
      5  C         21.9910  -21.9210  -11.6510 C.ar    1  UNL1        0.0920
      6  C         23.2230  -22.4050  -11.2220 C.ar    1  UNL1        0.0770
      7  S         23.1260  -23.0070   -9.6190 S.2     1  UNL1       -0.0640
      8  C         21.4780  -22.6210   -9.4980 C.ar    1  UNL1        0.1120
      9  N         20.8260  -22.8730   -8.3490 N.ar    1  UNL1       -0.2390
     10  C         19.5230  -22.5230   -8.3290 C.ar    1  UNL1        0.0750
     11  C         18.8530  -21.9790   -9.4320 C.ar    1  UNL1       -0.0210
     12  C         19.5760  -21.7200  -10.6220 C.ar    1  UNL1       -0.0340
     13  C         20.9560  -22.0520  -10.6510 C.ar    1  UNL1        0.0370
     14  C         18.8150  -21.0740  -11.7580 C.3     1  UNL1        0.0400
     15  C         17.4750  -21.7690  -11.9900 C.3     1  UNL1        0.0050
     16  C         16.6900  -22.0620  -10.7080 C.3     1  UNL1        0.0050
     17  C         17.3860  -21.6160   -9.4200 C.3     1  UNL1        0.0410
     18  N         25.5850  -22.8390  -11.7030 N.pl3   1  UNL1       -0.2760
     19  H         25.5340  -23.3690  -10.8370 H       1  UNL1        0.1290
     20  C         26.6830  -21.8860  -11.7820 C.3     1  UNL1        0.0960
     21  C         26.3280  -20.6360  -10.9770 C.3     1  UNL1        0.0410
     22  C         26.6890  -19.3550  -11.7160 C.3     1  UNL1        0.1650
     23  O         26.6720  -18.2400  -10.8360 O.3     1  UNL1       -0.4010
     24  H         25.7810  -17.8530  -10.8570 H       1  UNL1        0.2090
     25  C         18.8770  -22.7670   -7.0290 C.2     1  UNL1       -0.0070
     26  C         18.8730  -21.7720   -6.0380 C.2     1  UNL1        0.0140
     27  C         18.2630  -21.9940   -4.8000 C.2     1  UNL1        0.0010
     28  C         17.6400  -23.2120   -4.5390 C.2     1  UNL1        0.0000
     29  C         17.6190  -24.2050   -5.5160 C.2     1  UNL1        0.0010
     30  C         18.2300  -23.9820   -6.7530 C.2     1  UNL1        0.0140
@<TRIPOS>BOND
     1     3     2    1
     2     3     4    2
     3     2     1    2
     4     4     5    1
     5     1    18    1
     6     1     6    1
     7    15    14    1
     8    15    16    1
     9    20    18    1
    10    20    21    1
    11    14    12    1
    12    22    21    1
    13    22    23    1
    14    18    19    1
    15     5     6   ar
    16     5    13   ar
    17     6     7   ar
    18    24    23    1
    19    16    17    1
    20    13    12   ar
    21    13     8   ar
    22    12    11   ar
    23     7     8   ar
    24     8     9   ar
    25    11    17    1
    26    11    10   ar
    27     9    10   ar
    28    10    25    1
    29    25    30    2
    30    25    26    1
    31    30    29    1
    32    26    27    2
    33    29    28    2
    34    27    28    1
