@<TRIPOS>MOLECULE
145_out_ligand_01.pdbqt
 38 42 0 0 0
SMALL
GASTEIGER

@<TRIPOS>ATOM
      1  C         20.3810  -22.5390   -9.4990 C.2     1  UNL1        0.0550
      2  C         21.7740  -22.7070   -9.5770 C.2     1  UNL1        0.0440
      3  C         22.4490  -22.4340  -10.7710 C.2     1  UNL1        0.0800
      4  C         21.7540  -21.9920  -11.8960 C.2     1  UNL1        0.0270
      5  C         20.3710  -21.8170  -11.8190 C.2     1  UNL1        0.0260
      6  C         19.6820  -22.0840  -10.6280 C.2     1  UNL1        0.0490
      7 CL         17.9810  -21.7860  -10.6330 Cl      1  UNL1       -0.0830
      8  C         19.7590  -22.8400   -8.1790 C.2     1  UNL1        0.2570
      9  N         19.4320  -21.7450   -7.4020 N.am    1  UNL1       -0.3230
     10  H         19.6970  -20.8360   -7.7600 H       1  UNL1        0.1690
     11  O         19.5490  -24.0180   -7.9130 O.2     1  UNL1       -0.2670
     12  C         18.8120  -21.7450   -6.1350 C.2     1  UNL1        0.0360
     13  C         19.3230  -21.0890   -5.0120 C.2     1  UNL1        0.0290
     14  C         18.6530  -21.1400   -3.7850 C.2     1  UNL1        0.0040
     15  C         17.4600  -21.8470   -3.6680 C.2     1  UNL1        0.0250
     16  C         16.9410  -22.4940   -4.7900 C.2     1  UNL1        0.0760
     17  C         17.6130  -22.4560   -6.0160 C.2     1  UNL1        0.0540
     18  S         15.4430  -23.4190   -4.6410 S.O2    1  UNL1        0.2390
     19  O         15.5500  -24.3120   -3.5110 O.2     1  UNL1       -0.2060
     20  O         15.0260  -23.8700   -5.9480 O.2     1  UNL1       -0.2060
     21  N         14.3410  -22.2330   -4.1960 N.3     1  UNL1       -0.2250
     22  H         14.6980  -21.7140   -3.3940 H       1  UNL1        0.1360
     23  H         13.4240  -22.6530   -4.0400 H       1  UNL1        0.1360
     24  S         24.2060  -22.6640  -10.8430 S.O2    1  UNL1        0.2590
     25  O         24.7720  -21.3600  -11.1080 O.2     1  UNL1       -0.2010
     26  O         24.6160  -23.4530   -9.7060 O.2     1  UNL1       -0.2010
     27  N         24.4170  -23.5560  -12.2410 N.3     1  UNL1       -0.3050
     28  H         23.7030  -24.2780  -12.3410 H       1  UNL1        0.1730
     29  C         25.0420  -23.0570  -13.4800 C.3     1  UNL1        0.0410
     30  C         24.1670  -21.9580  -14.1200 C.3     1  UNL1        0.0360
     31  C         24.7680  -21.5090  -15.4640 C.3     1  UNL1       -0.0120
     32  C         24.8240  -22.7130  -16.4210 C.3     1  UNL1        0.0090
     33  C         26.1950  -20.9810  -15.2300 C.3     1  UNL1        0.0090
     34  C         25.6990  -23.8250  -15.8160 C.3     1  UNL1       -0.0120
     35  C         27.1210  -23.2870  -15.5860 C.3     1  UNL1        0.0090
     36  C         25.1030  -24.2570  -14.4660 C.3     1  UNL1        0.0360
     37  C         27.0790  -22.0870  -14.6250 C.3     1  UNL1       -0.0120
     38  C         26.4780  -22.5350  -13.2790 C.3     1  UNL1        0.0360
@<TRIPOS>BOND
     1    32    34    1
     2    32    31    1
     3    34    35    1
     4    34    36    1
     5    35    37    1
     6    31    33    1
     7    31    30    1
     8    33    37    1
     9    37    38    1
    10    36    29    1
    11    30    29    1
    12    29    38    1
    13    29    27    1
    14    28    27    1
    15    27    24    1
    16     4     5    2
    17     4     3    1
    18     5     6    1
    19    25    24    2
    20    24     3    1
    21    24    26    2
    22     3     2    2
    23     7     6    1
    24     6     1    2
    25     2     1    1
    26     1     8    1
    27     8    11    2
    28     8     9   am
    29    10     9    1
    30     9    12    1
    31    12    17    2
    32    12    13    1
    33    17    16    1
    34    20    18    2
    35    13    14    2
    36    16    18    1
    37    16    15    2
    38    18    21    1
    39    18    19    2
    40    21    23    1
    41    21    22    1
    42    14    15    1
