@<TRIPOS>MOLECULE
14608_out_ligand_01.pdbqt
 30 33 0 0 0
SMALL
GASTEIGER

@<TRIPOS>ATOM
      1  N         20.1220  -22.5600   -8.7720 N.am    1  UNL1       -0.2380
      2  N         21.5200  -22.4230   -8.6490 N.pl3   1  UNL1       -0.1900
      3  C         21.9760  -22.2050   -9.9470 C.2     1  UNL1        0.1010
      4  C         21.0070  -22.1560  -10.8650 C.2     1  UNL1        0.1060
      5  C         19.7560  -22.3940  -10.1120 C.2     1  UNL1        0.2640
      6  O         18.6640  -22.4280  -10.6530 O.2     1  UNL1       -0.2670
      7  H         21.9470  -23.2770   -8.2800 H       1  UNL1        0.1530
      8  C         23.4210  -22.1030  -10.2870 C.2     1  UNL1        0.2640
      9  O         24.0920  -21.1220   -9.9970 O.2     1  UNL1       -0.2670
     10  N         23.8860  -23.2020  -10.9610 N.am    1  UNL1       -0.3520
     11  H         23.2530  -23.9730  -11.1330 H       1  UNL1        0.1630
     12  C         25.2100  -23.2610  -11.5300 C.3     1  UNL1        0.1610
     13  C         25.1250  -23.2160  -13.0350 C.2     1  UNL1       -0.0400
     14  C         25.2800  -24.4050  -13.7820 C.2     1  UNL1        0.0090
     15  C         25.2460  -24.3910  -15.1790 C.2     1  UNL1        0.0100
     16  C         25.0530  -23.1770  -15.8140 C.2     1  UNL1       -0.0220
     17  C         24.9040  -21.9990  -15.0880 C.2     1  UNL1       -0.0220
     18  C         25.0050  -22.8650  -17.2710 C.3     1  UNL1        0.3090
     19  C         24.9450  -21.9950  -13.7040 C.2     1  UNL1        0.0180
     20  C         24.7470  -20.8570  -16.0350 C.3     1  UNL1        0.3090
     21  N         24.4960  -21.4730  -17.3630 N.3     1  UNL1        0.0910
     22  H         23.4830  -21.5440  -17.4610 H       1  UNL1        0.3160
     23  C         19.3170  -22.7860   -7.6350 C.2     1  UNL1        0.0550
     24  C         18.5300  -23.9350   -7.5220 C.2     1  UNL1        0.0320
     25  C         17.7460  -24.1580   -6.3850 C.2     1  UNL1        0.0090
     26  C         17.7270  -23.2380   -5.3290 C.2     1  UNL1       -0.0560
     27  C         16.8620  -23.5120   -4.1300 C.3     1  UNL1        0.0490
     28  C         18.4960  -22.0660   -5.4330 C.2     1  UNL1       -0.0540
     29  C         19.2850  -21.8590   -6.5810 C.2     1  UNL1        0.0380
     30  C         18.4960  -21.0300   -4.3420 C.3     1  UNL1        0.0490
@<TRIPOS>BOND
     1    22    21    1
     2    21    18    1
     3    21    20    1
     4    18    16    1
     5    20    17    1
     6    16    15    2
     7    16    17    1
     8    15    14    1
     9    17    19    2
    10    14    13    2
    11    19    13    1
    12    13    12    1
    13    12    10    1
    14    11    10    1
    15    10     8   am
    16     4     5    1
    17     4     3    2
    18     6     5    2
    19     8     9    2
    20     8     3    1
    21     5     1   am
    22     3     2    1
    23     1     2    1
    24     1    23    1
    25     2     7    1
    26    23    24    2
    27    23    29    1
    28    24    25    1
    29    29    28    2
    30    25    26    2
    31    28    26    1
    32    28    30    1
    33    26    27    1
