@<TRIPOS>MOLECULE
14602_out_ligand_01.pdbqt
 38 42 0 0 0
SMALL
GASTEIGER

@<TRIPOS>ATOM
      1  C         20.3470  -21.7350  -11.0520 C.2     1  UNL1        0.0340
      2  C         19.6940  -20.6890  -11.7180 C.2     1  UNL1        0.0170
      3  C         18.3010  -20.6520  -11.7760 C.2     1  UNL1        0.0030
      4  C         17.5530  -21.6680  -11.1810 C.2     1  UNL1        0.0300
      5  C         18.2000  -22.7240  -10.5360 C.2     1  UNL1        0.0430
      6  C         19.5940  -22.7610  -10.4680 C.2     1  UNL1        0.0470
      7  C         21.8380  -21.7360  -11.0260 C.2     1  UNL1        0.2560
      8  O         22.3950  -21.4160   -9.9830 O.2     1  UNL1       -0.2670
      9  N         22.4500  -22.1420  -12.1970 N.am    1  UNL1       -0.3230
     10  H         21.8520  -22.4890  -12.9360 H       1  UNL1        0.1690
     11  C         23.8370  -22.2000  -12.4610 C.2     1  UNL1        0.0370
     12  C         24.6950  -23.1610  -11.9250 C.2     1  UNL1        0.0530
     13  C         26.0550  -23.1370  -12.2390 C.2     1  UNL1        0.0370
     14 CL         27.1060  -24.3280  -11.5730 Cl      1  UNL1       -0.0840
     15  C         26.5770  -22.1600  -13.0840 C.2     1  UNL1        0.0390
     16  C         25.7340  -21.1860  -13.6290 C.2     1  UNL1        0.0180
     17  C         24.3660  -21.2150  -13.3080 C.2     1  UNL1        0.0450
     18  C         26.2590  -20.1560  -14.5140 C.2     1  UNL1        0.1980
     19  N         26.5040  -18.8660  -14.1000 N.2     1  UNL1       -0.1360
     20  N         26.9700  -18.2060  -15.1510 N.pl3   1  UNL1        0.0220
     21  N         26.9870  -19.1110  -16.1350 N.3     1  UNL1       -0.2000
     22  N         26.5570  -20.3400  -15.8130 N.pl3   1  UNL1       -0.1390
     23  H         27.3070  -18.8760  -17.0710 H       1  UNL1        0.2080
     24  N         17.4140  -23.7710   -9.9780 N.pl3   1  UNL1       -0.2810
     25  H         17.8910  -24.4930   -9.4400 H       1  UNL1        0.1790
     26  S         15.8950  -23.4130   -9.3250 S.O2    1  UNL1        0.2630
     27  O         15.1130  -24.6250   -9.4460 O.2     1  UNL1       -0.2000
     28  O         15.4280  -22.1580   -9.8750 O.2     1  UNL1       -0.2000
     29  C         16.2510  -23.1700   -7.6000 C.2     1  UNL1        0.0800
     30  C         15.5130  -23.8570   -6.6350 C.2     1  UNL1        0.0260
     31  C         15.7940  -23.6500   -5.2840 C.2     1  UNL1        0.0140
     32  C         16.8190  -22.7730   -4.8900 C.2     1  UNL1       -0.0260
     33  C         17.1090  -22.5560   -3.5330 C.2     1  UNL1        0.0120
     34  C         17.5780  -22.0980   -5.8760 C.2     1  UNL1       -0.0250
     35  C         18.1340  -21.6880   -3.1530 C.2     1  UNL1        0.0010
     36  C         18.8820  -21.0280   -4.1220 C.2     1  UNL1        0.0010
     37  C         18.6080  -21.2310   -5.4760 C.2     1  UNL1        0.0120
     38  C         17.2900  -22.3080   -7.2320 C.2     1  UNL1        0.0370
@<TRIPOS>BOND
     1    23    21    1
     2    21    22    1
     3    21    20    1
     4    22    18    1
     5    20    19    1
     6    18    19    2
     7    18    16    1
     8    16    17    1
     9    16    15    2
    10    17    11    2
    11    15    13    1
    12    10     9    1
    13    11     9    1
    14    11    12    1
    15    13    12    2
    16    13    14    1
    17     9     7   am
    18     3     2    1
    19     3     4    2
    20     2     1    2
    21     4     5    1
    22     1     7    1
    23     1     6    1
    24     7     8    2
    25     5     6    2
    26     5    24    1
    27    24    25    1
    28    24    26    1
    29    28    26    2
    30    27    26    2
    31    26    29    1
    32    29    38    2
    33    29    30    1
    34    38    34    1
    35    30    31    2
    36    34    37    1
    37    34    32    2
    38    37    36    2
    39    31    32    1
    40    32    33    1
    41    36    35    1
    42    33    35    2
