@<TRIPOS>MOLECULE
14605_out_ligand_01.pdbqt
 27 30 0 0 0
SMALL
GASTEIGER

@<TRIPOS>ATOM
      1  O         20.2040  -24.7510   -9.0120 O.2     1  UNL1       -0.2730
      2  C         20.5720  -23.5790   -9.0190 C.2     1  UNL1        0.2260
      3  N         19.8730  -22.5000   -8.4990 N.am    1  UNL1       -0.3270
      4  H         20.3050  -21.5890   -8.5970 H       1  UNL1        0.1690
      5  C         18.6250  -22.5160   -7.8440 C.2     1  UNL1        0.0350
      6  C         17.4030  -22.7500   -8.4840 C.2     1  UNL1        0.0300
      7  C         16.2020  -22.7490   -7.7630 C.2     1  UNL1        0.0140
      8  C         16.2060  -22.5080   -6.3880 C.2     1  UNL1       -0.0190
      9  C         14.9630  -22.4960   -5.6120 C.2     1  UNL1        0.0290
     10  C         17.4290  -22.2760   -5.7470 C.2     1  UNL1        0.0440
     11  C         15.0150  -22.2520   -4.2970 C.2     1  UNL1        0.0920
     12  N         16.2040  -22.0180   -3.6590 N.am    1  UNL1       -0.3330
     13  C         17.4350  -22.0160   -4.2830 C.2     1  UNL1        0.2560
     14  H         16.2200  -21.8410   -2.6600 H       1  UNL1        0.1680
     15  O         18.4760  -21.8090   -3.6690 O.2     1  UNL1       -0.2670
     16  C         18.6310  -22.2820   -6.4650 C.2     1  UNL1        0.0470
     17  C         21.9060  -23.1750   -9.6370 C.3     1  UNL1        0.1440
     18  C         21.7150  -22.3810  -10.8860 C.2     1  UNL1       -0.0200
     19  C         20.5660  -21.6930  -11.2460 C.2     1  UNL1        0.0980
     20  N         20.7790  -21.0950  -12.4590 N.pl3   1  UNL1       -0.3500
     21  C         22.0440  -21.3730  -12.8930 C.2     1  UNL1        0.1380
     22  H         20.1180  -20.5420  -12.9820 H       1  UNL1        0.1660
     23  N         22.5580  -20.9250  -14.0550 N.2     1  UNL1       -0.2420
     24  C         22.6620  -22.1780  -11.9400 C.2     1  UNL1        0.0180
     25  C         23.8240  -21.3530  -14.2650 C.2     1  UNL1        0.1190
     26  C         24.5610  -22.1580  -13.4060 C.2     1  UNL1        0.0200
     27  C         23.9820  -22.5830  -12.2090 C.2     1  UNL1        0.0170
@<TRIPOS>BOND
     1    25    23    1
     2    25    26    2
     3    23    21    2
     4    26    27    1
     5    22    20    1
     6    21    20    1
     7    21    24    1
     8    20    19    1
     9    27    24    2
    10    24    18    1
    11    19    18    2
    12    18    17    1
    13    17     2    1
    14     2     1    2
    15     2     3   am
    16     4     3    1
    17     3     5    1
    18     6     5    2
    19     6     7    1
    20     5    16    1
    21     7     8    2
    22    16    10    2
    23     8    10    1
    24     8     9    1
    25    10    13    1
    26     9    11    2
    27    11    12    1
    28    13    15    2
    29    13    12   am
    30    12    14    1
