@<TRIPOS>MOLECULE
14614_out_ligand_01.pdbqt
 23 26 0 0 0
SMALL
GASTEIGER

@<TRIPOS>ATOM
      1  C         16.2440  -22.6920   -7.8870 C.3     1  UNL1        0.1560
      2  N         17.3650  -23.2100   -8.6520 N.pl3   1  UNL1       -0.4000
      3  C         18.0140  -22.3160   -9.6150 C.2     1  UNL1        0.1580
      4  C         19.4280  -22.8110   -9.6910 C.2     1  UNL1       -0.0150
      5  C         19.6220  -23.8010   -8.7240 C.2     1  UNL1       -0.0310
      6  C         20.4660  -22.4120  -10.5240 C.2     1  UNL1        0.0250
      7  C         20.8490  -24.4190   -8.5640 C.2     1  UNL1        0.0100
      8  C         18.3590  -24.0210   -7.9510 C.2     1  UNL1        0.1560
      9  C         21.8970  -24.0290   -9.4020 C.2     1  UNL1        0.0090
     10  C         21.7240  -23.0290  -10.3860 C.2     1  UNL1       -0.0440
     11  C         22.8970  -22.6560  -11.2500 C.3     1  UNL1        0.0490
     12 BR         20.1590  -21.0490  -11.8090 Br      1  UNL1       -0.0500
     13  C         16.1400  -22.9370   -6.3850 C.2     1  UNL1       -0.0340
     14  C         15.1770  -23.7870   -5.8130 C.2     1  UNL1        0.0090
     15  C         15.1060  -23.9890   -4.4350 C.2     1  UNL1        0.0010
     16  C         15.9990  -23.3440   -3.5880 C.2     1  UNL1        0.0090
     17  C         16.9780  -22.4920   -4.1110 C.2     1  UNL1       -0.0240
     18  C         17.0360  -22.2660   -5.5070 C.2     1  UNL1       -0.0410
     19  C         17.9090  -21.7810   -3.1540 C.3     1  UNL1        0.3080
     20  C         18.1190  -21.3460   -6.0420 C.3     1  UNL1        0.0690
     21  C         18.7890  -20.4930   -4.9600 C.3     1  UNL1        0.2740
     22  N         19.1400  -21.2920   -3.7840 N.3     1  UNL1        0.0870
     23  H         19.6790  -22.1030   -4.0860 H       1  UNL1        0.3160
@<TRIPOS>BOND
     1    12     6    1
     2    11    10    1
     3     6    10    2
     4     6     4    1
     5    10     9    1
     6     4     3    2
     7     4     5    1
     8     3     2    1
     9     9     7    2
    10     5     7    1
    11     5     8    2
    12     2     8    1
    13     2     1    1
    14     1    13    1
    15    13    14    2
    16    13    18    1
    17    20    18    1
    18    20    21    1
    19    14    15    1
    20    18    17    2
    21    21    22    1
    22    15    16    2
    23    17    16    1
    24    17    19    1
    25    23    22    1
    26    22    19    1
