@<TRIPOS>MOLECULE
14615_out_ligand_01.pdbqt
 33 36 0 0 0
SMALL
GASTEIGER

@<TRIPOS>ATOM
      1  C         19.8480  -22.0380  -11.1200 C.2     1  UNL1        0.0100
      2  C         18.7770  -21.2610  -11.5840 C.2     1  UNL1        0.0160
      3  C         17.4850  -21.4410  -11.0740 C.2     1  UNL1        0.0100
      4  C         17.2340  -22.4110  -10.0970 C.2     1  UNL1       -0.0400
      5  C         18.3000  -23.1860   -9.6260 C.2     1  UNL1        0.0100
      6  C         19.5880  -23.0030  -10.1360 C.2     1  UNL1        0.0160
      7  C         15.8510  -22.5960   -9.5250 C.3     1  UNL1        0.1610
      8  N         15.8750  -22.4860   -8.0890 N.am    1  UNL1       -0.3510
      9  C         15.9300  -23.5840   -7.2590 C.2     1  UNL1        0.2700
     10  O         15.8070  -24.7430   -7.6360 O.2     1  UNL1       -0.2660
     11  H         16.1090  -21.5970   -7.6590 H       1  UNL1        0.1630
     12  C         16.1720  -23.2480   -5.8180 C.2     1  UNL1        0.1240
     13  C         15.3700  -23.8080   -4.8330 C.2     1  UNL1        0.0370
     14  C         15.6320  -23.4770   -3.5100 C.2     1  UNL1        0.0050
     15  C         16.6790  -22.6060   -3.2170 C.2     1  UNL1        0.0290
     16  C         17.4430  -22.0840   -4.2610 C.2     1  UNL1        0.0630
     17  N         17.2040  -22.3910   -5.5650 N.2     1  UNL1       -0.2460
     18  C         18.5860  -21.1330   -3.9450 C.3     1  UNL1        0.3250
     19  N         19.2170  -20.5650   -5.1440 N.3     1  UNL1        0.0830
     20  H         19.1430  -19.5500   -5.0600 H       1  UNL1        0.3130
     21  H         18.6040  -20.7860   -5.9310 H       1  UNL1        0.3130
     22  C         21.2190  -21.8830  -11.6230 C.ar    1  UNL1        0.1390
     23  N         22.3260  -22.0660  -10.9210 N.ar    1  UNL1       -0.2280
     24  C         23.3700  -21.8140  -11.7750 C.ar    1  UNL1        0.0860
     25  C         24.7510  -21.8670  -11.5470 C.2     1  UNL1        0.0410
     26  C         22.9070  -21.4560  -13.0300 C.ar    1  UNL1        0.0630
     27  C         25.6410  -21.5580  -12.5970 C.2     1  UNL1       -0.0540
     28  C         27.1210  -21.6230  -12.3320 C.3     1  UNL1        0.0490
     29  C         25.1360  -21.1950  -13.8670 C.2     1  UNL1       -0.0540
     30  C         23.7470  -21.1400  -14.0980 C.2     1  UNL1        0.0390
     31  C         26.0690  -20.8600  -15.0020 C.3     1  UNL1        0.0490
     32  N         21.5420  -21.5030  -12.9070 N.ar    1  UNL1       -0.3380
     33  H         20.8850  -21.2840  -13.6370 H       1  UNL1        0.1670
@<TRIPOS>BOND
     1    31    29    1
     2    30    29    2
     3    30    26    1
     4    29    27    1
     5    33    32    1
     6    26    32   ar
     7    26    24   ar
     8    32    22   ar
     9    27    28    1
    10    27    25    2
    11    24    25    1
    12    24    23   ar
    13    22     1    1
    14    22    23   ar
    15     2     1    2
    16     2     3    1
    17     1     6    1
    18     3     4    2
    19     6     5    2
    20     4     5    1
    21     4     7    1
    22     7     8    1
    23     8    11    1
    24     8     9   am
    25    10     9    2
    26     9    12    1
    27    21    19    1
    28    12    17    2
    29    12    13    1
    30    17    16    1
    31    19    20    1
    32    19    18    1
    33    13    14    2
    34    16    18    1
    35    16    15    2
    36    14    15    1
