@<TRIPOS>MOLECULE
14618_out_ligand_01.pdbqt
 30 33 0 0 0
SMALL
GASTEIGER

@<TRIPOS>ATOM
      1  O         21.0610  -21.0580  -12.7200 O.2     1  UNL1       -0.2660
      2  C         20.8440  -21.7250  -11.7130 C.2     1  UNL1        0.2750
      3  N         21.8120  -22.4540  -11.0380 N.am    1  UNL1       -0.3190
      4  H         21.5110  -23.0650  -10.2890 H       1  UNL1        0.1690
      5  C         19.4870  -21.8240  -11.1370 C.2     1  UNL1        0.1320
      6  C         18.3410  -21.2150  -11.6260 C.2     1  UNL1        0.0890
      7  S         16.9820  -21.6100  -10.6570 S.3     1  UNL1       -0.0840
      8  C         17.9880  -22.5780   -9.6600 C.2     1  UNL1        0.0760
      9  N         19.2560  -22.6090  -10.0060 N.2     1  UNL1       -0.2400
     10  C         17.4190  -23.3150   -8.4870 C.3     1  UNL1        0.0720
     11  C         18.5210  -23.7040   -7.5010 C.3     1  UNL1        0.0450
     12  C         18.5280  -22.7990   -6.2920 C.2     1  UNL1       -0.0580
     13  C         19.2480  -21.5980   -6.3070 C.2     1  UNL1        0.0070
     14  C         19.2360  -20.7530   -5.1960 C.2     1  UNL1        0.0010
     15  C         18.5000  -21.1000   -4.0640 C.2     1  UNL1        0.0000
     16  C         17.7760  -22.2910   -4.0410 C.2     1  UNL1        0.0010
     17  C         17.7880  -23.1370   -5.1510 C.2     1  UNL1        0.0070
     18  C         23.1940  -22.5310  -11.3300 C.2     1  UNL1        0.0740
     19  C         23.7410  -23.2810  -12.3760 C.2     1  UNL1        0.0480
     20  C         25.1300  -23.3080  -12.5990 C.2     1  UNL1        0.0150
     21  C         25.9640  -22.5560  -11.7570 C.2     1  UNL1        0.0180
     22  C         25.4300  -21.7980  -10.7140 C.2     1  UNL1        0.0450
     23  C         24.0570  -21.7930  -10.5110 C.2     1  UNL1        0.1430
     24  F         23.5460  -21.0630   -9.5070 F       1  UNL1       -0.2040
     25  C         25.7270  -24.0910  -13.6810 C.ar    1  UNL1        0.1680
     26  N         25.2920  -25.2370  -14.1710 N.ar    1  UNL1       -0.1420
     27  N         26.1630  -25.5970  -15.1700 N.ar    1  UNL1        0.0180
     28  N         27.1210  -24.6950  -15.3090 N.ar    1  UNL1       -0.0050
     29  N         26.8530  -23.7590  -14.3900 N.ar    1  UNL1       -0.2680
     30  H         27.4580  -22.9520  -14.3130 H       1  UNL1        0.1850
@<TRIPOS>BOND
     1    28    27   ar
     2    28    29   ar
     3    27    26   ar
     4    29    30    1
     5    29    25   ar
     6    26    25   ar
     7    25    20    1
     8     1     2    2
     9    20    19    1
    10    20    21    2
    11    19    18    2
    12    21    22    1
    13     2     5    1
    14     2     3   am
    15     6     5    2
    16     6     7    1
    17    18     3    1
    18    18    23    1
    19     5     9    1
    20     3     4    1
    21    22    23    2
    22     7     8    1
    23    23    24    1
    24     9     8    2
    25     8    10    1
    26    10    11    1
    27    11    12    1
    28    13    12    2
    29    13    14    1
    30    12    17    1
    31    14    15    2
    32    17    16    2
    33    15    16    1
