@<TRIPOS>MOLECULE
1462_out_ligand_01.pdbqt
 34 38 0 0 0
SMALL
GASTEIGER

@<TRIPOS>ATOM
      1  N         16.9600  -23.8080   -6.9710 N.ar    1  UNL1       -0.3190
      2  C         15.9730  -23.2960   -7.7860 C.ar    1  UNL1        0.1700
      3  N         15.0530  -22.6530   -7.1030 N.ar    1  UNL1       -0.2220
      4  C         15.4580  -22.7110   -5.8000 C.ar    1  UNL1        0.0890
      5  C         14.8430  -22.1880   -4.6640 C.2     1  UNL1        0.0530
      6  C         15.5220  -22.3720   -3.4750 C.2     1  UNL1        0.1180
      7  N         16.7150  -23.0010   -3.3560 N.2     1  UNL1       -0.2710
      8  C         17.3090  -23.5170   -4.4580 C.2     1  UNL1        0.1480
      9  C         16.6690  -23.3890   -5.6840 C.ar    1  UNL1        0.0830
     10  S         15.9640  -23.4500   -9.5100 S.3     1  UNL1       -0.0870
     11  C         16.4220  -21.7740  -10.0220 C.3     1  UNL1        0.1210
     12  C         17.8040  -21.6490  -10.6150 C.2     1  UNL1       -0.0480
     13  C         18.3000  -20.4110  -11.0530 C.2     1  UNL1        0.0090
     14  C         19.5790  -20.3140  -11.6170 C.2     1  UNL1        0.0170
     15  C         20.3770  -21.4560  -11.7440 C.2     1  UNL1        0.0320
     16  C         19.8810  -22.6960  -11.3280 C.2     1  UNL1        0.0170
     17  C         18.6070  -22.7890  -10.7630 C.2     1  UNL1        0.0090
     18  C         21.7470  -21.4060  -12.3200 C.2     1  UNL1        0.2520
     19  O         21.9130  -21.0910  -13.4930 O.2     1  UNL1       -0.2680
     20  N         22.7730  -21.7780  -11.4770 N.am    1  UNL1       -0.3520
     21  H         22.5440  -22.2000  -10.5850 H       1  UNL1        0.1630
     22  C         24.1220  -21.9230  -11.9780 C.3     1  UNL1        0.0840
     23  C         25.2000  -21.5430  -10.9570 C.3     1  UNL1        0.0250
     24  C         26.4410  -22.3540  -11.3540 C.3     1  UNL1        0.0020
     25  C         25.9900  -23.3250  -12.4460 C.3     1  UNL1        0.0020
     26  C         24.4740  -23.3690  -12.3240 C.3     1  UNL1        0.0250
     27  C         18.1890  -24.4910   -7.3720 C.3     1  UNL1        0.1700
     28  C         19.3960  -23.5840   -7.5370 C.2     1  UNL1       -0.0340
     29  C         19.3590  -22.3250   -6.9050 C.2     1  UNL1        0.0090
     30  C         20.4270  -21.4310   -7.0010 C.2     1  UNL1        0.0010
     31  C         21.5600  -21.7800   -7.7250 C.2     1  UNL1        0.0010
     32  C         21.6260  -23.0280   -8.3440 C.2     1  UNL1        0.0070
     33  C         20.5650  -23.9460   -8.2480 C.2     1  UNL1       -0.0540
     34  C         20.7220  -25.2720   -8.9370 C.3     1  UNL1        0.0490
@<TRIPOS>BOND
     1    19    18    2
     2    25    26    1
     3    25    24    1
     4    26    22    1
     5    18    15    1
     6    18    20   am
     7    22    20    1
     8    22    23    1
     9    15    14    2
    10    15    16    1
    11    14    13    1
    12    20    21    1
    13    24    23    1
    14    16    17    2
    15    13    12    2
    16    17    12    1
    17    12    11    1
    18    11    10    1
    19    10     2    1
    20    34    33    1
    21    32    33    1
    22    32    31    2
    23    33    28    2
    24     2     3   ar
    25     2     1   ar
    26    31    30    1
    27    28    27    1
    28    28    29    1
    29    27     1    1
    30     3     4   ar
    31    30    29    2
    32     1     9   ar
    33     4     9   ar
    34     4     5    1
    35     9     8    1
    36     5     6    2
    37     8     7    2
    38     6     7    1
