@<TRIPOS>MOLECULE
14626_out_ligand_01.pdbqt
 42 47 0 0 0
SMALL
GASTEIGER

@<TRIPOS>ATOM
      1  C         22.7830  -22.2500  -10.0140 C.2     1  UNL1        0.0340
      2  C         22.9640  -21.8380   -8.6880 C.2     1  UNL1        0.0170
      3  C         21.9690  -22.0710   -7.7370 C.2     1  UNL1        0.0030
      4  C         20.7840  -22.7020   -8.1120 C.2     1  UNL1        0.0300
      5  C         20.5920  -23.0930   -9.4390 C.2     1  UNL1        0.0430
      6  C         21.5850  -22.8690  -10.3920 C.2     1  UNL1        0.0470
      7  C         23.8680  -21.9730  -10.9970 C.2     1  UNL1        0.2560
      8  O         24.6500  -21.0630  -10.7470 O.2     1  UNL1       -0.2670
      9  N         23.8990  -22.8180  -12.0910 N.am    1  UNL1       -0.3230
     10  H         23.2550  -23.5990  -12.0910 H       1  UNL1        0.1690
     11  C         24.7860  -22.7670  -13.1900 C.2     1  UNL1        0.0370
     12  C         25.4210  -23.8800  -13.7270 C.2     1  UNL1        0.0290
     13  C         26.2860  -23.7290  -14.8080 C.2     1  UNL1        0.0040
     14  C         26.5220  -22.4660  -15.3580 C.2     1  UNL1        0.0300
     15  C         25.9010  -21.3170  -14.8460 C.2     1  UNL1        0.0480
     16  C         25.0340  -21.5010  -13.7520 C.2     1  UNL1        0.0590
     17  N         26.1380  -20.0200  -15.4080 N.am    1  UNL1       -0.2440
     18  C         26.6020  -18.9220  -14.7060 C.2     1  UNL1        0.2660
     19  O         26.8980  -18.7650  -13.5330 O.2     1  UNL1       -0.2670
     20  C         26.7050  -17.8140  -15.6490 C.2     1  UNL1        0.0480
     21  C         27.1200  -16.5090  -15.4550 C.2     1  UNL1        0.0180
     22  C         26.2980  -18.2730  -16.8790 C.2     1  UNL1        0.0480
     23  C         27.1100  -15.6600  -16.5660 C.2     1  UNL1        0.0010
     24  C         26.6910  -16.1290  -17.8270 C.2     1  UNL1        0.0010
     25  C         26.2780  -17.4550  -17.9950 C.2     1  UNL1        0.0180
     26  C         25.9340  -19.6780  -16.7320 C.2     1  UNL1        0.2660
     27  O         25.5380  -20.3140  -17.6920 O.2     1  UNL1       -0.2670
     28  N         19.3500  -23.6840   -9.8080 N.pl3   1  UNL1       -0.2810
     29  H         19.1420  -24.6180   -9.4570 H       1  UNL1        0.1790
     30  S         17.9600  -22.7190   -9.8640 S.O2    1  UNL1        0.2630
     31  O         17.1000  -23.3160  -10.8630 O.2     1  UNL1       -0.2000
     32  O         18.3500  -21.3270   -9.9420 O.2     1  UNL1       -0.2000
     33  C         17.2160  -23.0020   -8.2750 C.2     1  UNL1        0.0800
     34  C         16.1270  -23.8680   -8.1620 C.2     1  UNL1        0.0260
     35  C         15.5440  -24.0770   -6.9120 C.2     1  UNL1        0.0140
     36  C         16.0520  -23.4390   -5.7670 C.2     1  UNL1       -0.0260
     37  C         15.4740  -23.6410   -4.5040 C.2     1  UNL1        0.0120
     38  C         17.1720  -22.5800   -5.8860 C.2     1  UNL1       -0.0250
     39  C         15.9930  -23.0090   -3.3720 C.2     1  UNL1        0.0010
     40  C         17.0970  -22.1680   -3.4890 C.2     1  UNL1        0.0010
     41  C         17.6830  -21.9550   -4.7370 C.2     1  UNL1        0.0120
     42  C         17.7500  -22.3720   -7.1460 C.2     1  UNL1        0.0370
@<TRIPOS>BOND
     1    25    24    2
     2    25    22    1
     3    24    23    1
     4    27    26    2
     5    22    26    1
     6    22    20    2
     7    26    17   am
     8    23    21    2
     9    20    21    1
    10    20    18    1
    11    17    15    1
    12    17    18   am
    13    14    15    2
    14    14    13    1
    15    15    16    1
    16    13    12    2
    17    18    19    2
    18    16    11    2
    19    12    11    1
    20    11     9    1
    21    10     9    1
    22     9     7   am
    23     7     8    2
    24     7     1    1
    25    31    30    2
    26     6     1    2
    27     6     5    1
    28     1     2    1
    29    32    30    2
    30    30    28    1
    31    30    33    1
    32    28    29    1
    33    28     5    1
    34     5     4    2
    35     2     3    2
    36    33    34    2
    37    33    42    1
    38    34    35    1
    39     4     3    1
    40    42    38    2
    41    35    36    2
    42    38    36    1
    43    38    41    1
    44    36    37    1
    45    41    40    2
    46    37    39    2
    47    40    39    1
