@<TRIPOS>MOLECULE
14620_out_ligand_01.pdbqt
 37 41 0 0 0
SMALL
GASTEIGER

@<TRIPOS>ATOM
      1  C         18.7700  -21.5440  -10.9090 C.2     1  UNL1        0.0540
      2  C         17.6250  -20.7410  -11.0190 C.2     1  UNL1        0.0190
      3  C         16.3990  -21.2050  -10.5370 C.2     1  UNL1        0.0010
      4  C         16.3120  -22.4630   -9.9410 C.2     1  UNL1        0.0020
      5  C         17.4500  -23.2580   -9.8120 C.2     1  UNL1        0.0250
      6  C         18.6840  -22.7970  -10.2780 C.2     1  UNL1        0.0380
      7  C         20.0850  -21.0470  -11.3950 C.2     1  UNL1        0.2580
      8  O         20.3580  -19.8690  -11.1970 O.2     1  UNL1       -0.2670
      9  N         20.8810  -21.9980  -12.0050 N.am    1  UNL1       -0.3230
     10  H         20.5690  -22.9610  -11.9460 H       1  UNL1        0.1690
     11  C         22.1440  -21.8010  -12.6020 C.2     1  UNL1        0.0360
     12  C         22.3380  -21.1540  -13.8240 C.2     1  UNL1        0.0300
     13  C         23.6220  -21.0030  -14.3630 C.2     1  UNL1        0.0140
     14  C         24.7330  -21.5040  -13.6840 C.2     1  UNL1       -0.0190
     15  C         26.0850  -21.3610  -14.2280 C.2     1  UNL1        0.0290
     16  C         24.5380  -22.1560  -12.4610 C.2     1  UNL1        0.0440
     17  C         27.1210  -21.8650  -13.5460 C.2     1  UNL1        0.0920
     18  N         26.9420  -22.5090  -12.3510 N.am    1  UNL1       -0.3330
     19  C         25.7190  -22.7000  -11.7430 C.2     1  UNL1        0.2560
     20  H         27.7430  -22.8760  -11.8460 H       1  UNL1        0.1680
     21  O         25.6100  -23.2880  -10.6740 O.2     1  UNL1       -0.2670
     22  C         23.2560  -22.3040  -11.9190 C.2     1  UNL1        0.0470
     23  N         19.8190  -23.6700  -10.1890 N.pl3   1  UNL1       -0.1800
     24  H         19.5850  -24.6660  -10.3140 H       1  UNL1        0.1460
     25  S         20.7670  -23.5250   -8.7850 S.O2    1  UNL1        0.2460
     26  O         21.3210  -24.8220   -8.4530 O.2     1  UNL1       -0.2060
     27  O         21.6130  -22.3640   -8.9620 O.2     1  UNL1       -0.2060
     28  C         19.5560  -23.0920   -7.5610 C.2     1  UNL1        0.0770
     29  C         19.5880  -21.8290   -6.9580 C.2     1  UNL1        0.0280
     30  C         18.6350  -21.5090   -5.9900 C.2     1  UNL1        0.0410
     31  C         17.6630  -22.4470   -5.6310 C.2     1  UNL1        0.1020
     32  C         17.6210  -23.6970   -6.2630 C.2     1  UNL1        0.1030
     33  O         16.7770  -22.0690   -4.6560 O.2     1  UNL1       -0.3460
     34  C         18.5740  -24.0290   -7.2220 C.2     1  UNL1        0.0640
     35  O         16.6750  -24.6500   -5.9800 O.2     1  UNL1       -0.3460
     36  C         15.5640  -24.0850   -5.2720 C.3     1  UNL1        0.2020
     37  C         16.0520  -23.1930   -4.1420 C.3     1  UNL1        0.2020
@<TRIPOS>BOND
     1    13    12    1
     2    13    14    2
     3    15    14    1
     4    15    17    2
     5    12    11    2
     6    14    16    1
     7    17    18    1
     8    11     9    1
     9    11    22    1
    10    16    22    2
    11    16    19    1
    12    18    20    1
    13    18    19   am
    14     9    10    1
    15     9     7   am
    16    19    21    2
    17     7     8    2
    18     7     1    1
    19     2     1    2
    20     2     3    1
    21     1     6    1
    22     3     4    2
    23    24    23    1
    24     6    23    1
    25     6     5    2
    26    23    25    1
    27     4     5    1
    28    27    25    2
    29    25    26    2
    30    25    28    1
    31    28    34    2
    32    28    29    1
    33    34    32    1
    34    29    30    2
    35    32    35    1
    36    32    31    2
    37    30    31    1
    38    35    36    1
    39    31    33    1
    40    36    37    1
    41    33    37    1
