@<TRIPOS>MOLECULE
14636_out_ligand_01.pdbqt
 30 33 0 0 0
SMALL
GASTEIGER

@<TRIPOS>ATOM
      1  C         18.1790  -21.8080  -10.7190 C.2     1  UNL1        0.1460
      2  C         19.4370  -22.4630  -10.7400 C.2     1  UNL1        0.0710
      3  C         20.2390  -21.7280  -11.5920 C.2     1  UNL1        0.0620
      4  N         19.4440  -20.6880  -12.0010 N.pl3   1  UNL1       -0.2770
      5  N         18.1930  -20.7100  -11.5070 N.2     1  UNL1       -0.1690
      6  H         19.7060  -19.9170  -12.6060 H       1  UNL1        0.1890
      7  C         16.9850  -22.2100   -9.9590 C.2     1  UNL1        0.2720
      8  N         17.2810  -23.0550   -8.9140 N.am    1  UNL1       -0.3500
      9  H         18.2530  -23.3460   -8.8670 H       1  UNL1        0.1630
     10  O         15.8570  -21.8200  -10.2390 O.2     1  UNL1       -0.2660
     11  C         16.2660  -23.7570   -8.1650 C.3     1  UNL1        0.1820
     12  C         16.1730  -23.2980   -6.7260 C.2     1  UNL1        0.0540
     13  C         15.1300  -23.7300   -5.9100 C.2     1  UNL1        0.0290
     14  C         15.0870  -23.2820   -4.5970 C.2     1  UNL1        0.0050
     15  C         16.0900  -22.4280   -4.1390 C.2     1  UNL1        0.0440
     16  C         17.1230  -22.0420   -4.9950 C.2     1  UNL1        0.1050
     17  N         17.1560  -22.4750   -6.2750 N.2     1  UNL1       -0.2400
     18  N         18.1310  -21.1700   -4.5160 N.pl3   1  UNL1       -0.2760
     19  C         18.5850  -21.5560   -3.1790 C.3     1  UNL1        0.1180
     20  C         19.2190  -20.9980   -5.4820 C.3     1  UNL1        0.1180
     21  C         21.6320  -21.8980  -11.9990 C.2     1  UNL1       -0.0070
     22  C         22.5030  -22.6690  -11.2210 C.2     1  UNL1        0.0140
     23  C         23.8400  -22.8310  -11.5920 C.2     1  UNL1        0.0130
     24  C         24.3390  -22.2300  -12.7560 C.2     1  UNL1       -0.0260
     25  C         25.6810  -22.3830  -13.1420 C.2     1  UNL1        0.0120
     26  C         23.4700  -21.4580  -13.5590 C.2     1  UNL1       -0.0250
     27  C         26.1610  -21.7810  -14.3060 C.2     1  UNL1        0.0010
     28  C         25.3050  -21.0230  -15.1000 C.2     1  UNL1        0.0010
     29  C         23.9690  -20.8620  -14.7300 C.2     1  UNL1        0.0120
     30  C         22.1270  -21.3030  -13.1700 C.2     1  UNL1        0.0260
@<TRIPOS>BOND
     1    28    29    2
     2    28    27    1
     3    29    26    1
     4    27    25    2
     5    26    30    1
     6    26    24    2
     7    30    21    2
     8    25    24    1
     9    24    23    1
    10     6     4    1
    11     4     3    1
    12     4     5    1
    13    21     3    1
    14    21    22    1
    15     3     2    2
    16    23    22    2
    17     5     1    2
    18     2     1    1
    19     1     7    1
    20    10     7    2
    21     7     8   am
    22     8     9    1
    23     8    11    1
    24    11    12    1
    25    12    17    2
    26    12    13    1
    27    17    16    1
    28    13    14    2
    29    20    18    1
    30    16    18    1
    31    16    15    2
    32    14    15    1
    33    18    19    1
