@<TRIPOS>MOLECULE
14648_out_ligand_01.pdbqt
 30 33 0 0 0
SMALL
GASTEIGER

@<TRIPOS>ATOM
      1  C         20.0630  -22.5200   -8.2090 C.2     1  UNL1        0.2730
      2  O         21.1620  -22.4490   -7.6790 O.2     1  UNL1       -0.2660
      3  N         19.7590  -22.3760   -9.5520 N.am    1  UNL1       -0.3220
      4  H         18.7750  -22.4040   -9.7910 H       1  UNL1        0.1690
      5  C         18.8240  -22.8160   -7.4020 C.ar    1  UNL1        0.1100
      6  C         18.5650  -22.1980   -6.2290 C.ar    1  UNL1       -0.0180
      7  C         19.4410  -21.1320   -5.6230 C.3     1  UNL1        0.0520
      8  C         17.3210  -22.5790   -5.5020 C.ar    1  UNL1       -0.0120
      9  C         16.9710  -22.0320   -4.2570 C.2     1  UNL1        0.0130
     10  C         16.4450  -23.5280   -6.0620 C.ar    1  UNL1        0.0430
     11  C         15.7900  -22.4100   -3.6060 C.2     1  UNL1        0.0010
     12  C         14.9360  -23.3450   -4.1840 C.2     1  UNL1        0.0010
     13  C         15.2630  -23.9090   -5.4130 C.2     1  UNL1        0.0180
     14  C         16.7860  -24.1500   -7.3610 C.ar    1  UNL1        0.2570
     15  N         17.9590  -23.7430   -7.9400 N.ar    1  UNL1       -0.3180
     16  O         16.0650  -24.9820   -7.8990 O.2     1  UNL1       -0.2670
     17  H         18.2170  -24.2340   -8.7890 H       1  UNL1        0.1690
     18  C         20.6550  -22.1330  -10.6130 C.2     1  UNL1        0.0370
     19  C         20.4280  -21.1920  -11.6210 C.2     1  UNL1        0.0300
     20  C         21.3640  -21.0070  -12.6460 C.2     1  UNL1        0.0130
     21  C         22.5450  -21.7530  -12.6640 C.2     1  UNL1       -0.0130
     22  C         22.7710  -22.6880  -11.6570 C.2     1  UNL1        0.0460
     23  C         23.5330  -21.6320  -13.7820 C.3     1  UNL1        0.1650
     24  C         21.8370  -22.8840  -10.6380 C.2     1  UNL1        0.0590
     25  N         23.9540  -23.4300  -11.6790 N.am    1  UNL1       -0.3080
     26  C         24.9730  -23.2180  -12.5550 C.2     1  UNL1        0.3210
     27  H         24.1350  -24.1300  -10.9730 H       1  UNL1        0.1700
     28  O         26.0110  -23.8690  -12.5040 O.2     1  UNL1       -0.2470
     29  N         24.8070  -22.2290  -13.4690 N.am    1  UNL1       -0.3390
     30  H         25.5650  -22.1510  -14.1350 H       1  UNL1        0.1640
@<TRIPOS>BOND
     1    30    29    1
     2    23    29    1
     3    23    21    1
     4    29    26   am
     5    21    20    2
     6    21    22    1
     7    20    19    1
     8    26    28    2
     9    26    25   am
    10    25    22    1
    11    25    27    1
    12    22    24    2
    13    19    18    2
    14    24    18    1
    15    18     3    1
    16     4     3    1
    17     3     1   am
    18    17    15    1
    19     1     2    2
    20     1     5    1
    21    15     5   ar
    22    15    14   ar
    23    16    14    2
    24     5     6   ar
    25    14    10   ar
    26     6     7    1
    27     6     8   ar
    28    10     8   ar
    29    10    13    1
    30     8     9    1
    31    13    12    2
    32     9    11    2
    33    12    11    1
