@<TRIPOS>MOLECULE
14646_out_ligand_01.pdbqt
 34 37 0 0 0
SMALL
GASTEIGER

@<TRIPOS>ATOM
      1  C         21.3830  -23.2590  -10.2750 C.2     1  UNL1        0.0520
      2  C         21.3860  -24.1050   -9.1640 C.2     1  UNL1        0.0290
      3  C         20.2310  -24.2370   -8.4040 C.2     1  UNL1        0.0400
      4  C         19.0810  -23.5280   -8.7670 C.2     1  UNL1        0.0880
      5  C         19.0810  -22.6530   -9.8770 C.2     1  UNL1        0.0280
      6  C         17.9600  -21.8970  -10.2690 C.2     1  UNL1        0.0180
      7  C         18.0270  -21.0650  -11.3800 C.2     1  UNL1        0.0200
      8  C         19.2160  -21.0150  -12.0800 C.2     1  UNL1        0.1170
      9  N         20.3140  -21.7280  -11.7450 N.2     1  UNL1       -0.2580
     10  C         20.2500  -22.5230  -10.6520 C.2     1  UNL1        0.0910
     11  N         22.5980  -23.0680  -11.0330 N.pl3   1  UNL1       -0.1790
     12  H         22.3900  -22.4540  -11.8330 H       1  UNL1        0.1460
     13  S         23.8560  -22.2980  -10.1830 S.O2    1  UNL1        0.2520
     14  O         24.7480  -23.2900   -9.6220 O.2     1  UNL1       -0.2050
     15  O         23.2520  -21.2740   -9.3570 O.2     1  UNL1       -0.2050
     16  C         24.8620  -21.4110  -11.3540 C.2     1  UNL1        0.1160
     17  C         26.0130  -20.6620  -11.2030 C.2     1  UNL1        0.0330
     18  C         26.4790  -20.1300  -12.4390 C.2     1  UNL1        0.0190
     19  C         25.6730  -20.4890  -13.5060 C.2     1  UNL1        0.0060
     20  S         24.3540  -21.4580  -12.9840 S.3     1  UNL1       -0.0800
     21  C         25.8160  -20.1420  -14.9690 C.3     1  UNL1        0.1200
     22  C         27.1110  -19.3760  -15.2370 C.3     1  UNL1        0.0380
     23  N         25.7710  -21.3860  -15.7200 N.am    1  UNL1       -0.3530
     24  C         24.9430  -21.5400  -16.8060 C.2     1  UNL1        0.2140
     25  C         25.0600  -22.8820  -17.4760 C.3     1  UNL1        0.1170
     26  O         24.1550  -20.6830  -17.1900 O.2     1  UNL1       -0.2740
     27  H         26.4450  -22.1060  -15.5030 H       1  UNL1        0.1630
     28  O         17.9390  -23.6230   -7.9960 O.2     1  UNL1       -0.3100
     29  C         18.0020  -23.1070   -6.7200 C.2     1  UNL1        0.0760
     30  C         18.5700  -21.8660   -6.4230 C.2     1  UNL1        0.0370
     31  C         18.6230  -21.4270   -5.0990 C.2     1  UNL1        0.0030
     32  C         18.1250  -22.2320   -4.0740 C.2     1  UNL1        0.0000
     33  C         17.5770  -23.4810   -4.3700 C.2     1  UNL1        0.0030
     34  C         17.5210  -23.9210   -5.6930 C.2     1  UNL1        0.0370
@<TRIPOS>BOND
     1    25    24    1
     2    26    24    2
     3    24    23   am
     4    23    27    1
     5    23    21    1
     6    22    21    1
     7    21    19    1
     8    19    20    1
     9    19    18    2
    10    20    16    1
    11    18    17    1
    12     8     9    2
    13     8     7    1
    14    12    11    1
    15     9    10    1
    16     7     6    2
    17    16    17    2
    18    16    13    1
    19    11     1    1
    20    11    13    1
    21    10     1    2
    22    10     5    1
    23     1     2    1
    24     6     5    1
    25    13    14    2
    26    13    15    2
    27     5     4    2
    28     2     3    2
    29     4     3    1
    30     4    28    1
    31    28    29    1
    32    29    30    2
    33    29    34    1
    34    30    31    1
    35    34    33    2
    36    31    32    2
    37    33    32    1
