@<TRIPOS>MOLECULE
14656_out_ligand_01.pdbqt
 31 35 0 0 0
SMALL
GASTEIGER

@<TRIPOS>ATOM
      1  O         19.6110  -24.4360   -8.7920 O.2     1  UNL1       -0.2680
      2  C         18.6600  -23.6680   -8.8990 C.2     1  UNL1        0.2540
      3  N         17.5750  -23.6870   -8.0580 N.am    1  UNL1       -0.3530
      4  H         16.8560  -22.9740   -8.1810 H       1  UNL1        0.1630
      5  C         18.6390  -22.6570   -9.9860 C.2     1  UNL1        0.0630
      6  C         17.4260  -22.0440  -10.3500 C.2     1  UNL1        0.0200
      7  C         17.3760  -21.0850  -11.3660 C.2     1  UNL1        0.0030
      8  C         18.5280  -20.7050  -12.0620 C.2     1  UNL1        0.0320
      9  C         19.7210  -21.3270  -11.6890 C.ar    1  UNL1        0.0640
     10  N         21.0090  -21.1990  -12.1470 N.ar    1  UNL1       -0.3380
     11  C         19.8050  -22.2820  -10.6800 C.ar    1  UNL1        0.1010
     12  C         21.8160  -22.0490  -11.4320 C.ar    1  UNL1        0.1460
     13  H         21.3140  -20.5770  -12.8810 H       1  UNL1        0.1670
     14  C         23.2320  -22.1850  -11.6370 C.2     1  UNL1        0.0500
     15  N         21.1100  -22.7160  -10.5430 N.ar    1  UNL1       -0.2270
     16  C         24.0040  -21.6560  -12.6570 C.2     1  UNL1        0.0230
     17  S         24.1940  -23.1050  -10.5510 S.3     1  UNL1       -0.0980
     18  C         25.3820  -22.0100  -12.5410 C.2     1  UNL1        0.0090
     19  C         25.6220  -22.7930  -11.4350 C.2     1  UNL1        0.0500
     20  C         17.5040  -24.5260   -6.8890 C.3     1  UNL1        0.1620
     21  C         17.2390  -23.6960   -5.6570 C.2     1  UNL1       -0.0340
     22  C         16.2490  -24.1280   -4.7550 C.2     1  UNL1        0.0090
     23  C         15.9800  -23.4110   -3.5910 C.2     1  UNL1        0.0010
     24  C         16.6990  -22.2530   -3.3070 C.2     1  UNL1        0.0090
     25  C         17.6960  -21.8010   -4.1820 C.2     1  UNL1       -0.0240
     26  C         17.9900  -22.5400   -5.3500 C.2     1  UNL1       -0.0410
     27  C         18.4930  -20.5690   -3.8140 C.3     1  UNL1        0.3080
     28  C         19.0810  -22.0460   -6.2780 C.3     1  UNL1        0.0690
     29  C         19.9660  -20.9610   -5.6510 C.3     1  UNL1        0.2740
     30  N         19.1690  -19.9430   -4.9570 N.3     1  UNL1        0.0870
     31  H         18.4510  -19.6030   -5.5950 H       1  UNL1        0.3160
@<TRIPOS>BOND
     1    13    10    1
     2    16    18    1
     3    16    14    2
     4    18    19    2
     5    10     9   ar
     6    10    12   ar
     7     8     9    2
     8     8     7    1
     9     9    11   ar
    10    14    12    1
    11    14    17    1
    12    19    17    1
    13    12    15   ar
    14     7     6    2
    15    11    15   ar
    16    11     5    2
    17     6     5    1
    18     5     2    1
    19     2     1    2
    20     2     3   am
    21     4     3    1
    22     3    20    1
    23    20    21    1
    24    28    29    1
    25    28    26    1
    26    21    26    2
    27    21    22    1
    28    29    30    1
    29    31    30    1
    30    26    25    1
    31    30    27    1
    32    22    23    2
    33    25    27    1
    34    25    24    2
    35    23    24    1
