@<TRIPOS>MOLECULE
14658_out_ligand_01.pdbqt
 42 46 0 0 0
SMALL
GASTEIGER

@<TRIPOS>ATOM
      1  C         19.4890  -22.2070  -10.6590 C.2     1  UNL1        0.0330
      2  C         19.1120  -21.1590  -11.5130 C.2     1  UNL1        0.0170
      3  C         17.7780  -20.7510  -11.5740 C.2     1  UNL1        0.0030
      4  C         16.8130  -21.3940  -10.7990 C.2     1  UNL1        0.0250
      5  C         17.1890  -22.4550   -9.9690 C.2     1  UNL1        0.0750
      6  C         18.5220  -22.8620   -9.8880 C.2     1  UNL1        0.0410
      7  C         20.8990  -22.6820  -10.5760 C.2     1  UNL1        0.2560
      8  O         21.1300  -23.6550   -9.8700 O.2     1  UNL1       -0.2670
      9  N         21.8070  -21.9330  -11.2980 N.am    1  UNL1       -0.3230
     10  H         21.4660  -21.0860  -11.7350 H       1  UNL1        0.1690
     11  C         23.1910  -22.1690  -11.4450 C.2     1  UNL1        0.0350
     12  C         24.1540  -21.7500  -10.5280 C.2     1  UNL1        0.0320
     13  C         25.5150  -22.0290  -10.7180 C.2     1  UNL1        0.0330
     14  C         25.8810  -22.7480  -11.8580 C.2     1  UNL1        0.0430
     15  N         27.1210  -23.1610  -12.2850 N.pl3   1  UNL1       -0.3650
     16  C         24.9540  -23.1840  -12.8010 C.2     1  UNL1        0.0010
     17  C         27.0110  -23.8410  -13.4690 C.2     1  UNL1        0.0960
     18  H         27.9850  -22.9830  -11.7910 H       1  UNL1        0.1650
     19  C         25.6750  -23.8820  -13.8260 C.2     1  UNL1       -0.0230
     20  C         23.5900  -22.8860  -12.5850 C.2     1  UNL1        0.0430
     21  C         25.1020  -24.5190  -15.0580 C.3     1  UNL1        0.1240
     22  C         24.9550  -23.5670  -16.1910 C.2     1  UNL1        0.1690
     23  N         25.9800  -23.2920  -17.0620 N.2     1  UNL1       -0.1410
     24  N         25.5040  -22.4190  -17.9380 N.pl3   1  UNL1        0.0210
     25  N         24.2330  -22.2190  -17.5610 N.3     1  UNL1       -0.2000
     26  N         23.8170  -22.9220  -16.4950 N.pl3   1  UNL1       -0.1440
     27  H         23.6230  -21.5760  -18.0590 H       1  UNL1        0.2080
     28  S         15.9590  -23.2740   -8.9820 S.O2    1  UNL1        0.2450
     29  O         15.2600  -22.2630   -8.2170 O.2     1  UNL1       -0.2060
     30  O         15.2620  -24.2080   -9.8390 O.2     1  UNL1       -0.2060
     31  N         16.9610  -24.1220   -7.8910 N.pl3   1  UNL1       -0.1810
     32  H         17.9020  -24.1390   -8.2900 H       1  UNL1        0.1460
     33  C         16.9710  -23.5710   -6.5680 C.2     1  UNL1        0.0230
     34  C         16.0150  -23.9900   -5.6450 C.2     1  UNL1        0.0240
     35  C         15.9880  -23.4330   -4.3670 C.2     1  UNL1        0.0030
     36  C         16.9090  -22.4430   -4.0200 C.2     1  UNL1        0.0160
     37  C         17.8590  -21.9920   -4.9510 C.2     1  UNL1        0.0490
     38  C         17.8810  -22.5670   -6.2320 C.2     1  UNL1        0.0400
     39  C         18.8550  -20.9270   -4.5660 C.3     1  UNL1        0.4170
     40  F         19.9910  -20.9510   -5.3160 F       1  UNL1       -0.1660
     41  F         19.2600  -21.0460   -3.2720 F       1  UNL1       -0.1660
     42  F         18.3550  -19.6650   -4.6870 F       1  UNL1       -0.1660
@<TRIPOS>BOND
     1    27    25    1
     2    24    25    1
     3    24    23    1
     4    25    26    1
     5    23    22    2
     6    26    22    1
     7    22    21    1
     8    21    19    1
     9    19    17    2
    10    19    16    1
    11    17    15    1
    12    16    20    1
    13    16    14    2
    14    20    11    2
    15    15    14    1
    16    15    18    1
    17    14    13    1
    18    10     9    1
    19     3     2    1
    20     3     4    2
    21     2     1    2
    22    11     9    1
    23    11    12    1
    24     9     7   am
    25     4     5    1
    26    13    12    2
    27     1     7    1
    28     1     6    1
    29     7     8    2
    30     5     6    2
    31     5    28    1
    32    30    28    2
    33    28    29    2
    34    28    31    1
    35    32    31    1
    36    31    33    1
    37    33    38    2
    38    33    34    1
    39    38    37    1
    40    34    35    2
    41    40    39    1
    42    37    39    1
    43    37    36    2
    44    42    39    1
    45    39    41    1
    46    35    36    1
