@<TRIPOS>MOLECULE
14665_out_ligand_01.pdbqt
 39 42 0 0 0
SMALL
GASTEIGER

@<TRIPOS>ATOM
      1  C         23.6740  -23.0720  -10.6990 C.3     1  UNL1        0.1700
      2  C         22.3020  -22.5510  -11.0450 C.2     1  UNL1       -0.0380
      3  C         22.1210  -21.6420  -12.0930 C.2     1  UNL1        0.0090
      4  C         20.8440  -21.1800  -12.4030 C.2     1  UNL1        0.0030
      5  C         19.7360  -21.6230  -11.6770 C.2     1  UNL1        0.0290
      6  C         19.8910  -22.5380  -10.6360 C.2     1  UNL1        0.0360
      7  C         21.1800  -22.9920  -10.3240 C.2     1  UNL1        0.0380
      8  N         18.8260  -23.0310   -9.8530 N.am    1  UNL1       -0.3090
      9  C         18.4630  -22.6300   -8.5730 C.2     1  UNL1        0.3250
     10  N         17.4230  -23.4210   -8.1040 N.am    1  UNL1       -0.3090
     11  O         18.9820  -21.7110   -7.9540 O.2     1  UNL1       -0.2470
     12  H         17.2300  -24.2600   -8.6300 H       1  UNL1        0.1700
     13  H         18.1710  -23.6320  -10.3290 H       1  UNL1        0.1700
     14  C         16.6960  -23.2710   -6.9040 C.2     1  UNL1        0.0360
     15  C         17.1520  -23.9820   -5.7850 C.2     1  UNL1        0.0290
     16  C         16.4760  -23.9040   -4.5660 C.2     1  UNL1        0.0030
     17  C         15.3360  -23.1110   -4.4490 C.2     1  UNL1        0.0070
     18  C         14.8670  -22.3890   -5.5520 C.2     1  UNL1       -0.0600
     19  C         13.6350  -21.5410   -5.4520 C.3     1  UNL1        0.0480
     20  C         15.5500  -22.4810   -6.7770 C.2     1  UNL1        0.0360
     21  N         24.3150  -23.6590  -11.8670 N.3     1  UNL1       -0.3110
     22  H         23.7640  -23.8150  -12.7100 H       1  UNL1        0.1720
     23  S         25.9640  -23.5480  -12.0650 S.O2    1  UNL1        0.2600
     24  O         26.5690  -23.5510  -10.7520 O.2     1  UNL1       -0.2000
     25  O         26.3360  -24.5020  -13.0820 O.2     1  UNL1       -0.2000
     26  C         26.1680  -21.9440  -12.7550 C.2     1  UNL1        0.0980
     27  C         26.6170  -20.8990  -11.9630 C.2     1  UNL1        0.1440
     28  N         26.7850  -19.6340  -12.4280 N.2     1  UNL1       -0.2410
     29  C         26.5150  -19.4210  -13.7350 C.ar    1  UNL1        0.1470
     30  N         26.6860  -18.1310  -14.2120 N.ar    1  UNL1       -0.2920
     31  C         26.0780  -20.4200  -14.5930 C.ar    1  UNL1        0.0800
     32  C         26.4600  -17.7720  -15.5040 C.ar    1  UNL1        0.3280
     33  H         26.9980  -17.4220  -13.5620 H       1  UNL1        0.1720
     34  O         26.6110  -16.6170  -15.8910 O.2     1  UNL1       -0.2470
     35  N         26.0480  -18.7670  -16.3470 N.ar    1  UNL1       -0.2750
     36  C         25.8060  -20.0700  -15.9930 C.ar    1  UNL1        0.2630
     37  H         25.8620  -18.5020  -17.3030 H       1  UNL1        0.1730
     38  O         25.3730  -20.9020  -16.7800 O.2     1  UNL1       -0.2670
     39  C         25.9010  -21.7130  -14.1030 C.2     1  UNL1        0.0470
@<TRIPOS>BOND
     1    37    35    1
     2    38    36    2
     3    35    36   ar
     4    35    32   ar
     5    36    31   ar
     6    34    32    2
     7    32    30   ar
     8    31    39    1
     9    31    29   ar
    10    30    29   ar
    11    30    33    1
    12    39    26    2
    13    29    28    1
    14    25    23    2
    15    26    23    1
    16    26    27    1
    17    22    21    1
    18    28    27    2
    19     4     3    1
    20     4     5    2
    21     3     2    2
    22    23    21    1
    23    23    24    2
    24    21     1    1
    25     5     6    1
    26     2     1    1
    27     2     7    1
    28     6     7    2
    29     6     8    1
    30    13     8    1
    31     8     9   am
    32    12    10    1
    33     9    10   am
    34     9    11    2
    35    10    14    1
    36    14    20    2
    37    14    15    1
    38    20    18    1
    39    15    16    2
    40    18    19    1
    41    18    17    2
    42    16    17    1
