@<TRIPOS>MOLECULE
14661_out_ligand_01.pdbqt
 36 39 0 0 0
SMALL
GASTEIGER

@<TRIPOS>ATOM
      1  N         23.2970  -22.0440  -11.0770 N.3     1  UNL1       -0.3060
      2  H         23.0880  -21.0600  -11.2220 H       1  UNL1        0.1730
      3  C         22.2470  -22.9690  -10.6270 C.3     1  UNL1        0.1260
      4  C         20.8690  -22.3880  -10.8940 C.2     1  UNL1       -0.0320
      5  C         20.7450  -21.0930  -11.4250 C.2     1  UNL1        0.0100
      6  C         19.4870  -20.5160  -11.6310 C.2     1  UNL1        0.0100
      7  C         18.3250  -21.2280  -11.3230 C.2     1  UNL1       -0.0230
      8  C         16.9700  -20.6120  -11.5000 C.3     1  UNL1        0.0510
      9  C         18.4500  -22.5150  -10.8000 C.2     1  UNL1        0.1220
     10  C         19.6980  -23.0970  -10.5880 C.2     1  UNL1        0.0520
     11  F         17.3520  -23.2170  -10.4850 F       1  UNL1       -0.2060
     12  C         22.4970  -23.2670   -9.1330 C.3     1  UNL1        0.0350
     13  C         22.2390  -22.0860   -8.1860 C.3     1  UNL1        0.0410
     14  C         20.9300  -22.1470   -7.4380 C.2     1  UNL1       -0.0580
     15  C         20.0430  -23.2170   -7.6190 C.2     1  UNL1        0.0070
     16  C         18.8310  -23.2590   -6.9270 C.2     1  UNL1        0.0010
     17  C         18.4980  -22.2370   -6.0400 C.2     1  UNL1        0.0000
     18  C         19.3780  -21.1760   -5.8400 C.2     1  UNL1        0.0010
     19  C         20.5890  -21.1330   -6.5320 C.2     1  UNL1        0.0070
     20  S         24.7270  -22.5990  -11.7280 S.O2    1  UNL1        0.2600
     21  O         25.6790  -22.6630  -10.6440 O.2     1  UNL1       -0.2000
     22  O         24.4250  -23.7500  -12.5480 O.2     1  UNL1       -0.2000
     23  C         25.2300  -21.2880  -12.7820 C.2     1  UNL1        0.0980
     24  C         26.0120  -20.2590  -12.2830 C.2     1  UNL1        0.1440
     25  N         26.4970  -19.2530  -13.0570 N.2     1  UNL1       -0.2410
     26  C         26.1790  -19.2880  -14.3700 C.ar    1  UNL1        0.1470
     27  N         26.7050  -18.2850  -15.1700 N.ar    1  UNL1       -0.2920
     28  C         25.3790  -20.2710  -14.9360 C.ar    1  UNL1        0.0800
     29  C         26.4920  -18.2050  -16.5090 C.ar    1  UNL1        0.3280
     30  H         27.2850  -17.5860  -14.7280 H       1  UNL1        0.1720
     31  O         26.9880  -17.3170  -17.1940 O.2     1  UNL1       -0.2470
     32  N         25.6970  -19.1730  -17.0560 N.ar    1  UNL1       -0.2750
     33  C         25.1140  -20.2130  -16.3770 C.ar    1  UNL1        0.2630
     34  H         25.5320  -19.1170  -18.0510 H       1  UNL1        0.1730
     35  O         24.4160  -21.0540  -16.9290 O.2     1  UNL1       -0.2670
     36  C         24.8780  -21.2890  -14.1300 C.2     1  UNL1        0.0470
@<TRIPOS>BOND
     1    34    32    1
     2    31    29    2
     3    32    29   ar
     4    32    33   ar
     5    35    33    2
     6    29    27   ar
     7    33    28   ar
     8    27    30    1
     9    27    26   ar
    10    28    26   ar
    11    28    36    1
    12    26    25    1
    13    36    23    2
    14    25    24    2
    15    23    24    1
    16    23    20    1
    17    22    20    2
    18    20     1    1
    19    20    21    2
    20     6     5    1
    21     6     7    2
    22     8     7    1
    23     5     4    2
    24     7     9    1
    25     2     1    1
    26     1     3    1
    27     4     3    1
    28     4    10    1
    29     9    10    2
    30     9    11    1
    31     3    12    1
    32    12    13    1
    33    13    14    1
    34    15    14    2
    35    15    16    1
    36    14    19    1
    37    16    17    2
    38    19    18    2
    39    17    18    1
