@<TRIPOS>MOLECULE
14676_out_ligand_01.pdbqt
 43 47 0 0 0
SMALL
GASTEIGER

@<TRIPOS>ATOM
      1  C         22.1600  -22.4090  -10.6840 C.2     1  UNL1        0.0340
      2  C         22.9720  -22.9990   -9.7120 C.2     1  UNL1        0.0170
      3  C         24.3280  -23.1960   -9.9720 C.2     1  UNL1        0.0030
      4  C         24.8730  -22.8200  -11.2050 C.2     1  UNL1        0.0290
      5  C         24.0700  -22.2510  -12.1930 C.2     1  UNL1        0.0350
      6  C         22.7110  -22.0480  -11.9240 C.2     1  UNL1        0.0460
      7  C         20.7000  -22.1840  -10.4740 C.2     1  UNL1        0.2560
      8  N         20.0710  -23.1050   -9.6540 N.am    1  UNL1       -0.3230
      9  H         20.6550  -23.7830   -9.1860 H       1  UNL1        0.1690
     10  O         20.1890  -21.2060  -11.0070 O.2     1  UNL1       -0.2670
     11  C         18.6990  -23.1600   -9.3250 C.2     1  UNL1        0.0350
     12  C         17.6710  -22.8370  -10.2110 C.2     1  UNL1        0.0290
     13  C         16.3350  -22.9220   -9.8090 C.2     1  UNL1        0.0030
     14  C         16.0120  -23.3350   -8.5180 C.2     1  UNL1        0.0090
     15  C         17.0260  -23.6720   -7.6150 C.2     1  UNL1       -0.0280
     16  C         18.3670  -23.5780   -8.0300 C.2     1  UNL1        0.0380
     17  C         16.6870  -24.1410   -6.2150 C.3     1  UNL1        0.3120
     18  N         17.5790  -23.5580   -5.1950 N.3     1  UNL1        0.1060
     19  C         17.5250  -24.2960   -3.9190 C.3     1  UNL1        0.2740
     20  C         16.3130  -23.7650   -3.1700 C.3     1  UNL1        0.0330
     21  C         16.0720  -22.3670   -3.7270 C.3     1  UNL1        0.0470
     22  C         17.1150  -22.1840   -4.8270 C.3     1  UNL1        0.3140
     23  C         18.3270  -21.3500   -4.3540 C.2     1  UNL1        0.2490
     24  N         19.1480  -20.9360   -5.3690 N.am    1  UNL1       -0.3680
     25  H         20.0280  -20.5270   -5.0850 H       1  UNL1        0.1590
     26  H         19.1420  -21.5340   -6.1900 H       1  UNL1        0.1590
     27  O         18.5390  -21.0140   -3.1950 O.2     1  UNL1       -0.2710
     28  N         24.5360  -21.8630  -13.4650 N.am    1  UNL1       -0.3230
     29  C         25.6210  -21.0580  -13.7520 C.2     1  UNL1        0.2570
     30  O         26.4000  -20.5420  -12.9620 O.2     1  UNL1       -0.2670
     31  H         24.0370  -22.2500  -14.2580 H       1  UNL1        0.1690
     32  C         25.8160  -20.8900  -15.2180 C.2     1  UNL1        0.0500
     33  C         25.6830  -22.0140  -15.9380 C.2     1  UNL1        0.0920
     34  C         25.7730  -21.9870  -17.4120 C.2     1  UNL1        0.2460
     35  O         25.6470  -23.0150  -18.0700 O.2     1  UNL1       -0.2680
     36  N         25.9800  -20.7700  -17.9970 N.am    1  UNL1       -0.3230
     37  C         26.1530  -19.5800  -17.2780 C.2     1  UNL1        0.0460
     38  H         26.0390  -20.7710  -19.0060 H       1  UNL1        0.1690
     39  C         26.3990  -18.3930  -17.9690 C.2     1  UNL1        0.0300
     40  C         26.0910  -19.6030  -15.8760 C.2     1  UNL1        0.0060
     41  C         26.6040  -17.2120  -17.2570 C.2     1  UNL1        0.0020
     42  C         26.5680  -17.2220  -15.8630 C.2     1  UNL1        0.0010
     43  C         26.3160  -18.4110  -15.1730 C.2     1  UNL1        0.0150
@<TRIPOS>BOND
     1    38    36    1
     2    35    34    2
     3    36    34   am
     4    36    37    1
     5    39    37    2
     6    39    41    1
     7    34    33    1
     8    37    40    1
     9    41    42    2
    10    33    32    2
    11    40    32    1
    12    40    43    2
    13    42    43    1
    14    32    29    1
    15    31    28    1
    16    29    28   am
    17    29    30    2
    18    28     5    1
    19     5     6    1
    20     5     4    2
    21     6     1    2
    22     4     3    1
    23    10     7    2
    24     1     7    1
    25     1     2    1
    26     7     8   am
    27    12    13    1
    28    12    11    2
    29     3     2    2
    30    13    14    2
    31     8    11    1
    32     8     9    1
    33    11    16    1
    34    14    15    1
    35    16    15    2
    36    15    17    1
    37    17    18    1
    38    26    24    1
    39    24    25    1
    40    24    23   am
    41    18    22    1
    42    18    19    1
    43    22    23    1
    44    22    21    1
    45    23    27    2
    46    19    20    1
    47    21    20    1
