@<TRIPOS>MOLECULE
1467_out_ligand_01.pdbqt
 39 43 0 0 0
SMALL
GASTEIGER

@<TRIPOS>ATOM
      1  N         23.2450  -21.7600  -12.9820 N.pl3   1  UNL1       -0.3050
      2  C         21.8790  -21.5390  -12.9210 C.2     1  UNL1        0.1120
      3  C         21.3820  -22.0180  -11.7270 C.2     1  UNL1        0.0070
      4  C         22.4740  -22.5660  -11.0010 C.2     1  UNL1        0.0630
      5  C         22.6470  -23.1830   -9.7410 C.2     1  UNL1        0.1190
      6  N         23.8850  -23.6130   -9.4070 N.2     1  UNL1       -0.2290
      7  C         24.8910  -23.4290  -10.2740 C.2     1  UNL1        0.2370
      8  N         24.8450  -22.8360  -11.4700 N.2     1  UNL1       -0.2230
      9  C         23.6090  -22.4060  -11.7970 C.2     1  UNL1        0.1500
     10  N         21.5910  -23.3630   -8.8380 N.pl3   1  UNL1       -0.2760
     11  H         20.7010  -23.3710   -9.3310 H       1  UNL1        0.1290
     12  C         21.6180  -22.4610   -7.6900 C.3     1  UNL1        0.0980
     13  C         20.3610  -21.5770   -7.6580 C.3     1  UNL1        0.0530
     14  C         19.2660  -22.1100   -6.7600 C.2     1  UNL1       -0.0570
     15  C         18.7760  -21.3410   -5.6940 C.2     1  UNL1        0.0090
     16  C         17.7330  -21.8150   -4.8970 C.2     1  UNL1        0.0250
     17  C         17.1880  -23.0740   -5.1590 C.2     1  UNL1        0.0740
     18  C         17.6710  -23.8570   -6.2090 C.2     1  UNL1        0.0250
     19  C         18.7070  -23.3730   -7.0060 C.2     1  UNL1        0.0090
     20  S         15.8380  -23.6790   -4.1850 S.O2    1  UNL1        0.2390
     21  O         14.7760  -24.0930   -5.0740 O.2     1  UNL1       -0.2060
     22  O         16.3650  -24.5410   -3.1540 O.2     1  UNL1       -0.2060
     23  N         15.2880  -22.2640   -3.4540 N.3     1  UNL1       -0.2250
     24  H         15.9530  -21.8730   -2.7890 H       1  UNL1        0.1360
     25  H         15.0400  -21.5940   -4.1840 H       1  UNL1        0.1360
     26  C         19.9680  -21.9450  -11.4090 C.2     1  UNL1       -0.0240
     27  C         19.2380  -20.7920  -11.7250 C.2     1  UNL1        0.0120
     28  C         17.8850  -20.7060  -11.3910 C.2     1  UNL1        0.0010
     29  C         17.2570  -21.7690  -10.7460 C.2     1  UNL1        0.0000
     30  C         17.9760  -22.9240  -10.4390 C.2     1  UNL1        0.0010
     31  C         19.3300  -23.0130  -10.7680 C.2     1  UNL1        0.0120
     32  C         24.0880  -21.3740  -14.0810 C.2     1  UNL1        0.0420
     33  C         24.1700  -22.1460  -15.2460 C.2     1  UNL1        0.0300
     34  C         25.0020  -21.7630  -16.3070 C.2     1  UNL1        0.0110
     35  C         25.7740  -20.5990  -16.2350 C.2     1  UNL1       -0.0400
     36  C         26.6540  -20.2180  -17.3920 C.3     1  UNL1        0.0500
     37  C         25.6940  -19.8250  -15.0730 C.2     1  UNL1        0.0420
     38  C         24.8640  -20.2060  -14.0090 C.2     1  UNL1        0.0540
     39 CL         26.6070  -18.3650  -14.8990 Cl      1  UNL1       -0.0840
@<TRIPOS>BOND
     1    36    35    1
     2    34    35    2
     3    34    33    1
     4    35    37    1
     5    33    32    2
     6    37    39    1
     7    37    38    2
     8    32    38    1
     9    32     1    1
    10     1     2    1
    11     1     9    1
    12     2     3    2
    13     9     8    1
    14     9     4    2
    15     3    26    1
    16     3     4    1
    17    27    26    2
    18    27    28    1
    19     8     7    2
    20    26    31    1
    21    28    29    2
    22     4     5    1
    23    31    30    2
    24    29    30    1
    25     7     6    1
    26     5     6    2
    27     5    10    1
    28    11    10    1
    29    10    12    1
    30    12    13    1
    31    13    14    1
    32    19    14    2
    33    19    18    1
    34    14    15    1
    35    18    17    2
    36    15    16    2
    37    17    16    1
    38    17    20    1
    39    21    20    2
    40    20    23    1
    41    20    22    2
    42    25    23    1
    43    23    24    1
