@<TRIPOS>MOLECULE
14689_out_ligand_01.pdbqt
 37 41 0 0 0
SMALL
GASTEIGER

@<TRIPOS>ATOM
      1  C         18.7340  -22.4410   -9.0400 C.2     1  UNL1        0.0400
      2  C         17.5220  -22.1580   -9.6860 C.2     1  UNL1        0.0170
      3  C         17.5190  -21.7020  -11.0010 C.2     1  UNL1        0.0010
      4  C         18.7240  -21.5180  -11.6710 C.2     1  UNL1        0.0010
      5  C         19.9360  -21.7770  -11.0250 C.2     1  UNL1        0.0100
      6  C         19.9660  -22.2300   -9.6930 C.2     1  UNL1       -0.0230
      7  C         21.3140  -22.4600   -9.0440 C.3     1  UNL1        0.1850
      8  N         22.4500  -22.2170   -9.9160 N.pl3   1  UNL1       -0.2790
      9  C         22.8180  -22.8740  -11.0550 C.2     1  UNL1        0.1420
     10  C         23.9770  -22.2400  -11.4450 C.2     1  UNL1        0.1010
     11  N         24.2820  -21.2650  -10.5250 N.2     1  UNL1       -0.1580
     12  N         23.3550  -21.2810   -9.5780 N.2     1  UNL1        0.0050
     13  C         24.7840  -22.5200  -12.6200 C.2     1  UNL1       -0.0040
     14  C         25.9830  -23.2310  -12.4820 C.2     1  UNL1        0.0150
     15  C         26.7750  -23.5240  -13.5950 C.2     1  UNL1        0.0140
     16  C         26.3760  -23.1170  -14.8760 C.2     1  UNL1       -0.0080
     17  C         27.1210  -23.3880  -16.0260 C.2     1  UNL1        0.1280
     18  C         25.1730  -22.4040  -15.0360 C.2     1  UNL1       -0.0220
     19  N         26.7640  -23.0180  -17.2770 N.2     1  UNL1       -0.2720
     20  C         25.6060  -22.3350  -17.3940 C.2     1  UNL1        0.1170
     21  C         24.7890  -22.0080  -16.3240 C.2     1  UNL1        0.0310
     22  C         24.3890  -22.1110  -13.9020 C.2     1  UNL1        0.0260
     23  C         18.6330  -22.9160   -7.6410 C.2     1  UNL1        0.2520
     24  O         18.6410  -24.1160   -7.3980 O.2     1  UNL1       -0.2680
     25  N         18.5740  -21.9350   -6.6850 N.am    1  UNL1       -0.3460
     26  H         18.6740  -20.9660   -6.9530 H       1  UNL1        0.1630
     27  CA        18.2990  -22.2240   -5.2770 C.3     1  UNL1        0.1410
     28  C         18.6870  -21.0520   -4.3380 C.3     1  UNL1        0.1940
     29  O         19.3400  -19.9890   -5.0280 O.3     1  UNL1       -0.3990
     30  H         18.6380  -19.4130   -5.4080 H       1  UNL1        0.2090
     31  C         16.8360  -22.6130   -5.1490 C.2     1  UNL1       -0.0300
     32  C         16.4870  -23.7890   -4.4640 C.2     1  UNL1        0.0090
     33  C         15.1510  -24.1880   -4.3600 C.2     1  UNL1        0.0040
     34  C         14.1470  -23.4210   -4.9470 C.2     1  UNL1        0.0420
     35  C         14.4880  -22.2650   -5.6350 C.2     1  UNL1        0.1170
     36  F         13.5240  -21.5330   -6.2090 F       1  UNL1       -0.2060
     37  C         15.8130  -21.8560   -5.7460 C.2     1  UNL1        0.0510
@<TRIPOS>BOND
     1    20    19    2
     2    20    21    1
     3    19    17    1
     4    21    18    2
     5    17    16    2
     6    18    16    1
     7    18    22    1
     8    16    15    1
     9    22    13    2
    10    15    14    2
    11    13    14    1
    12    13    10    1
    13     4     5    2
    14     4     3    1
    15    10     9    2
    16    10    11    1
    17     9     8    1
    18     5     6    1
    19     3     2    2
    20    11    12    2
    21     8    12    1
    22     8     7    1
    23     6     7    1
    24     6     1    2
    25     2     1    1
    26     1    23    1
    27    23    24    2
    28    23    25   am
    29    26    25    1
    30    25    27    1
    31    36    35    1
    32    37    35    1
    33    37    31    2
    34    35    34    2
    35    30    29    1
    36    27    31    1
    37    27    28    1
    38    31    32    1
    39    29    28    1
    40    34    33    1
    41    32    33    2
