@<TRIPOS>MOLECULE
14686_out_ligand_01.pdbqt
 29 32 0 0 0
SMALL
GASTEIGER

@<TRIPOS>ATOM
      1  N         23.1450  -22.2050  -10.5370 N.am    1  UNL1       -0.3230
      2  C         23.1110  -23.1430   -9.5210 C.2     1  UNL1        0.2560
      3  O         24.0490  -23.8160   -9.1100 O.2     1  UNL1       -0.2670
      4  H         22.3180  -21.6370  -10.6670 H       1  UNL1        0.1690
      5  C         24.2410  -21.8780  -11.3640 C.2     1  UNL1        0.0350
      6  C         25.2910  -21.1620  -10.7830 C.2     1  UNL1        0.0290
      7  C         26.4040  -20.8000  -11.5420 C.2     1  UNL1        0.0030
      8  C         26.4790  -21.1480  -12.8910 C.2     1  UNL1        0.0100
      9  C         25.4390  -21.8610  -13.5070 C.2     1  UNL1       -0.0260
     10  C         24.3230  -22.2170  -12.7180 C.2     1  UNL1        0.0390
     11  C         25.4820  -22.2650  -14.9760 C.3     1  UNL1        0.0810
     12  C         26.4210  -21.3300  -15.7620 C.3     1  UNL1        0.0460
     13  C         25.8840  -23.7310  -15.1710 C.3     1  UNL1        0.2160
     14  O         25.1510  -24.1650  -16.3290 O.3     1  UNL1       -0.3010
     15  C         24.1150  -23.2980  -16.5120 C.2     1  UNL1        0.3610
     16  O         23.2640  -23.3970  -17.3770 O.2     1  UNL1       -0.2380
     17  N         24.1920  -22.2750  -15.6090 N.am    1  UNL1       -0.3220
     18  H         23.6470  -21.4470  -15.8040 H       1  UNL1        0.1660
     19  C         21.7880  -23.2960   -8.8530 C.2     1  UNL1        0.0320
     20  C         20.9940  -24.4350   -9.0360 C.2     1  UNL1        0.0180
     21  C         19.7590  -24.5400   -8.3870 C.2     1  UNL1        0.0160
     22  C         19.3030  -23.5160   -7.5390 C.2     1  UNL1        0.0140
     23  C         20.1150  -22.3890   -7.3480 C.2     1  UNL1        0.0160
     24  C         21.3510  -22.2810   -7.9950 C.2     1  UNL1        0.0180
     25  C         18.0150  -23.6200   -6.8590 C.2     1  UNL1        0.1880
     26  N         17.0970  -22.5890   -6.8590 N.2     1  UNL1       -0.2120
     27  C         16.1160  -23.0920   -6.1540 C.3     1  UNL1        0.2880
     28  O         16.3420  -24.3540   -5.7180 O.3     1  UNL1       -0.2050
     29  N         17.6050  -24.7110   -6.1870 N.4     1  UNL1       -0.1060
@<TRIPOS>BOND
     1    16    15    2
     2    15    14    1
     3    15    17   am
     4    14    13    1
     5    18    17    1
     6    12    11    1
     7    17    11    1
     8    13    11    1
     9    11     9    1
    10     9     8    2
    11     9    10    1
    12     8     7    1
    13    10     5    2
    14     7     6    2
    15     5     6    1
    16     5     1    1
    17     4     1    1
    18     1     2   am
    19     2     3    2
    20     2    19    1
    21    20    19    2
    22    20    21    1
    23    19    24    1
    24    21    22    2
    25    24    23    2
    26    22    23    1
    27    22    25    1
    28    25    26    2
    29    25    29    1
    30    26    27    1
    31    29    28    1
    32    27    28    1
