@<TRIPOS>MOLECULE
14684_out_ligand_01.pdbqt
 39 43 0 0 0
SMALL
GASTEIGER

@<TRIPOS>ATOM
      1  C         20.2160  -22.5310   -9.9950 C.2     1  UNL1        0.0160
      2  C         19.0280  -21.9190  -10.4190 C.2     1  UNL1        0.0190
      3  C         18.9800  -21.1950  -11.6160 C.2     1  UNL1        0.0010
      4  C         20.1220  -21.0690  -12.4050 C.2     1  UNL1        0.0010
      5  C         21.3150  -21.6570  -11.9950 C.2     1  UNL1        0.0180
      6  C         21.3620  -22.3690  -10.7880 C.2     1  UNL1        0.0490
      7  C         22.6470  -22.9880  -10.4260 C.2     1  UNL1        0.2550
      8  O         22.6500  -23.7820   -9.4890 O.2     1  UNL1       -0.2670
      9  N         23.7560  -22.6270  -11.1550 N.am    1  UNL1       -0.3470
     10  C         25.0660  -23.1860  -10.8740 C.3     1  UNL1        0.1270
     11  C         23.8050  -21.6920  -12.2730 C.3     1  UNL1        0.1370
     12  C         26.0310  -22.2830  -11.6310 C.3     1  UNL1        0.0320
     13  C         25.2220  -21.8110  -12.8530 C.3     1  UNL1        0.0580
     14  C         25.2670  -22.7440  -14.0550 C.2     1  UNL1        0.0540
     15  N         25.4350  -24.0600  -13.7920 N.2     1  UNL1       -0.2450
     16  C         25.4720  -24.8870  -14.8430 C.2     1  UNL1        0.2340
     17  N         25.3610  -24.5340  -16.1260 N.2     1  UNL1       -0.2410
     18  C         25.1940  -23.2320  -16.3810 C.2     1  UNL1        0.0700
     19  C         25.0740  -22.8330  -17.7050 C.2     1  UNL1        0.0320
     20  C         25.1370  -22.2550  -15.3710 C.2     1  UNL1        0.0180
     21  C         24.8980  -21.4930  -18.0630 C.2     1  UNL1        0.0020
     22  C         24.8380  -20.5210  -17.0770 C.2     1  UNL1        0.0010
     23  C         24.9580  -20.8940  -15.7390 C.2     1  UNL1        0.0160
     24  S         20.1510  -23.4350   -8.4490 S.3     1  UNL1       -0.1200
     25  C         20.6310  -22.1530   -7.2340 C.3     1  UNL1        0.1820
     26  C         19.4640  -21.7340   -6.3550 C.2     1  UNL1        0.2310
     27  O         19.4990  -20.6730   -5.7340 O.2     1  UNL1       -0.2720
     28  N         18.4150  -22.6380   -6.3650 N.am    1  UNL1       -0.3240
     29  H         18.4780  -23.4310   -7.0090 H       1  UNL1        0.1690
     30  C         17.1710  -22.5250   -5.7000 C.2     1  UNL1        0.0680
     31  C         17.0440  -22.5300   -4.3090 C.2     1  UNL1        0.0320
     32  C         15.7860  -22.4240   -3.7120 C.2     1  UNL1        0.0020
     33  C         14.6480  -22.3090   -4.5020 C.2     1  UNL1        0.0030
     34  C         14.7580  -22.3010   -5.8930 C.2     1  UNL1        0.0390
     35  C         16.0140  -22.4110   -6.5000 C.2     1  UNL1        0.1010
     36  O         16.2360  -22.3870   -7.8530 O.2     1  UNL1       -0.2880
     37  C         15.7890  -23.4940   -8.6120 C.3     1  UNL1        0.5050
     38  F         16.4820  -23.5510   -9.7790 F       1  UNL1       -0.1840
     39  F         16.1100  -24.6210   -7.9260 F       1  UNL1       -0.1840
@<TRIPOS>BOND
     1    21    19    2
     2    21    22    1
     3    19    18    1
     4    22    23    2
     5    18    17    2
     6    18    20    1
     7    17    16    1
     8    23    20    1
     9    20    14    2
    10    16    15    2
    11    14    15    1
    12    14    13    1
    13    13    11    1
    14    13    12    1
    15     4     5    2
    16     4     3    1
    17    11     9    1
    18     5     6    1
    19    12    10    1
    20     3     2    2
    21     9    10    1
    22     9     7   am
    23     6     7    1
    24     6     1    2
    25     7     8    2
    26     2     1    1
    27     1    24    1
    28    38    37    1
    29    37    39    1
    30    37    36    1
    31    24    25    1
    32    36    35    1
    33    25    26    1
    34    29    28    1
    35    35    34    1
    36    35    30    2
    37    28    26   am
    38    28    30    1
    39    26    27    2
    40    34    33    2
    41    30    31    1
    42    33    32    1
    43    31    32    2
