@<TRIPOS>MOLECULE
14688_out_ligand_01.pdbqt
 40 44 0 0 0
SMALL
GASTEIGER

@<TRIPOS>ATOM
      1  C         19.0630  -21.5840  -11.3700 C.2     1  UNL1        0.2720
      2  O         18.9310  -20.6420  -12.1400 O.2     1  UNL1       -0.2660
      3  N         20.2340  -22.2860  -11.1480 N.am    1  UNL1       -0.3220
      4  H         20.2460  -22.9010  -10.3480 H       1  UNL1        0.1690
      5  C         17.9510  -22.0500  -10.5590 C.2     1  UNL1        0.1020
      6  N         16.6540  -21.5790  -10.6170 N.pl3   1  UNL1       -0.3600
      7  C         15.8760  -22.2140   -9.6860 C.2     1  UNL1        0.1130
      8  H         16.3360  -20.8280  -11.2170 H       1  UNL1        0.1650
      9  C         16.6790  -23.1050   -9.0030 C.2     1  UNL1        0.0920
     10  C         17.9850  -22.9930   -9.5410 C.2     1  UNL1        0.0610
     11  S         16.2210  -24.1280   -7.6820 S.O2    1  UNL1        0.2470
     12  O         17.4830  -24.6540   -7.2050 O.2     1  UNL1       -0.2050
     13  O         15.1820  -24.9840   -8.2120 O.2     1  UNL1       -0.2050
     14  N         15.6070  -23.1390   -6.4520 N.pl3   1  UNL1       -0.1810
     15  H         14.8100  -23.5960   -6.0100 H       1  UNL1        0.1460
     16  C         16.5540  -22.5630   -5.5540 C.2     1  UNL1        0.0230
     17  C         16.3400  -22.6620   -4.1790 C.2     1  UNL1        0.0240
     18  C         17.2770  -22.1320   -3.2920 C.2     1  UNL1        0.0020
     19  C         18.4270  -21.5090   -3.7780 C.2     1  UNL1        0.0070
     20  C         18.6560  -21.4150   -5.1570 C.2     1  UNL1       -0.0570
     21  C         17.7070  -21.9450   -6.0420 C.2     1  UNL1        0.0310
     22  C         19.8900  -20.7280   -5.6850 C.3     1  UNL1        0.0340
     23  C         20.5400  -21.5200   -6.8100 C.3     1  UNL1        0.0100
     24  C         21.4690  -22.1240  -11.8090 C.2     1  UNL1        0.0350
     25  C         22.6580  -22.7320  -11.4080 C.2     1  UNL1        0.0320
     26  C         23.8420  -22.5150  -12.1240 C.2     1  UNL1        0.0390
     27  C         23.8510  -21.6950  -13.2520 C.2     1  UNL1        0.0780
     28  C         22.6700  -21.0630  -13.6450 C.2     1  UNL1        0.0390
     29  C         21.4880  -21.2790  -12.9270 C.2     1  UNL1        0.0320
     30  O         25.0720  -21.5610  -13.8760 O.2     1  UNL1       -0.2900
     31  C         25.0560  -21.3170  -15.2340 C.2     1  UNL1        0.2020
     32  N         24.4730  -22.2650  -16.0070 N.2     1  UNL1       -0.1240
     33  N         24.3980  -22.0790  -17.3490 N.2     1  UNL1       -0.1590
     34  C         24.8850  -20.9380  -17.8820 C.2     1  UNL1        0.1530
     35  C         25.4720  -19.9230  -17.1280 C.2     1  UNL1       -0.0020
     36  C         25.9650  -18.7400  -17.7100 C.2     1  UNL1        0.0140
     37  C         25.5600  -20.1090  -15.7380 C.2     1  UNL1        0.0300
     38  C         26.5400  -17.7450  -16.9180 C.2     1  UNL1        0.0010
     39  C         26.6270  -17.9180  -15.5390 C.2     1  UNL1        0.0010
     40  C         26.1420  -19.0880  -14.9520 C.2     1  UNL1        0.0170
@<TRIPOS>BOND
     1    34    33    2
     2    34    35    1
     3    36    35    2
     4    36    38    1
     5    33    32    1
     6    35    37    1
     7    38    39    2
     8    32    31    2
     9    37    31    1
    10    37    40    2
    11    39    40    1
    12    31    30    1
    13    30    27    1
    14    28    27    2
    15    28    29    1
    16    27    26    1
    17    29    24    2
    18     2     1    2
    19    26    25    2
    20    24    25    1
    21    24     3    1
    22     1     3   am
    23     1     5    1
    24     8     6    1
    25     3     4    1
    26     6     5    1
    27     6     7    1
    28     5    10    2
    29     7     9    2
    30    10     9    1
    31     9    11    1
    32    13    11    2
    33    11    12    2
    34    11    14    1
    35    23    22    1
    36    14    15    1
    37    14    16    1
    38    21    16    2
    39    21    20    1
    40    22    20    1
    41    16    17    1
    42    20    19    2
    43    17    18    2
    44    19    18    1
