@<TRIPOS>MOLECULE
14692_out_ligand_01.pdbqt
 35 37 0 0 0
SMALL
GASTEIGER

@<TRIPOS>ATOM
      1  C         17.1760  -20.9420  -11.0320 C.3     1  UNL1        0.0500
      2  C         18.6070  -21.4060  -11.1040 C.2     1  UNL1       -0.0350
      3  C         19.4440  -20.8340  -12.0780 C.2     1  UNL1        0.0100
      4  C         20.7770  -21.2220  -12.1930 C.2     1  UNL1        0.0170
      5  C         21.2920  -22.1900  -11.3290 C.2     1  UNL1        0.0340
      6  C         20.4730  -22.7600  -10.3470 C.2     1  UNL1        0.0470
      7  C         19.1260  -22.3920  -10.2340 C.2     1  UNL1        0.0430
      8  C         22.7160  -22.6120  -11.4020 C.2     1  UNL1        0.2520
      9  O         23.2060  -23.3100  -10.5220 O.2     1  UNL1       -0.2680
     10  N         23.4160  -22.1930  -12.5080 N.am    1  UNL1       -0.3460
     11  H         22.9640  -21.6670  -13.2460 H       1  UNL1        0.1630
     12  C         24.8200  -22.5050  -12.6850 C.3     1  UNL1        0.1520
     13  C         25.6770  -21.2450  -12.5990 C.3     1  UNL1        0.0400
     14  C         24.9650  -23.1610  -14.0170 C.ar    1  UNL1        0.1500
     15  N         25.5600  -24.3050  -14.2920 N.ar    1  UNL1       -0.1330
     16  N         25.4730  -24.5150  -15.6480 N.ar    1  UNL1       -0.1320
     17  C         24.8420  -23.4890  -16.1780 C.ar    1  UNL1        0.1560
     18  N         24.5040  -22.6130  -15.1810 N.ar    1  UNL1       -0.3260
     19  H         24.0040  -21.7420  -15.3000 H       1  UNL1        0.1680
     20  C         24.5070  -23.2630  -17.6080 C.3     1  UNL1        0.1850
     21  C         24.8340  -21.8480  -18.0550 C.3     1  UNL1        0.0480
     22  O         23.1030  -23.4790  -17.7490 O.3     1  UNL1       -0.3880
     23  H         22.8810  -23.2060  -18.6580 H       1  UNL1        0.2100
     24  N         18.2790  -22.9510   -9.2480 N.am    1  UNL1       -0.3080
     25  C         18.2170  -22.6090   -7.9030 C.2     1  UNL1        0.3250
     26  O         19.0050  -21.8690   -7.3330 O.2     1  UNL1       -0.2470
     27  N         17.1370  -23.2470   -7.3070 N.am    1  UNL1       -0.3090
     28  H         16.4270  -23.5800   -7.9410 H       1  UNL1        0.1700
     29  H         17.8400  -23.8300   -9.4740 H       1  UNL1        0.1700
     30  C         16.8020  -23.2660   -5.9380 C.2     1  UNL1        0.0360
     31  C         17.6150  -23.8120   -4.9440 C.2     1  UNL1        0.0290
     32  C         17.2050  -23.8030   -3.6070 C.2     1  UNL1        0.0020
     33  C         15.9750  -23.2540   -3.2540 C.2     1  UNL1        0.0000
     34  C         15.1520  -22.7130   -4.2380 C.2     1  UNL1        0.0020
     35  C         15.5630  -22.7230   -5.5740 C.2     1  UNL1        0.0290
@<TRIPOS>BOND
     1    23    22    1
     2    21    20    1
     3    22    20    1
     4    20    17    1
     5    17    16   ar
     6    17    18   ar
     7    16    15   ar
     8    19    18    1
     9    18    14   ar
    10    15    14   ar
    11    14    12    1
    12    11    10    1
    13    12    13    1
    14    12    10    1
    15    10     8   am
    16     4     3    1
    17     4     5    2
    18     3     2    2
    19     8     5    1
    20     8     9    2
    21     5     6    1
    22     2     1    1
    23     2     7    1
    24     6     7    2
    25     7    24    1
    26    29    24    1
    27    24    25   am
    28    28    27    1
    29    25    26    2
    30    25    27   am
    31    27    30    1
    32    30    35    2
    33    30    31    1
    34    35    34    1
    35    31    32    2
    36    34    33    2
    37    32    33    1
