@<TRIPOS>MOLECULE
14695_out_ligand_01.pdbqt
 46 51 0 0 0
SMALL
GASTEIGER

@<TRIPOS>ATOM
      1  N         22.7790  -22.7480   -8.6050 N.am    1  UNL1       -0.3230
      2  C         21.6470  -23.5360   -8.5320 C.2     1  UNL1        0.2560
      3  O         21.4890  -24.6490   -9.0190 O.2     1  UNL1       -0.2670
      4  H         22.7060  -21.7980   -8.2630 H       1  UNL1        0.1690
      5  C         24.0250  -23.0850   -9.1780 C.2     1  UNL1        0.0370
      6  C         24.7150  -24.2650   -8.9040 C.2     1  UNL1        0.0290
      7  C         25.9470  -24.5140   -9.5090 C.2     1  UNL1        0.0040
      8  C         26.5000  -23.5820  -10.3880 C.2     1  UNL1        0.0290
      9  C         25.8280  -22.3880  -10.6710 C.2     1  UNL1        0.0380
     10  C         24.5920  -22.1520  -10.0630 C.2     1  UNL1        0.0590
     11  N         26.4620  -21.4900  -11.5590 N.am    1  UNL1       -0.3090
     12  C         25.9140  -20.8620  -12.6730 C.2     1  UNL1        0.3250
     13  O         24.7660  -21.0260  -13.0670 O.2     1  UNL1       -0.2470
     14  N         26.8530  -20.0240  -13.2610 N.am    1  UNL1       -0.3080
     15  H         27.7250  -19.9490  -12.7700 H       1  UNL1        0.1700
     16  H         27.4290  -21.2940  -11.3600 H       1  UNL1        0.1700
     17  C         26.7100  -19.2000  -14.4060 C.2     1  UNL1        0.0430
     18  C         26.8930  -17.8120  -14.3490 C.2     1  UNL1        0.0300
     19  C         26.7990  -17.0160  -15.4940 C.2     1  UNL1        0.0030
     20  C         26.5250  -17.5950  -16.7260 C.2     1  UNL1        0.0080
     21  C         26.3140  -18.9710  -16.8110 C.2     1  UNL1       -0.0500
     22  C         26.3870  -19.7840  -15.6520 C.2     1  UNL1       -0.0250
     23  C         26.0750  -19.6270  -18.1480 C.3     1  UNL1        0.0390
     24  C         26.1530  -21.2640  -15.8760 C.3     1  UNL1        0.0410
     25  C         24.9530  -21.5040  -16.7960 C.3     1  UNL1        0.0050
     26  C         24.9570  -20.6630  -18.0770 C.3     1  UNL1        0.0050
     27  C         20.5010  -22.9250   -7.7990 C.2     1  UNL1        0.0330
     28  C         20.6610  -21.7870   -6.9930 C.2     1  UNL1        0.0170
     29  C         19.5660  -21.2500   -6.3100 C.2     1  UNL1        0.0030
     30  C         18.3130  -21.8530   -6.4130 C.2     1  UNL1        0.0250
     31  C         18.1640  -23.0040   -7.1930 C.2     1  UNL1        0.0800
     32  C         19.2480  -23.5430   -7.8920 C.2     1  UNL1        0.0420
     33  S         16.5750  -23.7820   -7.3270 S.O2    1  UNL1        0.2630
     34  O         15.6020  -22.8660   -6.7690 O.2     1  UNL1       -0.2000
     35  O         16.6770  -25.1420   -6.8430 O.2     1  UNL1       -0.2000
     36  N         16.3070  -23.7970   -8.9970 N.pl3   1  UNL1       -0.2810
     37  H         16.2430  -24.7530   -9.3430 H       1  UNL1        0.1790
     38  C         17.0090  -22.8490   -9.7900 C.2     1  UNL1        0.0450
     39  C         16.3790  -21.6440  -10.1500 C.2     1  UNL1        0.0330
     40  C         17.0360  -20.7190  -10.9680 C.2     1  UNL1        0.0420
     41  C         18.3030  -21.0400  -11.4060 C.2     1  UNL1        0.1050
     42  C         18.9120  -22.2240  -11.0580 C.2     1  UNL1        0.1070
     43  O         19.0850  -20.2710  -12.2090 O.2     1  UNL1       -0.3230
     44  C         18.2910  -23.1530  -10.2510 C.2     1  UNL1        0.0690
     45  O         20.1520  -22.3470  -11.6020 O.2     1  UNL1       -0.3230
     46  C         20.2550  -21.1060  -12.3340 C.3     1  UNL1        0.3520
@<TRIPOS>BOND
     1    23    26    1
     2    23    21    1
     3    26    25    1
     4    21    20    2
     5    21    22    1
     6    25    24    1
     7    20    19    1
     8    24    22    1
     9    22    17    2
    10    19    18    2
    11    17    18    1
    12    17    14    1
    13    14    15    1
    14    14    12   am
    15    13    12    2
    16    12    11   am
    17    46    43    1
    18    46    45    1
    19    43    41    1
    20    45    42    1
    21    11    16    1
    22    11     9    1
    23    41    42    2
    24    41    40    1
    25    42    44    1
    26    40    39    2
    27     9     8    2
    28     9    10    1
    29     8     7    1
    30    44    38    2
    31    39    38    1
    32    10     5    2
    33    38    36    1
    34     7     6    2
    35    37    36    1
    36     5     6    1
    37     5     1    1
    38     3     2    2
    39    36    33    1
    40     1     2   am
    41     1     4    1
    42     2    27    1
    43    32    27    2
    44    32    31    1
    45    27    28    1
    46    33    31    1
    47    33    35    2
    48    33    34    2
    49    31    30    2
    50    28    29    2
    51    30    29    1
