@<TRIPOS>MOLECULE
14709_out_ligand_01.pdbqt
 35 40 0 0 0
SMALL
GASTEIGER

@<TRIPOS>ATOM
      1  C         22.6360  -21.8760  -11.7430 C.2     1  UNL1        0.0370
      2  C         23.2750  -22.8950  -11.0100 C.2     1  UNL1        0.0320
      3  C         22.6380  -23.5720   -9.9600 C.2     1  UNL1        0.0420
      4  C         21.3370  -23.1730   -9.6970 C.ar    1  UNL1        0.1060
      5  O         20.5000  -23.6620   -8.7380 O.2     1  UNL1       -0.2890
      6  C         19.3410  -22.9470   -8.9130 C.ar    1  UNL1        0.1810
      7  N         19.3990  -22.0380   -9.8710 N.ar    1  UNL1       -0.2210
      8  C         20.6620  -22.1830  -10.3870 C.ar    1  UNL1        0.0950
      9  C         21.3150  -21.5130  -11.4350 C.2     1  UNL1        0.0640
     10  N         23.3870  -21.2760  -12.7780 N.am    1  UNL1       -0.3230
     11  C         24.3120  -21.8870  -13.6030 C.2     1  UNL1        0.2560
     12  O         24.6140  -23.0740  -13.6290 O.2     1  UNL1       -0.2670
     13  H         23.1850  -20.3020  -12.9620 H       1  UNL1        0.1690
     14  C         24.9360  -20.9340  -14.5740 C.2     1  UNL1        0.0370
     15  C         24.8900  -21.1600  -16.0140 C.2     1  UNL1        0.0350
     16  C         25.4590  -20.2710  -16.8430 C.3     1  UNL1        0.1050
     17  N         26.0660  -19.1690  -16.3120 N.am    1  UNL1       -0.2560
     18  C         26.7060  -18.1370  -16.9540 C.2     1  UNL1        0.3480
     19  C         26.1260  -18.8760  -14.9870 C.2     1  UNL1        0.1590
     20  O         26.8860  -17.9780  -18.1500 O.2     1  UNL1       -0.2450
     21  N         27.1210  -17.2830  -15.9300 N.am    1  UNL1       -0.2260
     22  N         26.7430  -17.7710  -14.7000 N.pl3   1  UNL1       -0.1520
     23  H         27.6200  -16.4120  -16.0450 H       1  UNL1        0.1940
     24  C         25.5040  -19.8310  -14.0510 C.2     1  UNL1        0.0700
     25  C         18.2580  -23.2070   -7.9620 C.2     1  UNL1        0.0280
     26  C         17.2780  -24.1250   -8.3770 C.2     1  UNL1        0.0170
     27  C         16.1890  -24.4160   -7.5720 C.2     1  UNL1        0.0020
     28  C         16.0680  -23.7950   -6.3320 C.2     1  UNL1        0.0130
     29  C         17.0370  -22.8810   -5.8510 C.2     1  UNL1       -0.0080
     30  C         16.9400  -22.2520   -4.5790 C.2     1  UNL1        0.0220
     31  C         18.1610  -22.5900   -6.6780 C.2     1  UNL1       -0.0100
     32 BR         15.4750  -22.5470   -3.3900 Br      1  UNL1       -0.0500
     33  C         17.9260  -21.3750   -4.1190 C.2     1  UNL1        0.0200
     34  C         19.0320  -21.1090   -4.9080 C.2     1  UNL1        0.0020
     35  C         19.1460  -21.7090   -6.1620 C.2     1  UNL1        0.0130
@<TRIPOS>BOND
     1    20    18    2
     2    18    17   am
     3    18    21   am
     4    16    17    1
     5    16    15    1
     6    17    19    1
     7    23    21    1
     8    15    14    2
     9    21    22    1
    10    19    22    1
    11    19    24    2
    12    14    24    1
    13    14    11    1
    14    12    11    2
    15    11    10   am
    16    13    10    1
    17    10     1    1
    18     1     9    2
    19     1     2    1
    20     9     8    1
    21     2     3    2
    22     8     7   ar
    23     8     4   ar
    24     3     4    1
    25     7     6   ar
    26     4     5   ar
    27     6     5   ar
    28     6    25    1
    29    26    25    2
    30    26    27    1
    31    25    31    1
    32    27    28    2
    33    31    35    1
    34    31    29    2
    35    28    29    1
    36    35    34    2
    37    29    30    1
    38    34    33    1
    39    30    33    2
    40    30    32    1
