@<TRIPOS>MOLECULE
14704_out_ligand_01.pdbqt
 39 42 0 0 0
SMALL
GASTEIGER

@<TRIPOS>ATOM
      1  C         19.2320  -23.7600   -9.0120 C.2     1  UNL1        0.0540
      2  C         18.1380  -24.1030   -8.2230 C.2     1  UNL1        0.0500
      3  C         16.9270  -23.5050   -8.5080 C.2     1  UNL1        0.0580
      4  N         16.7690  -22.6410   -9.5350 N.2     1  UNL1       -0.2480
      5  C         17.8330  -22.2940  -10.2780 C.2     1  UNL1        0.0690
      6  C         17.6520  -21.3700  -11.2980 C.2     1  UNL1        0.0340
      7  C         18.7110  -20.9330  -12.1000 C.2     1  UNL1        0.0210
      8  C         19.9840  -21.4330  -11.8750 C.2     1  UNL1        0.0110
      9 BR         21.4350  -20.8250  -12.9190 Br      1  UNL1       -0.0510
     10  C         20.1960  -22.3720  -10.8700 C.2     1  UNL1        0.0340
     11  C         19.1210  -22.8190  -10.0590 C.2     1  UNL1        0.0100
     12  C         20.5080  -24.4160   -8.6860 C.2     1  UNL1        0.2940
     13  O         20.7190  -25.6070   -8.8100 O.2     1  UNL1       -0.2590
     14  O         21.3800  -23.4630   -8.2860 O.3     1  UNL1       -0.3170
     15  C         22.7050  -23.6120   -8.8150 C.3     1  UNL1        0.1830
     16  C         23.2610  -22.2320   -9.1650 C.3     1  UNL1        0.0650
     17  C         24.0270  -22.2240  -10.4680 C.2     1  UNL1       -0.0560
     18  C         23.7950  -23.2050  -11.4400 C.2     1  UNL1        0.0080
     19  C         24.5120  -23.2000  -12.6410 C.2     1  UNL1        0.0170
     20  C         25.4670  -22.2050  -12.8860 C.2     1  UNL1        0.0310
     21  C         25.7190  -21.2390  -11.9050 C.2     1  UNL1        0.0170
     22  C         25.0030  -21.2470  -10.7070 C.2     1  UNL1        0.0080
     23  C         26.2520  -22.1450  -14.1490 C.2     1  UNL1        0.2490
     24  N         26.1370  -23.1960  -15.0180 N.am    1  UNL1       -0.3660
     25  H         25.3710  -23.8500  -14.9720 H       1  UNL1        0.1590
     26  H         26.5800  -23.0650  -15.9190 H       1  UNL1        0.1590
     27  O         26.9500  -21.1790  -14.4300 O.2     1  UNL1       -0.2680
     28  C         15.6940  -23.8110   -7.7770 C.2     1  UNL1        0.0320
     29  C         15.4390  -23.6690   -6.4650 C.2     1  UNL1        0.0140
     30  C         16.3450  -23.1250   -5.4480 C.2     1  UNL1       -0.0350
     31  C         16.2420  -23.5090   -4.1060 C.2     1  UNL1        0.0110
     32  C         17.1150  -22.9840   -3.1540 C.2     1  UNL1        0.0020
     33  C         18.1030  -22.0770   -3.5370 C.2     1  UNL1        0.0160
     34  C         18.2290  -21.6860   -4.8780 C.2     1  UNL1        0.0480
     35  C         17.3490  -22.2280   -5.8300 C.2     1  UNL1        0.0270
     36  C         19.3090  -20.7250   -5.3070 C.3     1  UNL1        0.4170
     37  F         18.8800  -19.4330   -5.3110 F       1  UNL1       -0.1660
     38  F         19.7860  -20.9650   -6.5600 F       1  UNL1       -0.1660
     39  F         20.3970  -20.7530   -4.4850 F       1  UNL1       -0.1660
@<TRIPOS>BOND
     1    26    24    1
     2    24    25    1
     3    24    23   am
     4    27    23    2
     5    23    20    1
     6     9     8    1
     7    20    19    2
     8    20    21    1
     9    19    18    1
    10     7     8    1
    11     7     6    2
    12    21    22    2
    13     8    10    2
    14    18    17    2
    15     6     5    1
    16    10    11    1
    17    22    17    1
    18    17    16    1
    19     5    11    1
    20     5     4    2
    21    11     1    2
    22     4     3    1
    23    16    15    1
    24     1    12    1
    25     1     2    1
    26    15    14    1
    27    13    12    2
    28    12    14    1
    29     3     2    2
    30     3    28    1
    31    28    29    2
    32    38    36    1
    33    29    30    1
    34    35    30    2
    35    35    34    1
    36    30    31    1
    37    37    36    1
    38    36    34    1
    39    36    39    1
    40    34    33    2
    41    31    32    2
    42    33    32    1
