@<TRIPOS>MOLECULE
14720_out_ligand_01.pdbqt
 38 41 0 0 0
SMALL
GASTEIGER

@<TRIPOS>ATOM
      1  C         18.6400  -22.2470  -11.0360 C.2     1  UNL1       -0.0380
      2  C         18.5590  -20.9970  -11.6640 C.2     1  UNL1        0.0090
      3  C         19.7150  -20.2920  -11.9860 C.2     1  UNL1        0.0030
      4  C         20.9650  -20.8400  -11.6990 C.2     1  UNL1        0.0290
      5  C         21.0710  -22.0950  -11.0840 C.2     1  UNL1        0.0350
      6  C         19.9050  -22.7890  -10.7520 C.2     1  UNL1        0.0380
      7  N         22.3710  -22.5970  -10.8770 N.am    1  UNL1       -0.3230
      8  C         23.2820  -22.2240   -9.9060 C.2     1  UNL1        0.2600
      9  O         23.1720  -21.2620   -9.1540 O.2     1  UNL1       -0.2670
     10  H         22.6690  -23.3140  -11.5250 H       1  UNL1        0.1690
     11  C         24.4720  -23.0690   -9.8570 C.2     1  UNL1        0.0800
     12  C         24.6970  -24.0370   -8.8960 C.2     1  UNL1        0.1280
     13  N         25.9080  -24.5870   -9.1750 N.pl3   1  UNL1       -0.2880
     14  N         26.5020  -24.0530  -10.2500 N.2     1  UNL1       -0.1740
     15  H         26.3930  -25.3310   -8.6770 H       1  UNL1        0.1880
     16  C         25.6140  -23.1610  -10.7190 C.2     1  UNL1        0.1040
     17  C         25.8980  -22.4530  -11.9680 C.2     1  UNL1       -0.0030
     18  C         26.8190  -21.3940  -12.0030 C.2     1  UNL1        0.0170
     19  C         27.0890  -20.7330  -13.2050 C.2     1  UNL1        0.0450
     20  C         26.4320  -21.1220  -14.3670 C.2     1  UNL1        0.1380
     21  F         26.7080  -20.4730  -15.5080 F       1  UNL1       -0.2040
     22  C         25.5040  -22.1610  -14.3440 C.2     1  UNL1        0.0730
     23 CL         24.6890  -22.6430  -15.7810 Cl      1  UNL1       -0.0810
     24  C         25.2340  -22.8260  -13.1480 C.2     1  UNL1        0.0410
     25  C         17.3850  -23.0150  -10.6920 C.3     1  UNL1        0.1630
     26  N         16.7580  -22.4930   -9.4950 N.am    1  UNL1       -0.3390
     27  C         16.9890  -23.0700   -8.2650 C.2     1  UNL1        0.3210
     28  O         17.7880  -23.9840   -8.1090 O.2     1  UNL1       -0.2470
     29  N         16.2210  -22.4810   -7.2880 N.am    1  UNL1       -0.3070
     30  H         15.6660  -21.6830   -7.5660 H       1  UNL1        0.1700
     31  H         15.8850  -22.0080   -9.6290 H       1  UNL1        0.1640
     32  C         16.1590  -22.8040   -5.9110 C.2     1  UNL1        0.0580
     33  C         15.1240  -23.5580   -5.3470 C.2     1  UNL1        0.0310
     34  C         15.1150  -23.8480   -3.9780 C.2     1  UNL1        0.0020
     35  C         16.1350  -23.3850   -3.1530 C.2     1  UNL1        0.0020
     36  C         17.1730  -22.6290   -3.6960 C.2     1  UNL1        0.0260
     37  C         17.1840  -22.3420   -5.0640 C.2     1  UNL1        0.0600
     38 CL         18.4970  -21.3950   -5.6840 Cl      1  UNL1       -0.0820
@<TRIPOS>BOND
     1    23    22    1
     2    21    20    1
     3    20    22    2
     4    20    19    1
     5    22    24    1
     6    19    18    2
     7    24    17    2
     8    18    17    1
     9     3     4    2
    10     3     2    1
    11    17    16    1
    12     4     5    1
    13     2     1    2
    14    10     7    1
    15     5     7    1
    16     5     6    2
    17     1     6    1
    18     1    25    1
    19     7     8   am
    20    16    14    2
    21    16    11    1
    22    25    26    1
    23    14    13    1
    24     8    11    1
    25     8     9    2
    26    11    12    2
    27    31    26    1
    28    26    27   am
    29    13    12    1
    30    13    15    1
    31    27    28    2
    32    27    29   am
    33    30    29    1
    34    29    32    1
    35    32    33    2
    36    32    37    1
    37    38    37    1
    38    33    34    1
    39    37    36    2
    40    34    35    2
    41    36    35    1
