@<TRIPOS>MOLECULE
14731_out_ligand_01.pdbqt
 42 45 0 0 0
SMALL
GASTEIGER

@<TRIPOS>ATOM
      1  C         21.0980  -22.7840   -8.0230 C.2     1  UNL1        0.0340
      2  C         20.8990  -23.9380   -8.7920 C.2     1  UNL1        0.0170
      3  C         19.7940  -24.7590   -8.5590 C.2     1  UNL1        0.0030
      4  C         18.8690  -24.4160   -7.5770 C.2     1  UNL1        0.0250
      5  C         19.0470  -23.2400   -6.8410 C.2     1  UNL1        0.0750
      6  C         20.1660  -22.4260   -7.0420 C.2     1  UNL1        0.0410
      7  C         22.2930  -21.9490   -8.3000 C.2     1  UNL1        0.2660
      8  N         22.9860  -22.2390   -9.4630 N.am    1  UNL1       -0.2790
      9  H         22.4830  -22.6930  -10.2270 H       1  UNL1        0.1840
     10  O         22.6080  -21.0300   -7.5480 O.2     1  UNL1       -0.2660
     11  N         23.8970  -21.2370   -9.8980 N.am    1  UNL1       -0.1520
     12  C         24.9240  -21.6870  -10.7040 C.2     1  UNL1        0.3120
     13  O         25.1780  -22.8730  -10.8730 O.2     1  UNL1       -0.2520
     14  N         25.6130  -20.6520  -11.2810 N.am    1  UNL1       -0.3400
     15  H         25.6020  -19.7680  -10.7870 H       1  UNL1        0.1640
     16  H         23.4150  -20.4240  -10.2750 H       1  UNL1        0.1570
     17  C         26.7510  -20.8880  -12.1660 C.3     1  UNL1        0.1050
     18  C         27.1210  -19.6400  -12.9700 C.3     1  UNL1        0.0460
     19  C         26.1500  -19.6500  -14.1540 C.3     1  UNL1        0.1260
     20  N         25.6950  -21.0360  -14.2510 N.pl3   1  UNL1       -0.3640
     21  C         26.3910  -21.8830  -13.2800 C.3     1  UNL1        0.1490
     22  C         25.2730  -21.6010  -15.4340 C.2     1  UNL1        0.1250
     23  C         24.8820  -22.9390  -15.5060 C.2     1  UNL1        0.0500
     24  C         24.4860  -23.4880  -16.7260 C.2     1  UNL1        0.0050
     25  C         24.4980  -22.6950  -17.8610 C.2     1  UNL1        0.0190
     26  C         24.9070  -21.3850  -17.7210 C.2     1  UNL1        0.1190
     27  N         25.2910  -20.8350  -16.5490 N.2     1  UNL1       -0.2440
     28  S         17.8350  -22.7930   -5.6160 S.O2    1  UNL1        0.2450
     29  O         17.1850  -24.0080   -5.1860 O.2     1  UNL1       -0.2060
     30  O         18.4680  -21.8850   -4.6820 O.2     1  UNL1       -0.2060
     31  N         16.7840  -21.8310   -6.5580 N.pl3   1  UNL1       -0.1810
     32  H         15.8970  -21.7800   -6.0540 H       1  UNL1        0.1460
     33  C         16.6210  -22.2380   -7.9170 C.2     1  UNL1        0.0230
     34  C         15.6680  -23.2050   -8.2470 C.2     1  UNL1        0.0240
     35  C         15.5380  -23.6250   -9.5700 C.2     1  UNL1        0.0030
     36  C         16.3710  -23.0950  -10.5590 C.2     1  UNL1        0.0160
     37  C         17.3490  -22.1430  -10.2320 C.2     1  UNL1        0.0490
     38  C         17.4590  -21.7130   -8.9000 C.2     1  UNL1        0.0400
     39  C         18.2490  -21.5680  -11.2960 C.3     1  UNL1        0.4170
     40  F         17.9610  -22.0180  -12.5490 F       1  UNL1       -0.1660
     41  F         18.1890  -20.2130  -11.3670 F       1  UNL1       -0.1660
     42  F         19.5560  -21.8730  -11.0830 F       1  UNL1       -0.1660
@<TRIPOS>BOND
     1    25    26    2
     2    25    24    1
     3    26    27    1
     4    24    23    2
     5    27    22    2
     6    23    22    1
     7    22    20    1
     8    20    19    1
     9    20    21    1
    10    19    18    1
    11    21    17    1
    12    18    17    1
    13    40    39    1
    14    17    14    1
    15    41    39    1
    16    39    42    1
    17    39    37    1
    18    14    15    1
    19    14    12   am
    20    13    12    2
    21    12    11   am
    22    36    37    2
    23    36    35    1
    24    16    11    1
    25    37    38    1
    26     9     8    1
    27    11     8    1
    28    35    34    2
    29     8     7   am
    30    38    33    2
    31     2     3    1
    32     2     1    2
    33     3     4    2
    34     7     1    1
    35     7    10    2
    36    34    33    1
    37     1     6    1
    38    33    31    1
    39     4     5    1
    40     6     5    2
    41     5    28    1
    42    31    32    1
    43    31    28    1
    44    28    29    2
    45    28    30    2
