@<TRIPOS>MOLECULE
14734_out_ligand_01.pdbqt
 33 37 0 0 0
SMALL
GASTEIGER

@<TRIPOS>ATOM
      1  O         25.5050  -23.4890  -10.2930 O.2     1  UNL1       -0.2670
      2  C         24.7500  -22.6140  -10.7110 C.2     1  UNL1        0.2540
      3  N         23.3730  -22.6200  -10.4850 N.am    1  UNL1       -0.3470
      4  C         22.4500  -21.5730  -10.9230 C.3     1  UNL1        0.1260
      5  C         21.1050  -22.1340  -11.3730 C.3     1  UNL1        0.0210
      6  C         20.5400  -23.2570  -10.4960 C.3     1  UNL1        0.0150
      7  C         21.3730  -23.5700   -9.2470 C.3     1  UNL1        0.0760
      8  C         22.8610  -23.6720   -9.6130 C.3     1  UNL1        0.1380
      9  C         25.3360  -21.5230  -11.5160 C.2     1  UNL1        0.0430
     10  C         26.0080  -20.5250  -10.8000 C.2     1  UNL1        0.0210
     11  C         26.5890  -19.4680  -11.4860 C.2     1  UNL1        0.0380
     12  C         26.4830  -19.4070  -12.8750 C.2     1  UNL1        0.0760
     13  C         25.8190  -20.4080  -13.6290 C.2     1  UNL1        0.0080
     14  C         25.7440  -20.3970  -15.0420 C.2     1  UNL1        0.0150
     15  C         25.2130  -21.4860  -12.9300 C.2     1  UNL1       -0.0070
     16  C         25.0710  -21.3960  -15.7500 C.2     1  UNL1        0.0010
     17  C         24.4550  -22.4320  -15.0650 C.2     1  UNL1        0.0010
     18  C         24.5240  -22.4760  -13.6720 C.2     1  UNL1        0.0130
     19  O         27.0590  -18.3030  -13.4490 O.2     1  UNL1       -0.3600
     20  H         26.3520  -17.7190  -13.7690 H       1  UNL1        0.2170
     21  C         21.1260  -22.5910   -8.1300 C.ar    1  UNL1        0.1400
     22  N         21.9560  -21.6600   -7.6980 N.ar    1  UNL1       -0.1340
     23  N         21.3620  -20.9870   -6.6590 N.ar    1  UNL1       -0.1300
     24  C         20.1690  -21.5050   -6.4770 C.ar    1  UNL1        0.1570
     25  C         19.1260  -21.2150   -5.5580 C.2     1  UNL1        0.0540
     26  N         19.9570  -22.5230   -7.3950 N.ar    1  UNL1       -0.2900
     27  C         17.9830  -21.9270   -5.6040 C.2     1  UNL1        0.0210
     28  C         17.7730  -22.9960   -6.5880 C.2     1  UNL1        0.0640
     29  C         18.7710  -23.2580   -7.4590 C.2     1  UNL1        0.1160
     30  C         16.4580  -23.7260   -6.5690 C.3     1  UNL1        0.4180
     31  F         16.1350  -24.1480   -5.3220 F       1  UNL1       -0.1660
     32  F         16.4650  -24.8220   -7.3710 F       1  UNL1       -0.1660
     33  F         15.4420  -22.9340   -6.9980 F       1  UNL1       -0.1660
@<TRIPOS>BOND
     1    16    17    1
     2    16    14    2
     3    17    18    2
     4    14    13    1
     5    20    19    1
     6    18    15    1
     7    13    15    1
     8    13    12    2
     9    19    12    1
    10    15     9    2
    11    12    11    1
    12     9    10    1
    13     9     2    1
    14    11    10    2
    15     5     4    1
    16     5     6    1
    17     4     3    1
    18     2     3   am
    19     2     1    2
    20     6     7    1
    21     3     8    1
    22     8     7    1
    23     7    21    1
    24    21    22   ar
    25    21    26   ar
    26    22    23   ar
    27    29    26    1
    28    29    28    2
    29    26    24   ar
    30    32    30    1
    31    33    30    1
    32    23    24   ar
    33    28    30    1
    34    28    27    1
    35    30    31    1
    36    24    25    1
    37    27    25    2
