@<TRIPOS>MOLECULE
14735_out_ligand_01.pdbqt
 28 30 0 0 0
SMALL
GASTEIGER

@<TRIPOS>ATOM
      1  N         20.4460  -22.0870   -9.3020 N.am    1  UNL1       -0.3220
      2  C         21.3800  -23.0320   -9.6890 C.2     1  UNL1        0.2560
      3  O         21.5950  -24.1210   -9.1730 O.2     1  UNL1       -0.2670
      4  H         20.2980  -21.3180   -9.9360 H       1  UNL1        0.1690
      5  C         19.5580  -22.1460   -8.2060 C.2     1  UNL1        0.0420
      6  C         19.9690  -21.8870   -6.8910 C.2     1  UNL1        0.0300
      7  C         19.0960  -22.0470   -5.8050 C.2     1  UNL1        0.0030
      8  C         17.7930  -22.4820   -6.0050 C.2     1  UNL1        0.0090
      9  C         17.3640  -22.7120   -7.3040 C.2     1  UNL1       -0.0410
     10  C         16.0090  -23.2320   -7.7280 C.3     1  UNL1       -0.0190
     11  C         18.2220  -22.5110   -8.4110 C.2     1  UNL1       -0.0210
     12  C         16.0040  -22.7980   -9.2060 C.3     1  UNL1        0.0220
     13  C         14.8370  -22.5970   -6.9730 C.3     1  UNL1        0.0200
     14  C         15.9570  -24.7610   -7.5920 C.3     1  UNL1        0.0200
     15  C         17.4730  -22.8200   -9.6900 C.3     1  UNL1        0.0180
     16  C         17.6280  -21.8310  -10.8430 C.3     1  UNL1        0.0150
     17  C         22.1720  -22.6710  -10.9010 C.2     1  UNL1        0.0320
     18  C         21.5800  -21.8350  -11.8590 C.2     1  UNL1        0.0180
     19  C         22.2810  -21.4780  -13.0130 C.2     1  UNL1        0.0260
     20  C         23.5790  -21.9590  -13.2030 C.2     1  UNL1        0.0740
     21  C         24.1690  -22.8170  -12.2680 C.2     1  UNL1        0.0260
     22  C         23.4620  -23.1760  -11.1170 C.2     1  UNL1        0.0180
     23  S         24.4700  -21.5250  -14.6760 S.O2    1  UNL1        0.2390
     24  O         23.7590  -22.0570  -15.8140 O.2     1  UNL1       -0.2060
     25  O         25.8750  -21.7700  -14.4490 O.2     1  UNL1       -0.2060
     26  N         24.2390  -19.8590  -14.7290 N.3     1  UNL1       -0.2250
     27  H         23.7120  -19.5440  -15.5420 H       1  UNL1        0.1360
     28  H         25.1490  -19.3980  -14.6610 H       1  UNL1        0.1360
@<TRIPOS>BOND
     1    24    23    2
     2    27    26    1
     3    26    23    1
     4    26    28    1
     5    23    25    2
     6    23    20    1
     7    20    19    2
     8    20    21    1
     9    19    18    1
    10    21    22    2
    11    18    17    2
    12    22    17    1
    13    17     2    1
    14    16    15    1
    15     4     1    1
    16    15    12    1
    17    15    11    1
    18     2     1   am
    19     2     3    2
    20     1     5    1
    21    12    10    1
    22    11     5    2
    23    11     9    1
    24     5     6    1
    25    10    14    1
    26    10     9    1
    27    10    13    1
    28     9     8    2
    29     6     7    2
    30     8     7    1
