@<TRIPOS>MOLECULE
14738_out_ligand_01.pdbqt
 33 36 0 0 0
SMALL
GASTEIGER

@<TRIPOS>ATOM
      1  C         22.8770  -23.0520   -9.4090 C.2     1  UNL1        0.2560
      2  O         23.7720  -23.8360   -9.1240 O.2     1  UNL1       -0.2670
      3  N         22.9240  -22.0330  -10.3440 N.am    1  UNL1       -0.3230
      4  H         22.1420  -21.3920  -10.3620 H       1  UNL1        0.1690
      5  C         23.9840  -21.7180  -11.2220 C.2     1  UNL1        0.0350
      6  C         25.1880  -21.3070  -10.6440 C.2     1  UNL1        0.0290
      7  C         26.2820  -20.9930  -11.4440 C.2     1  UNL1        0.0030
      8  C         26.1750  -21.0700  -12.8330 C.2     1  UNL1        0.0100
      9  C         24.9710  -21.4480  -13.4550 C.2     1  UNL1       -0.0180
     10  C         23.8890  -21.7890  -12.6190 C.2     1  UNL1        0.0390
     11  C         24.8960  -21.5300  -14.9920 C.3     1  UNL1        0.1860
     12  C         26.1640  -21.0070  -15.7180 C.3     1  UNL1        0.0720
     13  C         26.2720  -21.4450  -17.1790 C.3     1  UNL1        0.1700
     14  O         25.0380  -21.9500  -17.6720 O.3     1  UNL1       -0.3910
     15  C         24.6350  -23.1340  -16.9830 C.3     1  UNL1        0.1700
     16  C         24.6940  -22.9910  -15.4590 C.3     1  UNL1        0.0720
     17  N         23.7270  -20.7310  -15.4160 N.3     1  UNL1        0.0920
     18  H         24.0440  -19.7880  -15.6410 H       1  UNL1        0.3140
     19  H         23.3780  -21.1230  -16.2960 H       1  UNL1        0.3140
     20  C         21.5910  -23.1470   -8.6620 C.2     1  UNL1        0.0320
     21  C         21.1790  -22.1410   -7.7820 C.2     1  UNL1        0.0180
     22  C         19.9630  -22.2660   -7.1000 C.2     1  UNL1        0.0160
     23  C         19.1440  -23.3900   -7.2930 C.2     1  UNL1        0.0130
     24  C         19.5600  -24.3840   -8.1910 C.2     1  UNL1        0.0160
     25  C         20.7730  -24.2610   -8.8770 C.2     1  UNL1        0.0180
     26  C         17.8780  -23.5080   -6.5750 C.2     1  UNL1        0.1810
     27  N         17.2580  -22.4210   -5.9940 N.2     1  UNL1       -0.2120
     28  C         16.1630  -22.9220   -5.4670 C.3     1  UNL1        0.1220
     29  N         16.1310  -24.2620   -5.7150 N.3     1  UNL1       -0.2630
     30  N         17.2050  -24.6590   -6.4130 N.pl3   1  UNL1       -0.1520
     31  H         15.4310  -24.9460   -5.4510 H       1  UNL1        0.1900
     32  C         15.0960  -22.2040   -4.7240 C.3     1  UNL1        0.0750
     33  C         13.9820  -21.7540   -5.6520 C.3     1  UNL1        0.0130
@<TRIPOS>BOND
     1    14    13    1
     2    14    15    1
     3    13    12    1
     4    15    16    1
     5    19    17    1
     6    12    11    1
     7    18    17    1
     8    16    11    1
     9    17    11    1
    10    11     9    1
    11     9     8    2
    12     9    10    1
    13     8     7    1
    14    10     5    2
    15     7     6    2
    16     5     6    1
    17     5     3    1
    18     4     3    1
    19     3     1   am
    20     1     2    2
    21     1    20    1
    22    25    20    2
    23    25    24    1
    24    20    21    1
    25    24    23    2
    26    21    22    2
    27    23    22    1
    28    23    26    1
    29    26    30    1
    30    26    27    2
    31    30    29    1
    32    27    28    1
    33    29    28    1
    34    29    31    1
    35    33    32    1
    36    28    32    1
