@<TRIPOS>MOLECULE
14747_out_ligand_01.pdbqt
 28 30 0 0 0
SMALL
GASTEIGER

@<TRIPOS>ATOM
      1  C         17.6540  -22.0580  -10.4600 C.2     1  UNL1        0.2540
      2  O         16.9830  -21.0500  -10.6580 O.2     1  UNL1       -0.2680
      3  N         17.1260  -23.2080   -9.9220 N.am    1  UNL1       -0.3560
      4  H         17.7340  -23.9880   -9.6950 H       1  UNL1        0.1620
      5  C         19.1050  -22.0530  -10.7950 C.2     1  UNL1        0.0710
      6  C         19.6480  -21.2800  -11.8220 C.2     1  UNL1        0.1320
      7  C         21.0130  -21.3150  -12.1010 C.2     1  UNL1        0.0440
      8  F         18.8760  -20.4840  -12.5770 F       1  UNL1       -0.2050
      9  C         21.8550  -22.1320  -11.3450 C.2     1  UNL1        0.0200
     10  C         21.3330  -22.9100  -10.3020 C.2     1  UNL1        0.0330
     11  C         19.9570  -22.8770  -10.0380 C.2     1  UNL1        0.0370
     12  C         22.2720  -23.7670   -9.5290 C.2     1  UNL1        0.2490
     13  N         23.6110  -23.5340   -9.6620 N.am    1  UNL1       -0.3660
     14  H         24.2280  -24.1920   -9.2020 H       1  UNL1        0.1590
     15  H         24.0090  -22.9600  -10.3910 H       1  UNL1        0.1590
     16  O         21.8620  -24.6750   -8.8150 O.2     1  UNL1       -0.2680
     17  C         15.7400  -23.3000   -9.4900 C.3     1  UNL1        0.1290
     18  C         15.5240  -24.2940   -8.3490 C.3     1  UNL1        0.0790
     19  C         15.9760  -23.7370   -7.0230 C.2     1  UNL1        0.0360
     20  C         15.2980  -24.0580   -5.8550 C.2     1  UNL1        0.0280
     21  C         15.7380  -23.5080   -4.6560 C.2     1  UNL1        0.0160
     22  C         16.8410  -22.6480   -4.6500 C.2     1  UNL1       -0.0070
     23  C         17.3220  -22.0690   -3.4620 C.2     1  UNL1        0.0140
     24  C         17.4710  -22.3730   -5.8820 C.2     1  UNL1        0.0670
     25  C         18.4230  -21.2160   -3.4900 C.2     1  UNL1        0.0010
     26  C         19.0470  -20.9410   -4.7010 C.2     1  UNL1        0.0020
     27  C         18.5660  -21.5200   -5.8800 C.2     1  UNL1        0.0320
     28  N         17.0450  -22.9030   -7.0420 N.2     1  UNL1       -0.2530
@<TRIPOS>BOND
     1     8     6    1
     2     7     6    1
     3     7     9    2
     4     6     5    2
     5     9    10    1
     6     5     1    1
     7     5    11    1
     8     2     1    2
     9     1     3   am
    10    15    13    1
    11    10    11    2
    12    10    12    1
    13     3     4    1
    14     3    17    1
    15    13    12   am
    16    13    14    1
    17    12    16    2
    18    17    18    1
    19    18    19    1
    20    28    19    2
    21    28    24    1
    22    19    20    1
    23    24    27    1
    24    24    22    2
    25    27    26    2
    26    20    21    2
    27    26    25    1
    28    21    22    1
    29    22    23    1
    30    25    23    2
