@<TRIPOS>MOLECULE
1474_out_ligand_01.pdbqt
 33 36 0 0 0
SMALL
GASTEIGER

@<TRIPOS>ATOM
      1  C         20.9640  -22.8410  -10.3580 C.2     1  UNL1       -0.0380
      2  C         21.7020  -23.4530   -9.3200 C.2     1  UNL1        0.0090
      3  C         23.0960  -23.5000   -9.3590 C.2     1  UNL1        0.0100
      4  C         23.7380  -22.9580  -10.4590 C.2     1  UNL1       -0.0290
      5  C         23.0240  -22.3760  -11.5100 C.2     1  UNL1        0.0440
      6  C         21.6430  -22.2930  -11.4630 C.2     1  UNL1        0.0390
      7  N         23.9080  -21.9560  -12.5280 N.am    1  UNL1       -0.3090
      8  C         23.5150  -21.3330  -13.7060 C.2     1  UNL1        0.2580
      9  O         22.3600  -21.0830  -14.0430 O.2     1  UNL1       -0.2670
     10  C         25.2610  -22.4850  -12.1880 C.3     1  UNL1        0.0930
     11  C         25.6070  -23.7230  -13.0230 C.3     1  UNL1        0.0330
     12  C         25.2100  -22.8450  -10.6880 C.3     1  UNL1        0.0660
     13  C         19.4570  -22.7840  -10.2910 C.3     1  UNL1        0.1630
     14  N         19.0040  -22.1740   -9.0610 N.am    1  UNL1       -0.3390
     15  C         18.1600  -22.8480   -8.2050 C.2     1  UNL1        0.3210
     16  N         17.9230  -22.1010   -7.0720 N.am    1  UNL1       -0.3080
     17  O         17.7060  -23.9500   -8.4710 O.2     1  UNL1       -0.2470
     18  H         18.2600  -21.1510   -7.1190 H       1  UNL1        0.1700
     19  H         19.6400  -21.5160   -8.6440 H       1  UNL1        0.1640
     20  C         17.1540  -22.4520   -5.9380 C.2     1  UNL1        0.0420
     21  C         17.5530  -21.9770   -4.6690 C.2     1  UNL1       -0.0350
     22  C         16.7870  -22.3110   -3.5380 C.2     1  UNL1        0.0090
     23  C         18.7770  -21.1230   -4.4750 C.3     1  UNL1        0.0500
     24  C         15.6500  -23.1100   -3.6490 C.2     1  UNL1        0.0070
     25  C         15.2600  -23.6020   -4.8940 C.2     1  UNL1       -0.0600
     26  C         14.0160  -24.4270   -5.0350 C.3     1  UNL1        0.0480
     27  C         16.0110  -23.2600   -6.0280 C.2     1  UNL1        0.0370
     28  C         24.5710  -20.9190  -14.6560 C.2     1  UNL1        0.0320
     29  C         25.3610  -19.7940  -14.4030 C.2     1  UNL1        0.0170
     30  C         26.3300  -19.4070  -15.3270 C.2     1  UNL1        0.0010
     31  C         26.4960  -20.1320  -16.5070 C.2     1  UNL1        0.0000
     32  C         25.6870  -21.2370  -16.7730 C.2     1  UNL1        0.0010
     33  C         24.7150  -21.6260  -15.8540 C.2     1  UNL1        0.0170
@<TRIPOS>BOND
     1    32    31    2
     2    32    33    1
     3    31    30    1
     4    33    28    2
     5    30    29    2
     6    28    29    1
     7    28     8    1
     8     9     8    2
     9     8     7   am
    10    11    10    1
    11     7    10    1
    12     7     5    1
    13    10    12    1
    14     5     6    1
    15     5     4    2
    16     6     1    2
    17    12     4    1
    18     4     3    1
    19     1    13    1
    20     1     2    1
    21    13    14    1
    22     3     2    2
    23    14    19    1
    24    14    15   am
    25    17    15    2
    26    15    16   am
    27    18    16    1
    28    16    20    1
    29    27    20    2
    30    27    25    1
    31    20    21    1
    32    26    25    1
    33    25    24    2
    34    21    23    1
    35    21    22    2
    36    24    22    1
