@<TRIPOS>MOLECULE
14754_out_ligand_01.pdbqt
 27 30 0 0 0
SMALL
GASTEIGER

@<TRIPOS>ATOM
      1  C         15.8540  -23.7060   -7.5080 C.2     1  UNL1        0.2620
      2  O         15.5600  -24.8100   -7.9620 O.2     1  UNL1       -0.2670
      3  N         15.9470  -22.6110   -8.3430 N.am    1  UNL1       -0.3520
      4  H         16.3420  -21.7470   -7.9990 H       1  UNL1        0.1630
      5  C         16.1340  -23.4770   -6.1060 C.ar    1  UNL1        0.1240
      6  S         14.8970  -23.8220   -4.9530 S.2     1  UNL1        0.0420
      7  N         15.8410  -23.3950   -3.6460 N.ar    1  UNL1       -0.1090
      8  N         17.0460  -22.9850   -3.9980 N.ar    1  UNL1       -0.1410
      9  C         17.2180  -23.0090   -5.3760 C.ar    1  UNL1        0.1140
     10  C         18.4810  -22.5660   -5.9360 C.2     1  UNL1        0.0020
     11  C         19.0800  -23.3650   -6.9240 C.2     1  UNL1        0.0140
     12  C         20.2660  -22.9610   -7.5340 C.2     1  UNL1        0.0010
     13  C         20.8650  -21.7630   -7.1590 C.2     1  UNL1        0.0010
     14  C         20.2890  -20.9720   -6.1650 C.2     1  UNL1        0.0070
     15  C         19.1010  -21.3680   -5.5290 C.2     1  UNL1       -0.0490
     16  C         18.5170  -20.4860   -4.4570 C.3     1  UNL1        0.0490
     17  C         15.8450  -22.7280   -9.7790 C.3     1  UNL1        0.1610
     18  C         17.1010  -22.2170  -10.4360 C.2     1  UNL1       -0.0400
     19  C         17.0790  -21.0170  -11.1810 C.2     1  UNL1        0.0090
     20  C         18.2420  -20.5110  -11.7670 C.2     1  UNL1        0.0100
     21  C         19.4190  -21.2190  -11.5990 C.2     1  UNL1       -0.0220
     22  C         19.4540  -22.3960  -10.8580 C.2     1  UNL1       -0.0220
     23  C         20.7940  -20.9030  -12.0800 C.3     1  UNL1        0.3090
     24  C         18.3120  -22.9060  -10.2650 C.2     1  UNL1        0.0180
     25  C         20.8540  -22.9080  -10.8130 C.3     1  UNL1        0.3090
     26  N         21.5900  -22.1370  -11.8500 N.3     1  UNL1        0.0910
     27  H         21.5290  -22.6830  -12.7090 H       1  UNL1        0.3160
@<TRIPOS>BOND
     1    27    26    1
     2    23    26    1
     3    23    21    1
     4    26    25    1
     5    20    21    2
     6    20    19    1
     7    21    22    1
     8    19    18    2
     9    22    25    1
    10    22    24    2
    11    18    24    1
    12    18    17    1
    13    17     3    1
    14     3     4    1
    15     3     1   am
    16     2     1    2
    17    12    13    2
    18    12    11    1
    19     1     5    1
    20    13    14    1
    21    11    10    2
    22    14    15    2
    23     5     9   ar
    24     5     6   ar
    25    10    15    1
    26    10     9    1
    27    15    16    1
    28     9     8   ar
    29     6     7   ar
    30     8     7   ar
