@<TRIPOS>MOLECULE
14752_out_ligand_01.pdbqt
 36 41 0 0 0
SMALL
GASTEIGER

@<TRIPOS>ATOM
      1  C         18.9500  -22.3550   -9.9470 C.2     1  UNL1        0.0400
      2  C         17.8230  -21.9600  -10.6810 C.2     1  UNL1        0.0170
      3  C         17.9620  -21.1270  -11.7890 C.2     1  UNL1        0.0010
      4  C         19.2260  -20.6770  -12.1610 C.2     1  UNL1        0.0010
      5  C         20.3510  -21.0500  -11.4200 C.2     1  UNL1        0.0100
      6  C         20.2320  -21.8880  -10.2950 C.2     1  UNL1       -0.0230
      7  C         21.4710  -22.2380   -9.5080 C.3     1  UNL1        0.1850
      8  N         22.6780  -21.9930  -10.2820 N.pl3   1  UNL1       -0.2790
      9  C         22.9470  -22.3820  -11.5620 C.2     1  UNL1        0.1420
     10  C         24.2070  -21.8810  -11.8050 C.2     1  UNL1        0.1010
     11  N         24.6430  -21.2150  -10.6860 N.2     1  UNL1       -0.1580
     12  N         23.7000  -21.2900   -9.7600 N.2     1  UNL1        0.0050
     13  C         24.9880  -22.0050  -13.0260 C.2     1  UNL1       -0.0040
     14  C         26.3790  -21.8380  -13.0370 C.2     1  UNL1        0.0150
     15  C         27.1040  -21.9650  -14.2270 C.2     1  UNL1        0.0140
     16  C         26.4480  -22.2630  -15.4310 C.2     1  UNL1       -0.0080
     17  C         27.1190  -22.4040  -16.6490 C.2     1  UNL1        0.1280
     18  C         25.0510  -22.4330  -15.4390 C.2     1  UNL1       -0.0220
     19  N         26.5190  -22.6930  -17.8280 N.2     1  UNL1       -0.2720
     20  C         25.1800  -22.8480  -17.7980 C.2     1  UNL1        0.1170
     21  C         24.4130  -22.7300  -16.6500 C.2     1  UNL1        0.0310
     22  C         24.3370  -22.3020  -14.2340 C.2     1  UNL1        0.0260
     23  C         18.6970  -23.2430   -8.7900 C.2     1  UNL1        0.2530
     24  O         19.4400  -24.1960   -8.6010 O.2     1  UNL1       -0.2680
     25  N         17.6260  -22.8850   -8.0030 N.am    1  UNL1       -0.3430
     26  H         17.0980  -22.0410   -8.2230 H       1  UNL1        0.1640
     27  C         17.2970  -23.5470   -6.7680 C.3     1  UNL1        0.0630
     28  C         17.2620  -25.0610   -6.7140 C.3     1  UNL1        0.0390
     29  C         15.9750  -24.3040   -6.7220 C.3     1  UNL1        0.0390
     30  C         17.6650  -22.7370   -5.5320 C.2     1  UNL1        0.0090
     31  C         17.0310  -22.9830   -4.2970 C.2     1  UNL1        0.0130
     32  C         17.3290  -22.2340   -3.1550 C.2     1  UNL1        0.0010
     33  C         18.2730  -21.2120   -3.2190 C.2     1  UNL1        0.0030
     34  C         18.9170  -20.9470   -4.4240 C.2     1  UNL1        0.0430
     35  C         18.6120  -21.7000   -5.5580 C.2     1  UNL1        0.1250
     36  F         19.2640  -21.4140   -6.6960 F       1  UNL1       -0.2050
@<TRIPOS>BOND
     1    19    20    2
     2    19    17    1
     3    20    21    1
     4    21    18    2
     5    17    16    2
     6    18    16    1
     7    18    22    1
     8    16    15    1
     9    22    13    2
    10    15    14    2
    11    14    13    1
    12    13    10    1
    13     4     3    2
    14     4     5    1
    15    10     9    2
    16    10    11    1
    17     3     2    1
    18     9     8    1
    19     5     6    2
    20    11    12    2
    21     2     1    2
    22     6     1    1
    23     6     7    1
    24     8    12    1
    25     8     7    1
    26     1    23    1
    27    23    24    2
    28    23    25   am
    29    26    25    1
    30    25    27    1
    31    27    29    1
    32    27    28    1
    33    27    30    1
    34    29    28    1
    35    36    35    1
    36    35    30    2
    37    35    34    1
    38    30    31    1
    39    34    33    2
    40    31    32    2
    41    33    32    1
