@<TRIPOS>MOLECULE
14759_out_ligand_01.pdbqt
 23 26 0 0 0
SMALL
GASTEIGER

@<TRIPOS>ATOM
      1  O         18.7860  -22.6470  -10.6250 O.2     1  UNL1       -0.2670
      2  C         19.9320  -22.9560  -10.3070 C.2     1  UNL1        0.2610
      3  C         21.0690  -22.5070  -11.1350 C.2     1  UNL1        0.0620
      4  C         20.8440  -21.7410  -12.2870 C.2     1  UNL1        0.0190
      5  C         21.9230  -21.3210  -13.0610 C.2     1  UNL1        0.0020
      6  C         23.2190  -21.6660  -12.6820 C.2     1  UNL1        0.0210
      7  C         23.4340  -22.4330  -11.5280 C.2     1  UNL1        0.0400
      8 BR         25.2310  -22.8620  -11.0780 Br      1  UNL1       -0.0490
      9  C         22.3600  -22.8650  -10.7350 C.2     1  UNL1        0.0910
     10  N         22.5810  -23.6360   -9.5780 N.2     1  UNL1       -0.2410
     11  C         21.5560  -24.0140   -8.8930 C.2     1  UNL1        0.2130
     12  N         20.2520  -23.7120   -9.1920 N.am    1  UNL1       -0.3040
     13  C         19.1850  -24.2070   -8.3350 C.3     1  UNL1        0.1710
     14  C         18.9550  -23.3090   -7.1400 C.2     1  UNL1       -0.0390
     15  C         19.6600  -22.0910   -7.0120 C.2     1  UNL1        0.0090
     16  C         19.4750  -21.2640   -5.9000 C.2     1  UNL1        0.0100
     17  C         18.5780  -21.6650   -4.9290 C.2     1  UNL1       -0.0220
     18  C         17.8800  -22.8640   -5.0420 C.2     1  UNL1       -0.0220
     19  C         18.2120  -21.0050   -3.6410 C.3     1  UNL1        0.3090
     20  C         18.0570  -23.6990   -6.1320 C.2     1  UNL1        0.0180
     21  C         17.0230  -23.0500   -3.8350 C.3     1  UNL1        0.3090
     22  N         17.0080  -21.7280   -3.1550 N.3     1  UNL1        0.0910
     23  H         16.2010  -21.2250   -3.5260 H       1  UNL1        0.3160
@<TRIPOS>BOND
     1     5     6    2
     2     5     4    1
     3     6     7    1
     4     4     3    2
     5     7     8    1
     6     7     9    2
     7     3     9    1
     8     3     2    1
     9     9    10    1
    10     1     2    2
    11     2    12   am
    12    10    11    2
    13    12    11    1
    14    12    13    1
    15    13    14    1
    16    14    15    2
    17    14    20    1
    18    15    16    1
    19    20    18    2
    20    16    17    2
    21    18    17    1
    22    18    21    1
    23    17    19    1
    24    21    22    1
    25    19    22    1
    26    23    22    1
