@<TRIPOS>MOLECULE
14769_out_ligand_01.pdbqt
 39 44 0 0 0
SMALL
GASTEIGER

@<TRIPOS>ATOM
      1  C         19.1620  -22.4550   -9.9570 C.2     1  UNL1        0.0400
      2  C         17.9710  -22.2080  -10.6580 C.2     1  UNL1        0.0170
      3  C         17.9620  -21.3520  -11.7570 C.2     1  UNL1        0.0010
      4  C         19.1400  -20.7300  -12.1570 C.2     1  UNL1        0.0010
      5  C         20.3250  -20.9520  -11.4520 C.2     1  UNL1        0.0100
      6  C         20.3590  -21.8060  -10.3310 C.2     1  UNL1       -0.0230
      7  C         19.0530  -23.3830   -8.8030 C.2     1  UNL1        0.2520
      8  O         19.8900  -24.2610   -8.6560 O.2     1  UNL1       -0.2680
      9  N         18.0120  -23.1420   -7.9420 N.am    1  UNL1       -0.3470
     10  H         17.5910  -22.2220   -7.9690 H       1  UNL1        0.1630
     11  C         17.8620  -23.8720   -6.6750 C.3     1  UNL1        0.1380
     12  C         16.4780  -24.5260   -6.4940 C.3     1  UNL1        0.1800
     13  N         15.4550  -23.5780   -6.0860 N.pl3   1  UNL1       -0.2790
     14  C         14.7500  -23.5920   -4.9150 C.2     1  UNL1        0.1130
     15  C         13.9020  -22.5110   -4.9660 C.2     1  UNL1        0.0400
     16  C         14.1760  -21.9020   -6.2030 C.2     1  UNL1        0.1400
     17  N         15.1220  -22.5480   -6.8910 N.2     1  UNL1       -0.1850
     18  C         18.1910  -22.9030   -5.5440 C.2     1  UNL1       -0.0340
     19  C         18.6190  -21.6000   -5.8400 C.2     1  UNL1        0.0090
     20  C         18.9080  -20.6980   -4.8150 C.2     1  UNL1        0.0010
     21  C         18.7730  -21.0850   -3.4830 C.2     1  UNL1        0.0000
     22  C         18.3560  -22.3780   -3.1740 C.2     1  UNL1        0.0010
     23  C         18.0670  -23.2830   -4.1970 C.2     1  UNL1        0.0090
     24  C         21.6730  -21.9650   -9.6020 C.3     1  UNL1        0.1850
     25  N         22.8490  -21.8110  -10.4430 N.pl3   1  UNL1       -0.2790
     26  C         23.0490  -22.2300  -11.7260 C.2     1  UNL1        0.1420
     27  C         24.3400  -21.8380  -12.0040 C.2     1  UNL1        0.1010
     28  N         24.8760  -21.2430  -10.8900 N.2     1  UNL1       -0.1580
     29  N         23.9640  -21.2630   -9.9280 N.2     1  UNL1        0.0050
     30  C         25.0580  -22.0040  -13.2540 C.2     1  UNL1       -0.0040
     31  C         26.4530  -21.8840  -13.3240 C.2     1  UNL1        0.0150
     32  C         27.1200  -22.0380  -14.5410 C.2     1  UNL1        0.0140
     33  C         26.4020  -22.3180  -15.7160 C.2     1  UNL1       -0.0080
     34  C         27.0150  -22.4800  -16.9620 C.2     1  UNL1        0.1280
     35  C         25.0020  -22.4440  -15.6630 C.2     1  UNL1       -0.0220
     36  N         26.3570  -22.7510  -18.1120 N.2     1  UNL1       -0.2720
     37  C         25.0160  -22.8710  -18.0230 C.2     1  UNL1        0.1170
     38  C         24.3040  -22.7280  -16.8430 C.2     1  UNL1        0.0310
     39  C         24.3440  -22.2810  -14.4300 C.2     1  UNL1        0.0260
@<TRIPOS>BOND
     1    36    37    2
     2    36    34    1
     3    37    38    1
     4    34    33    2
     5    38    35    2
     6    33    35    1
     7    33    32    1
     8    35    39    1
     9    32    31    2
    10    39    30    2
    11    31    30    1
    12    30    27    1
    13     4     3    2
    14     4     5    1
    15    27    26    2
    16    27    28    1
    17     3     2    1
    18    26    25    1
    19     5     6    2
    20    28    29    2
    21     2     1    2
    22    25    29    1
    23    25    24    1
    24     6     1    1
    25     6    24    1
    26     1     7    1
    27     7     8    2
    28     7     9   am
    29    10     9    1
    30     9    11    1
    31    17    16    2
    32    17    13    1
    33    11    12    1
    34    11    18    1
    35    12    13    1
    36    16    15    1
    37    13    14    1
    38    19    18    2
    39    19    20    1
    40    18    23    1
    41    15    14    2
    42    20    21    2
    43    23    22    2
    44    21    22    1
