@<TRIPOS>MOLECULE
14760_out_ligand_01.pdbqt
 37 41 0 0 0
SMALL
GASTEIGER

@<TRIPOS>ATOM
      1  C         19.1250  -22.4700  -10.0220 C.2     1  UNL1        0.0400
      2  C         17.9520  -22.2300  -10.7500 C.2     1  UNL1        0.0170
      3  C         17.9590  -21.3200  -11.8030 C.2     1  UNL1        0.0010
      4  C         19.1360  -20.6570  -12.1370 C.2     1  UNL1        0.0010
      5  C         20.3140  -20.9110  -11.4280 C.2     1  UNL1        0.0100
      6  C         20.3370  -21.8350  -10.3670 C.2     1  UNL1       -0.0230
      7  C         21.6500  -22.0900   -9.6560 C.3     1  UNL1        0.1850
      8  N         22.8290  -21.9450  -10.4950 N.pl3   1  UNL1       -0.2790
      9  C         22.9850  -22.2320  -11.8190 C.2     1  UNL1        0.1420
     10  C         24.2950  -21.8920  -12.0800 C.2     1  UNL1        0.1010
     11  N         24.8570  -21.3770  -10.9380 N.2     1  UNL1       -0.1580
     12  N         23.9400  -21.3880   -9.9810 N.2     1  UNL1        0.0050
     13  C         25.0100  -22.0400  -13.3360 C.2     1  UNL1       -0.0040
     14  C         26.4050  -21.9020  -13.3570 C.2     1  UNL1        0.0150
     15  C         27.1210  -22.0400  -14.5490 C.2     1  UNL1        0.0140
     16  C         26.4490  -22.3160  -15.7510 C.2     1  UNL1       -0.0080
     17  C         27.1080  -22.4620  -16.9730 C.2     1  UNL1        0.1280
     18  C         25.0480  -22.4520  -15.7500 C.2     1  UNL1       -0.0220
     19  N         26.4930  -22.7210  -18.1530 N.2     1  UNL1       -0.2720
     20  C         25.1500  -22.8420  -18.1150 C.2     1  UNL1        0.1170
     21  C         24.3940  -22.7200  -16.9600 C.2     1  UNL1        0.0310
     22  C         24.3430  -22.3150  -14.5400 C.2     1  UNL1        0.0260
     23  C         19.0260  -23.4500   -8.9190 C.2     1  UNL1        0.2520
     24  O         19.8050  -24.3890   -8.8770 O.2     1  UNL1       -0.2680
     25  N         18.0270  -23.2010   -8.0090 N.am    1  UNL1       -0.3480
     26  H         17.4450  -22.3840   -8.1270 H       1  UNL1        0.1630
     27  C         17.9770  -23.8930   -6.7290 C.3     1  UNL1        0.1200
     28  C         16.7480  -24.8070   -6.5560 C.3     1  UNL1        0.0560
     29  C         15.6600  -24.6550   -7.6100 C.3     1  UNL1        0.1660
     30  O         15.2420  -23.2950   -7.6920 O.3     1  UNL1       -0.4010
     31  H         14.4940  -23.2550   -8.3120 H       1  UNL1        0.2090
     32  C         18.1650  -22.9060   -5.5860 C.2     1  UNL1       -0.0350
     33  C         17.6630  -23.1430   -4.2950 C.2     1  UNL1        0.0090
     34  C         17.8470  -22.2080   -3.2740 C.2     1  UNL1        0.0010
     35  C         18.5300  -21.0210   -3.5280 C.2     1  UNL1        0.0000
     36  C         19.0280  -20.7670   -4.8030 C.2     1  UNL1        0.0010
     37  C         18.8470  -21.7020   -5.8230 C.2     1  UNL1        0.0090
@<TRIPOS>BOND
     1    19    20    2
     2    19    17    1
     3    20    21    1
     4    17    16    2
     5    21    18    2
     6    16    18    1
     7    16    15    1
     8    18    22    1
     9    15    14    2
    10    22    13    2
    11    14    13    1
    12    13    10    1
    13     4     3    2
    14     4     5    1
    15    10     9    2
    16    10    11    1
    17     9     8    1
    18     3     2    1
    19     5     6    2
    20    11    12    2
    21     2     1    2
    22     8    12    1
    23     8     7    1
    24     6     1    1
    25     6     7    1
    26     1    23    1
    27    23    24    2
    28    23    25   am
    29    31    30    1
    30    26    25    1
    31    25    27    1
    32    30    29    1
    33    29    28    1
    34    27    28    1
    35    27    32    1
    36    37    32    2
    37    37    36    1
    38    32    33    1
    39    36    35    2
    40    33    34    2
    41    35    34    1
