@<TRIPOS>MOLECULE
14779_out_ligand_01.pdbqt
 28 30 0 0 0
SMALL
GASTEIGER

@<TRIPOS>ATOM
      1  C         17.6300  -22.3620   -9.9580 C.2     1  UNL1        0.2540
      2  O         16.6850  -21.6200  -10.2070 O.2     1  UNL1       -0.2680
      3  N         17.5290  -23.4400   -9.1100 N.am    1  UNL1       -0.3560
      4  H         18.3140  -24.0800   -8.9840 H       1  UNL1        0.1620
      5  C         18.9400  -22.1310  -10.6190 C.2     1  UNL1        0.0710
      6  C         19.0950  -21.2820  -11.7130 C.2     1  UNL1        0.1320
      7  C         20.3450  -21.0980  -12.3060 C.2     1  UNL1        0.0440
      8  F         18.0510  -20.6340  -12.2490 F       1  UNL1       -0.2050
      9  C         21.4630  -21.7640  -11.8000 C.2     1  UNL1        0.0200
     10  C         21.3260  -22.6190  -10.7000 C.2     1  UNL1        0.0330
     11  C         20.0620  -22.8140  -10.1230 C.2     1  UNL1        0.0370
     12  C         22.4850  -23.3540  -10.1310 C.2     1  UNL1        0.2490
     13  N         23.6450  -23.3590  -10.8570 N.am    1  UNL1       -0.3660
     14  H         24.4500  -23.7540  -10.3860 H       1  UNL1        0.1590
     15  H         23.8230  -22.6920  -11.5930 H       1  UNL1        0.1590
     16  O         22.4260  -23.9070   -9.0410 O.2     1  UNL1       -0.2680
     17  C         16.2670  -23.7940   -8.4910 C.3     1  UNL1        0.1270
     18  C         16.4300  -24.6080   -7.2060 C.3     1  UNL1        0.0600
     19  C         16.3610  -23.7510   -5.9560 C.2     1  UNL1       -0.0270
     20  C         15.2920  -23.9430   -5.0620 C.2     1  UNL1        0.0090
     21  C         15.1970  -23.1860   -3.9000 C.2     1  UNL1        0.0020
     22  C         16.1710  -22.2350   -3.6190 C.2     1  UNL1        0.0140
     23  C         17.2470  -22.0380   -4.4990 C.2     1  UNL1       -0.0070
     24  C         18.2380  -21.0860   -4.2240 C.2     1  UNL1        0.0150
     25  C         17.3590  -22.8030   -5.6840 C.2     1  UNL1        0.0730
     26  C         19.2930  -20.9050   -5.1080 C.2     1  UNL1        0.0200
     27  C         19.3270  -21.6960   -6.2380 C.2     1  UNL1        0.1170
     28  N         18.3980  -22.6340   -6.5300 N.2     1  UNL1       -0.2600
@<TRIPOS>BOND
     1     7     9    2
     2     7     6    1
     3     8     6    1
     4     9    10    1
     5     6     5    2
     6    15    13    1
     7    13    14    1
     8    13    12   am
     9    10    12    1
    10    10    11    2
    11     5    11    1
    12     5     1    1
    13     2     1    2
    14    12    16    2
    15     1     3   am
    16     3     4    1
    17     3    17    1
    18    17    18    1
    19    18    19    1
    20    28    27    2
    21    28    25    1
    22    27    26    1
    23    19    25    2
    24    19    20    1
    25    25    23    1
    26    26    24    2
    27    20    21    2
    28    23    24    1
    29    23    22    2
    30    21    22    1
