@<TRIPOS>MOLECULE
14778_out_ligand_01.pdbqt
 34 39 0 0 0
SMALL
GASTEIGER

@<TRIPOS>ATOM
      1  C         24.6010  -21.0520  -13.3730 C.2     1  UNL1        0.0400
      2  C         25.0360  -19.9050  -14.0520 C.2     1  UNL1        0.0170
      3  C         26.2950  -19.3710  -13.7930 C.2     1  UNL1        0.0010
      4  C         27.1210  -19.9730  -12.8480 C.2     1  UNL1        0.0010
      5  C         26.6830  -21.1030  -12.1520 C.2     1  UNL1        0.0100
      6  C         25.4100  -21.6570  -12.3890 C.2     1  UNL1       -0.0230
      7  C         24.9890  -22.8610  -11.5770 C.3     1  UNL1        0.1850
      8  N         24.0100  -22.5910  -10.5370 N.pl3   1  UNL1       -0.2790
      9  C         22.9400  -23.3360  -10.1330 C.2     1  UNL1        0.1420
     10  C         22.3290  -22.5550   -9.1770 C.2     1  UNL1        0.1010
     11  N         23.0210  -21.3760   -9.0600 N.2     1  UNL1       -0.1580
     12  N         24.0350  -21.4000   -9.9120 N.2     1  UNL1        0.0050
     13  C         21.1460  -22.8770   -8.3960 C.2     1  UNL1       -0.0040
     14  C         20.5110  -24.1120   -8.5850 C.2     1  UNL1        0.0150
     15  C         19.3740  -24.4530   -7.8470 C.2     1  UNL1        0.0140
     16  C         18.8490  -23.5620   -6.8980 C.2     1  UNL1       -0.0080
     17  C         17.7180  -23.8480   -6.1290 C.2     1  UNL1        0.1280
     18  C         19.4750  -22.3170   -6.6930 C.2     1  UNL1       -0.0220
     19  N         17.1890  -23.0150   -5.2010 N.2     1  UNL1       -0.2720
     20  C         17.8140  -21.8310   -5.0300 C.2     1  UNL1        0.1170
     21  C         18.9390  -21.4410   -5.7390 C.2     1  UNL1        0.0310
     22  C         20.6160  -21.9870   -7.4480 C.2     1  UNL1        0.0260
     23  C         23.2440  -21.5400  -13.7180 C.2     1  UNL1        0.2520
     24  O         23.0640  -22.1100  -14.7850 O.2     1  UNL1       -0.2680
     25  N         22.2820  -21.3280  -12.7590 N.am    1  UNL1       -0.3560
     26  H         22.5550  -21.0320  -11.8330 H       1  UNL1        0.1620
     27  C         20.9150  -21.7540  -12.9540 C.3     1  UNL1        0.1280
     28  C         19.9910  -20.7440  -12.3480 C.3     1  UNL1        0.0150
     29  C         20.1400  -20.3440  -10.9020 C.3     1  UNL1        0.0190
     30  C         18.9240  -21.1350  -11.3370 C.3     1  UNL1       -0.0110
     31  C         18.7330  -22.5430  -10.8680 C.3     1  UNL1        0.0380
     32  C         17.5680  -20.4890  -11.3590 C.3     1  UNL1        0.1770
     33  C         17.3880  -22.4560  -10.1720 C.3     1  UNL1        0.1680
     34  O         16.6380  -21.5060  -10.9470 O.3     1  UNL1       -0.3900
@<TRIPOS>BOND
     1    24    23    2
     2     2     3    1
     3     2     1    2
     4     3     4    2
     5    23     1    1
     6    23    25   am
     7     1     6    1
     8    27    25    1
     9    27    28    1
    10     4     5    1
    11    25    26    1
    12     6     5    2
    13     6     7    1
    14    28    30    1
    15    28    29    1
    16     7     8    1
    17    32    30    1
    18    32    34    1
    19    30    29    1
    20    30    31    1
    21    34    33    1
    22    31    33    1
    23     8     9    1
    24     8    12    1
    25     9    10    2
    26    12    11    2
    27    10    11    1
    28    10    13    1
    29    14    13    2
    30    14    15    1
    31    13    22    1
    32    15    16    2
    33    22    18    2
    34    16    18    1
    35    16    17    1
    36    18    21    1
    37    17    19    2
    38    21    20    2
    39    19    20    1
