@<TRIPOS>MOLECULE
14773_out_ligand_01.pdbqt
 35 37 0 0 0
SMALL
GASTEIGER

@<TRIPOS>ATOM
      1  C         21.5270  -21.9940  -11.5080 C.2     1  UNL1        0.0380
      2  C         20.7980  -21.2990  -12.4730 C.2     1  UNL1        0.0290
      3  C         19.4680  -20.9530  -12.2350 C.2     1  UNL1        0.0040
      4  C         18.8560  -21.3030  -11.0320 C.2     1  UNL1        0.0290
      5  C         19.5680  -22.0040  -10.0530 C.2     1  UNL1        0.0370
      6  C         20.9010  -22.3460  -10.3020 C.2     1  UNL1        0.0590
      7  N         18.8790  -22.3310   -8.8670 N.am    1  UNL1       -0.3230
      8  C         19.0040  -23.4860   -8.1180 C.2     1  UNL1        0.2580
      9  O         19.7720  -24.4200   -8.2960 O.2     1  UNL1       -0.2670
     10  H         18.2460  -21.6200   -8.5180 H       1  UNL1        0.1690
     11  C         18.1140  -23.5420   -6.9420 C.2     1  UNL1        0.0620
     12  C         17.1520  -24.5450   -6.9310 C.2     1  UNL1        0.1370
     13  N         16.3090  -24.7490   -5.9000 N.2     1  UNL1       -0.2340
     14  C         16.4320  -23.8940   -4.8630 C.2     1  UNL1        0.1920
     15  C         17.3310  -22.8320   -4.7630 C.2     1  UNL1        0.1200
     16  N         17.3360  -22.0450   -3.6610 N.2     1  UNL1       -0.2560
     17  C         18.2010  -22.6420   -5.8520 C.2     1  UNL1        0.0140
     18  C         18.2050  -21.0120   -3.6250 C.2     1  UNL1        0.1170
     19  C         19.0870  -20.7200   -4.6460 C.2     1  UNL1        0.0200
     20  C         19.0830  -21.5400   -5.7700 C.2     1  UNL1        0.0160
     21  O         15.5650  -24.1190   -3.8180 O.2     1  UNL1       -0.3430
     22  H         15.8180  -25.0050   -3.4920 H       1  UNL1        0.2190
     23  N         22.8700  -22.3850  -11.6730 N.am    1  UNL1       -0.3090
     24  C         23.9810  -21.8980  -11.0210 C.2     1  UNL1        0.3200
     25  N         25.1260  -22.5080  -11.5020 N.am    1  UNL1       -0.3420
     26  O         24.0060  -21.0670  -10.1250 O.2     1  UNL1       -0.2470
     27  H         25.0970  -22.6970  -12.4990 H       1  UNL1        0.1640
     28  H         23.0370  -23.1880  -12.2610 H       1  UNL1        0.1700
     29  C         26.4280  -22.0590  -11.0400 C.3     1  UNL1        0.1330
     30  C         27.1210  -21.1490  -12.0450 C.3     1  UNL1        0.1220
     31  C         26.6670  -19.7130  -11.9270 C.2     1  UNL1        0.2160
     32  N         26.3550  -19.1180  -13.1140 N.am    1  UNL1       -0.3700
     33  H         25.9800  -18.1780  -13.0820 H       1  UNL1        0.1590
     34  H         26.2850  -19.6320  -13.9830 H       1  UNL1        0.1590
     35  O         26.5430  -19.1080  -10.8680 O.2     1  UNL1       -0.2740
@<TRIPOS>BOND
     1    34    32    1
     2    32    33    1
     3    32    31   am
     4    27    25    1
     5     2     3    1
     6     2     1    2
     7    28    23    1
     8     3     4    2
     9    30    31    1
    10    30    29    1
    11    31    35    2
    12    23     1    1
    13    23    24   am
    14     1     6    1
    15    25    29    1
    16    25    24   am
    17     4     5    1
    18    24    26    2
    19     6     5    2
    20     5     7    1
    21     7    10    1
    22     7     8   am
    23     9     8    2
    24     8    11    1
    25    11    12    2
    26    11    17    1
    27    12    13    1
    28    13    14    2
    29    17    20    1
    30    17    15    2
    31    20    19    2
    32    14    15    1
    33    14    21    1
    34    15    16    1
    35    19    18    1
    36    21    22    1
    37    16    18    2
