@<TRIPOS>MOLECULE
1478_out_ligand_01.pdbqt
 28 31 0 0 0
SMALL
GASTEIGER

@<TRIPOS>ATOM
      1  C         17.6750  -21.7080  -10.7550 C.ar    1  UNL1        0.1580
      2  N         17.4060  -20.7230  -11.6190 N.ar    1  UNL1       -0.1110
      3  O         18.6180  -20.5510  -12.2900 O.2     1  UNL1       -0.1890
      4  C         19.5000  -21.4580  -11.7610 C.ar    1  UNL1        0.2230
      5  C         20.8540  -21.5860  -12.1930 C.2     1  UNL1        0.0890
      6  C         21.8480  -22.4370  -11.7560 C.2     1  UNL1        0.0480
      7  C         23.0220  -22.1630  -12.5090 C.2     1  UNL1       -0.0050
      8  C         24.3250  -22.6960  -12.5160 C.2     1  UNL1        0.0370
      9  C         25.2620  -22.1770  -13.4160 C.2     1  UNL1        0.0350
     10 CL         26.8610  -22.8200  -13.4340 Cl      1  UNL1       -0.0840
     11  C         24.9260  -21.1500  -14.2950 C.2     1  UNL1        0.0260
     12  C         23.6380  -20.6080  -14.3050 C.2     1  UNL1        0.0320
     13  C         22.7090  -21.1360  -13.4000 C.2     1  UNL1        0.0430
     14  N         21.3890  -20.8060  -13.1870 N.pl3   1  UNL1       -0.3520
     15  N         18.9570  -22.1910  -10.8110 N.ar    1  UNL1       -0.2030
     16  H         20.8880  -20.0880  -13.6950 H       1  UNL1        0.1660
     17  C         16.6650  -22.2510   -9.8140 C.3     1  UNL1        0.1030
     18  C         17.0410  -22.0410   -8.3440 C.3     1  UNL1        0.1330
     19  N         16.9140  -23.2510   -7.5180 N.am    1  UNL1       -0.3500
     20  C         15.6040  -23.4860   -6.9250 C.3     1  UNL1        0.1530
     21  C         17.9790  -24.0680   -7.0950 C.2     1  UNL1        0.2770
     22  O         17.7920  -24.9080   -6.2100 O.2     1  UNL1       -0.2650
     23  C         19.3060  -23.9270   -7.6830 C.2     1  UNL1        0.1440
     24  C         19.9820  -24.7930   -8.5270 C.2     1  UNL1        0.0460
     25  C         21.2200  -24.1850   -8.8470 C.2     1  UNL1        0.0480
     26  C         21.2260  -22.9760   -8.1920 C.2     1  UNL1        0.1220
     27 BR         22.6340  -21.7010   -8.2440 Br      1  UNL1       -0.0230
     28  O         20.0730  -22.8100   -7.4940 O.2     1  UNL1       -0.2980
@<TRIPOS>BOND
     1    12    11    2
     2    12    13    1
     3    11     9    1
     4    16    14    1
     5    10     9    1
     6     9     8    2
     7    13    14    1
     8    13     7    2
     9    14     5    1
    10     8     7    1
    11     7     6    1
    12     3     4   ar
    13     3     2   ar
    14     5     4    1
    15     5     6    2
    16     4    15   ar
    17     2     1   ar
    18    15     1   ar
    19     1    17    1
    20    17    18    1
    21    25    24    1
    22    25    26    2
    23    24    23    2
    24    18    19    1
    25    27    26    1
    26    26    28    1
    27    23    28    1
    28    23    21    1
    29    19    21   am
    30    19    20    1
    31    21    22    2
