@<TRIPOS>MOLECULE
14787_out_ligand_01.pdbqt
 26 29 0 0 0
SMALL
GASTEIGER

@<TRIPOS>ATOM
      1  O         17.3310  -23.2230  -10.3700 O.2     1  UNL1       -0.2640
      2  C         17.9070  -22.8130   -9.3670 C.2     1  UNL1        0.2950
      3  N         19.1720  -22.2470   -9.3230 N.am    1  UNL1       -0.3200
      4  H         19.4700  -21.9700   -8.3900 H       1  UNL1        0.1690
      5  C         20.0650  -22.0170  -10.3830 C.2     1  UNL1        0.0350
      6  C         19.7530  -21.2810  -11.5180 C.2     1  UNL1        0.0300
      7  C         20.7090  -21.0970  -12.5210 C.2     1  UNL1        0.0100
      8  C         22.0040  -21.6380  -12.4160 C.2     1  UNL1       -0.0500
      9  C         22.3210  -22.4160  -11.2860 C.2     1  UNL1       -0.0220
     10  C         22.9470  -21.3760  -13.5730 C.3     1  UNL1        0.0410
     11  C         21.3440  -22.5750  -10.2760 C.2     1  UNL1        0.0390
     12  C         23.6700  -23.0680  -11.0510 C.3     1  UNL1        0.3080
     13  N         24.2460  -23.6820  -12.2420 N.3     1  UNL1        0.0870
     14  C         25.0280  -22.7500  -13.0450 C.3     1  UNL1        0.2700
     15  H         23.4890  -24.0800  -12.7990 H       1  UNL1        0.3160
     16  C         24.4320  -21.3540  -13.2230 C.3     1  UNL1        0.0340
     17  C         17.3030  -22.8690   -8.0140 C.2     1  UNL1        0.2400
     18  N         17.9040  -22.2560   -6.9270 N.2     1  UNL1       -0.2020
     19  C         17.0850  -22.5260   -5.9310 C.3     1  UNL1        0.1700
     20  C         17.0990  -22.1980   -4.5400 C.2     1  UNL1        0.0590
     21  N         16.0090  -23.2840   -6.3980 N.pl3   1  UNL1       -0.2230
     22 BR         18.5210  -21.1850   -3.8850 Br      1  UNL1       -0.0470
     23  C         16.0960  -22.6250   -3.7440 C.2     1  UNL1        0.0240
     24  C         14.9920  -23.4140   -4.2630 C.2     1  UNL1        0.0210
     25  C         14.9770  -23.7220   -5.5700 C.2     1  UNL1        0.1200
     26  N         16.1550  -23.4990   -7.7240 N.pl3   1  UNL1       -0.1400
@<TRIPOS>BOND
     1    10    16    1
     2    10     8    1
     3    16    14    1
     4    14    13    1
     5    15    13    1
     6     7     8    2
     7     7     6    1
     8     8     9    1
     9    13    12    1
    10     6     5    2
    11     9    12    1
    12     9    11    2
    13     5    11    1
    14     5     3    1
    15     1     2    2
    16     2     3   am
    17     2    17    1
    18     3     4    1
    19    17    26    1
    20    17    18    2
    21    26    21    1
    22    18    19    1
    23    21    19    1
    24    21    25    1
    25    19    20    1
    26    25    24    2
    27    20    22    1
    28    20    23    2
    29    24    23    1
