@<TRIPOS>MOLECULE
14780_out_ligand_01.pdbqt
 27 30 0 0 0
SMALL
GASTEIGER

@<TRIPOS>ATOM
      1  N         20.2230  -22.5870   -8.5860 N.am    1  UNL1       -0.3230
      2  C         21.0390  -23.6220   -8.9990 C.2     1  UNL1        0.2570
      3  O         20.9010  -24.8130   -8.7510 O.2     1  UNL1       -0.2670
      4  H         20.5710  -21.6490   -8.7420 H       1  UNL1        0.1690
      5  C         19.0010  -22.6810   -7.8890 C.2     1  UNL1        0.0360
      6  C         17.9270  -23.2450   -8.5710 C.2     1  UNL1        0.0320
      7  C         16.6880  -23.3680   -7.9460 C.2     1  UNL1        0.0400
      8  C         16.4870  -22.9260   -6.6290 C.2     1  UNL1        0.0840
      9  O         15.2040  -23.1390   -6.2180 O.2     1  UNL1       -0.3480
     10  C         17.5610  -22.3920   -5.9060 C.2     1  UNL1        0.0670
     11  C         14.6720  -22.1510   -5.3460 C.3     1  UNL1        0.1950
     12  C         15.1360  -22.4380   -3.9390 C.3     1  UNL1        0.1490
     13  N         16.4540  -21.9160   -3.6840 N.am    1  UNL1       -0.3550
     14  C         17.5710  -21.9650   -4.4710 C.2     1  UNL1        0.2540
     15  H         16.6880  -21.6770   -2.7280 H       1  UNL1        0.1620
     16  O         18.6230  -21.6140   -3.9340 O.2     1  UNL1       -0.2680
     17  C         18.8120  -22.2700   -6.5660 C.2     1  UNL1        0.0490
     18  C         22.2420  -23.2070   -9.7550 C.2     1  UNL1        0.0470
     19  C         23.5030  -23.5400   -9.2480 C.2     1  UNL1        0.0370
     20  C         24.6290  -23.1310   -9.9430 C.2     1  UNL1        0.1200
     21  N         24.6270  -22.4240  -11.0950 N.2     1  UNL1       -0.2420
     22  C         23.3920  -22.1600  -11.5560 C.2     1  UNL1        0.1380
     23  N         23.1370  -21.4890  -12.7190 N.pl3   1  UNL1       -0.3500
     24  C         22.1750  -22.5060  -10.9750 C.2     1  UNL1        0.0270
     25  C         21.7830  -21.4080  -12.9220 C.2     1  UNL1        0.0900
     26  H         23.8590  -21.1370  -13.3300 H       1  UNL1        0.1660
     27  C         21.1610  -22.0400  -11.8650 C.2     1  UNL1        0.0330
@<TRIPOS>BOND
     1    26    23    1
     2    25    23    1
     3    25    27    2
     4    23    22    1
     5    27    24    1
     6    22    21    2
     7    22    24    1
     8    21    20    1
     9    24    18    2
    10    20    19    2
    11    18    19    1
    12    18     2    1
    13     2     3    2
    14     2     1   am
    15     4     1    1
    16     1     5    1
    17     6     7    1
    18     6     5    2
    19     7     8    2
    20     5    17    1
    21     8     9    1
    22     8    10    1
    23    17    10    2
    24     9    11    1
    25    10    14    1
    26    11    12    1
    27    14    16    2
    28    14    13   am
    29    12    13    1
    30    13    15    1
