@<TRIPOS>MOLECULE
14797_out_ligand_01.pdbqt
 28 31 0 0 0
SMALL
GASTEIGER

@<TRIPOS>ATOM
      1  O         19.1440  -20.2450  -11.9970 O.2     1  UNL1       -0.2660
      2  C         19.2550  -21.3050  -11.3900 C.2     1  UNL1        0.2760
      3  N         20.3960  -22.1000  -11.3660 N.am    1  UNL1       -0.3210
      4  H         20.3740  -22.8690  -10.7160 H       1  UNL1        0.1690
      5  C         18.1420  -21.8540  -10.5720 C.2     1  UNL1        0.1460
      6  C         16.7480  -21.5620  -10.6530 C.2     1  UNL1        0.0580
      7  C         16.1500  -22.3210   -9.6760 C.2     1  UNL1        0.1140
      8  N         17.1590  -23.0030   -9.0670 N.pl3   1  UNL1       -0.2800
      9  N         18.3680  -22.7460   -9.5870 N.2     1  UNL1       -0.1670
     10  C         17.0390  -23.9280   -7.9550 C.3     1  UNL1        0.1550
     11  C         18.3390  -24.0330   -7.1650 C.3     1  UNL1        0.0600
     12  C         18.4190  -22.9710   -6.0950 C.2     1  UNL1       -0.0570
     13  C         17.7260  -23.1220   -4.8870 C.2     1  UNL1        0.0070
     14  C         17.7850  -22.1260   -3.9110 C.2     1  UNL1        0.0010
     15  C         18.5330  -20.9720   -4.1340 C.2     1  UNL1        0.0000
     16  C         19.2230  -20.8120   -5.3340 C.2     1  UNL1        0.0010
     17  C         19.1670  -21.8060   -6.3120 C.2     1  UNL1        0.0070
     18  C         21.6170  -21.9060  -12.0580 C.2     1  UNL1        0.0420
     19  C         21.6720  -21.3070  -13.3210 C.2     1  UNL1        0.0300
     20  C         22.8900  -21.1110  -13.9740 C.2     1  UNL1        0.0030
     21  C         24.0760  -21.5080  -13.3710 C.2     1  UNL1        0.0090
     22  C         24.0590  -22.1080  -12.1070 C.2     1  UNL1       -0.0220
     23  C         22.8240  -22.3380  -11.4530 C.2     1  UNL1       -0.0220
     24  C         25.3720  -22.5510  -11.4980 C.3     1  UNL1        0.3080
     25  C         22.8460  -22.9930  -10.0860 C.3     1  UNL1        0.0710
     26  C         24.1970  -23.6190   -9.7200 C.3     1  UNL1        0.2740
     27  N         25.3110  -22.7290  -10.0440 N.3     1  UNL1        0.0870
     28  H         25.1450  -21.8150   -9.6240 H       1  UNL1        0.3160
@<TRIPOS>BOND
     1    20    21    2
     2    20    19    1
     3    21    22    1
     4    19    18    2
     5    22    24    1
     6    22    23    2
     7    18    23    1
     8    18     3    1
     9     1     2    2
    10    24    27    1
    11    23    25    1
    12     2     3   am
    13     2     5    1
    14     3     4    1
    15     6     5    1
    16     6     7    2
    17     5     9    2
    18    25    26    1
    19    27    26    1
    20    27    28    1
    21     7     8    1
    22     9     8    1
    23     8    10    1
    24    10    11    1
    25    11    12    1
    26    17    12    2
    27    17    16    1
    28    12    13    1
    29    16    15    2
    30    13    14    2
    31    15    14    1
