@<TRIPOS>MOLECULE
14794_out_ligand_01.pdbqt
 26 29 0 0 0
SMALL
GASTEIGER

@<TRIPOS>ATOM
      1  C         21.3770  -22.9540  -10.4550 C.2     1  UNL1       -0.0220
      2  C         21.7300  -23.9040   -9.4840 C.2     1  UNL1        0.0090
      3  C         20.8030  -24.3440   -8.5500 C.2     1  UNL1        0.0030
      4  C         19.5050  -23.8390   -8.5670 C.2     1  UNL1        0.0300
      5  C         19.1120  -22.8710   -9.5030 C.2     1  UNL1        0.0440
      6  C         20.0530  -22.4360  -10.4740 C.2     1  UNL1       -0.0230
      7  C         19.6430  -21.4660  -11.5630 C.3     1  UNL1        0.0430
      8  C         18.2850  -20.8230  -11.3370 C.3     1  UNL1        0.0250
      9  C         17.3070  -21.8590  -10.8270 C.3     1  UNL1        0.1330
     10  N         17.7640  -22.3820   -9.5470 N.am    1  UNL1       -0.3120
     11  C         16.8000  -22.5080   -8.5330 C.2     1  UNL1        0.2780
     12  O         15.5960  -22.6110   -8.7810 O.2     1  UNL1       -0.2650
     13  C         17.2100  -22.3810   -7.1080 C.2     1  UNL1        0.1400
     14  N         18.3090  -21.6330   -6.8110 N.2     1  UNL1       -0.2350
     15  C         18.6540  -21.5150   -5.5190 C.2     1  UNL1        0.2360
     16  N         18.0360  -22.0410   -4.4480 N.2     1  UNL1       -0.2240
     17  C         16.9470  -22.7440   -4.7950 C.2     1  UNL1        0.1410
     18  N         16.1180  -23.3800   -3.9120 N.pl3   1  UNL1       -0.3500
     19  C         16.4660  -22.9590   -6.0770 C.2     1  UNL1        0.0460
     20  C         15.1070  -24.0040   -4.5970 C.2     1  UNL1        0.0910
     21  H         16.2490  -23.3720   -2.9110 H       1  UNL1        0.1660
     22  C         15.2960  -23.7590   -5.9420 C.2     1  UNL1        0.0350
     23  C         22.4300  -22.5790  -11.4760 C.3     1  UNL1        0.3050
     24  N         23.6450  -23.3610  -11.2890 N.3     1  UNL1        0.0820
     25  H         23.5580  -24.2390  -11.7970 H       1  UNL1        0.3130
     26  H         24.4320  -22.8640  -11.6990 H       1  UNL1        0.3130
@<TRIPOS>BOND
     1    25    24    1
     2    26    24    1
     3     7     8    1
     4     7     6    1
     5    23    24    1
     6    23     1    1
     7     8     9    1
     8     9    10    1
     9     6     1    2
    10     6     5    1
    11     1     2    1
    12    10     5    1
    13    10    11   am
    14     5     4    2
    15     2     3    2
    16    12    11    2
    17     4     3    1
    18    11    13    1
    19    13    14    2
    20    13    19    1
    21    14    15    1
    22    19    22    1
    23    19    17    2
    24    22    20    2
    25    15    16    2
    26    17    16    1
    27    17    18    1
    28    20    18    1
    29    18    21    1
