@<TRIPOS>MOLECULE
14793_out_ligand_01.pdbqt
 32 35 0 0 0
SMALL
GASTEIGER

@<TRIPOS>ATOM
      1  N         19.4090  -22.2370  -10.3810 N.am    1  UNL1       -0.3230
      2  C         20.6230  -22.8830  -10.2500 C.2     1  UNL1        0.2560
      3  O         20.9350  -23.7120   -9.4040 O.2     1  UNL1       -0.2670
      4  H         19.3630  -21.4800  -11.0490 H       1  UNL1        0.1690
      5  C         18.2370  -22.4530   -9.6230 C.2     1  UNL1        0.0350
      6  C         16.9720  -22.6170  -10.1830 C.2     1  UNL1        0.0290
      7  C         15.8620  -22.8120   -9.3630 C.2     1  UNL1        0.0030
      8  C         16.0110  -22.8480   -7.9780 C.2     1  UNL1        0.0100
      9  C         17.2720  -22.6890   -7.3730 C.2     1  UNL1       -0.0180
     10  C         18.3740  -22.4860   -8.2240 C.2     1  UNL1        0.0390
     11  C         17.3830  -22.7490   -5.8400 C.3     1  UNL1        0.1860
     12  C         18.4920  -21.7750   -5.3650 C.3     1  UNL1        0.0720
     13  C         18.3180  -21.3140   -3.9190 C.3     1  UNL1        0.1700
     14  O         17.6070  -22.2790   -3.1540 O.3     1  UNL1       -0.3910
     15  C         16.2460  -22.3940   -3.5670 C.3     1  UNL1        0.1700
     16  C         16.0830  -22.3820   -5.0890 C.3     1  UNL1        0.0720
     17  N         17.7630  -24.1270   -5.4670 N.3     1  UNL1        0.0920
     18  H         18.7740  -24.2330   -5.5790 H       1  UNL1        0.3140
     19  H         17.5530  -24.2860   -4.4830 H       1  UNL1        0.3140
     20  C         21.6590  -22.4750  -11.2410 C.2     1  UNL1        0.0320
     21  C         21.3500  -21.6560  -12.3340 C.2     1  UNL1        0.0170
     22  C         22.3480  -21.3060  -13.2460 C.2     1  UNL1        0.0080
     23  C         23.6620  -21.7770  -13.0840 C.2     1  UNL1       -0.0510
     24  C         23.9600  -22.6070  -11.9950 C.2     1  UNL1        0.0080
     25  C         22.9630  -22.9570  -11.0820 C.2     1  UNL1        0.0170
     26  C         24.7300  -21.4150  -14.0930 C.3     1  UNL1        0.1180
     27  C         24.7300  -22.2960  -15.2940 C.2     1  UNL1        0.1310
     28  N         25.1380  -23.5460  -15.3660 N.2     1  UNL1       -0.1350
     29  N         24.9620  -23.9770  -16.6600 N.2     1  UNL1       -0.1440
     30  C         24.4510  -22.9820  -17.3470 C.2     1  UNL1        0.2330
     31  N         24.2820  -21.9080  -16.5310 N.pl3   1  UNL1       -0.3360
     32  H         23.9270  -20.9970  -16.7850 H       1  UNL1        0.1680
@<TRIPOS>BOND
     1    30    29    2
     2    30    31    1
     3    32    31    1
     4    29    28    1
     5    31    27    1
     6    28    27    2
     7    27    26    1
     8    26    23    1
     9    22    23    2
    10    22    21    1
    11    23    24    1
    12    21    20    2
    13    24    25    2
    14    20    25    1
    15    20     2    1
    16     4     1    1
    17     1     2   am
    18     1     5    1
    19     2     3    2
    20     6     5    2
    21     6     7    1
    22     5    10    1
    23     7     8    2
    24    10     9    2
    25     8     9    1
    26     9    11    1
    27    11    17    1
    28    11    12    1
    29    11    16    1
    30    18    17    1
    31    17    19    1
    32    12    13    1
    33    16    15    1
    34    13    14    1
    35    15    14    1
