@<TRIPOS>MOLECULE
1479_out_ligand_01.pdbqt
 33 36 0 0 0
SMALL
GASTEIGER

@<TRIPOS>ATOM
      1  C         15.6370  -23.6320   -9.5190 C.3     1  UNL1        0.0330
      2  C         16.5890  -22.5040   -9.1060 C.3     1  UNL1        0.0930
      3  C         17.1610  -21.7870  -10.3490 C.3     1  UNL1        0.0660
      4  C         18.5790  -22.2590  -10.3560 C.2     1  UNL1       -0.0290
      5  C         19.5390  -22.0080  -11.3230 C.2     1  UNL1        0.0100
      6  C         20.8450  -22.4530  -11.0990 C.2     1  UNL1        0.0090
      7  C         21.1800  -23.1480   -9.9200 C.2     1  UNL1       -0.0380
      8  C         20.1850  -23.3930   -8.9540 C.2     1  UNL1        0.0390
      9  C         18.8930  -22.9450   -9.1840 C.2     1  UNL1        0.0440
     10  N         17.7570  -23.0320   -8.3460 N.am    1  UNL1       -0.3090
     11  C         17.7430  -23.6320   -7.0890 C.2     1  UNL1        0.2580
     12  O         18.6420  -24.3220   -6.6080 O.2     1  UNL1       -0.2670
     13  C         22.6060  -23.5870   -9.6750 C.3     1  UNL1        0.1630
     14  N         23.4320  -23.3720  -10.8510 N.am    1  UNL1       -0.3390
     15  C         23.8800  -22.1130  -11.1970 C.2     1  UNL1        0.3210
     16  O         23.6540  -21.1240  -10.5080 O.2     1  UNL1       -0.2470
     17  N         24.5980  -22.1430  -12.3700 N.am    1  UNL1       -0.3060
     18  H         24.7370  -23.0550  -12.7940 H       1  UNL1        0.1710
     19  H         23.3660  -24.0740  -11.5760 H       1  UNL1        0.1640
     20  C         25.2250  -21.0650  -13.0350 C.2     1  UNL1        0.0750
     21  C         26.2180  -20.2590  -12.4690 C.2     1  UNL1        0.0340
     22  C         26.7860  -19.2110  -13.2070 C.2     1  UNL1        0.0210
     23  C         26.3580  -18.9650  -14.5150 C.2     1  UNL1        0.0140
     24 BR         27.1210  -17.5430  -15.5060 Br      1  UNL1       -0.0510
     25  C         25.3700  -19.7580  -15.0940 C.2     1  UNL1        0.0630
     26  C         24.8170  -20.7980  -14.3500 C.2     1  UNL1        0.1440
     27  F         23.8630  -21.5670  -14.9150 F       1  UNL1       -0.2040
     28  C         16.5540  -23.4200   -6.2290 C.2     1  UNL1        0.0320
     29  C         15.5330  -24.3780   -6.2280 C.2     1  UNL1        0.0170
     30  C         14.4340  -24.2150   -5.3820 C.2     1  UNL1        0.0010
     31  C         14.3610  -23.1040   -4.5370 C.2     1  UNL1        0.0000
     32  C         15.3880  -22.1590   -4.5250 C.2     1  UNL1        0.0010
     33  C         16.4960  -22.3230   -5.3590 C.2     1  UNL1        0.0170
@<TRIPOS>BOND
     1    24    23    1
     2    25    23    2
     3    25    26    1
     4    27    26    1
     5    23    22    1
     6    26    20    2
     7    22    21    2
     8    20    21    1
     9    20    17    1
    10    18    17    1
    11    17    15   am
    12    19    14    1
    13     5     6    1
    14     5     4    2
    15    15    14   am
    16    15    16    2
    17     6     7    2
    18    14    13    1
    19     4     3    1
    20     4     9    1
    21     3     2    1
    22     7    13    1
    23     7     8    1
    24     1     2    1
    25     9     8    2
    26     9    10    1
    27     2    10    1
    28    10    11   am
    29    11    12    2
    30    11    28    1
    31    28    29    2
    32    28    33    1
    33    29    30    1
    34    30    31    2
    35    33    32    2
    36    31    32    1
