@<TRIPOS>MOLECULE
14790_out_ligand_01.pdbqt
 36 41 0 0 0
SMALL
GASTEIGER

@<TRIPOS>ATOM
      1  C         18.8030  -22.5360   -9.6780 C.2     1  UNL1        0.0400
      2  C         17.6300  -22.1580  -10.3480 C.2     1  UNL1        0.0170
      3  C         17.6830  -21.2560  -11.4090 C.2     1  UNL1        0.0010
      4  C         18.9070  -20.7340  -11.8110 C.2     1  UNL1        0.0010
      5  C         20.0830  -21.1230  -11.1650 C.2     1  UNL1        0.0100
      6  C         20.0570  -22.0420  -10.0960 C.2     1  UNL1       -0.0230
      7  C         21.3730  -22.4450   -9.4710 C.3     1  UNL1        0.1850
      8  N         22.5570  -22.2000  -10.2800 N.pl3   1  UNL1       -0.2790
      9  C         22.8630  -22.6180  -11.5410 C.2     1  UNL1        0.1420
     10  C         24.0950  -22.0540  -11.7920 C.2     1  UNL1        0.1010
     11  N         24.4670  -21.2990  -10.7090 N.2     1  UNL1       -0.1580
     12  N         23.5050  -21.3750   -9.8000 N.2     1  UNL1        0.0050
     13  C         24.9010  -22.2050  -12.9910 C.2     1  UNL1       -0.0040
     14  C         26.3010  -22.1920  -12.9460 C.2     1  UNL1        0.0150
     15  C         27.0550  -22.3490  -14.1130 C.2     1  UNL1        0.0140
     16  C         26.4190  -22.5210  -15.3530 C.2     1  UNL1       -0.0080
     17  C         27.1200  -22.6850  -16.5510 C.2     1  UNL1        0.1280
     18  C         25.0120  -22.5320  -15.4180 C.2     1  UNL1       -0.0220
     19  N         26.5420  -22.8510  -17.7630 N.2     1  UNL1       -0.2720
     20  C         25.1940  -22.8520  -17.7890 C.2     1  UNL1        0.1170
     21  C         24.3970  -22.7000  -16.6640 C.2     1  UNL1        0.0310
     22  C         24.2690  -22.3760  -14.2340 C.2     1  UNL1        0.0260
     23  C         18.6430  -23.5220   -8.5850 C.2     1  UNL1        0.2520
     24  N         17.4140  -23.5370   -7.9670 N.am    1  UNL1       -0.3560
     25  H         16.6360  -23.1000   -8.4410 H       1  UNL1        0.1620
     26  O         19.5660  -24.2760   -8.3110 O.2     1  UNL1       -0.2680
     27  C         17.1420  -24.5030   -6.9190 C.3     1  UNL1        0.1340
     28  C         16.9220  -23.8600   -5.5470 C.3     1  UNL1       -0.0000
     29  C         15.4230  -23.8660   -5.1340 C.3     1  UNL1        0.0130
     30  C         14.9970  -22.6490   -4.3070 C.3     1  UNL1        0.0040
     31  C         16.0700  -22.1220   -3.3520 C.3     1  UNL1        0.0380
     32  C         17.5010  -22.3400   -3.8780 C.3     1  UNL1        0.0580
     33  C         18.4650  -21.2930   -3.3440 C.3     1  UNL1        0.0460
     34  O         17.9220  -23.6410   -3.4010 O.3     1  UNL1       -0.3800
     35  C         17.5210  -22.4630   -5.4010 C.3     1  UNL1        0.0510
     36  C         17.7440  -24.5840   -4.4700 C.3     1  UNL1        0.1790
@<TRIPOS>BOND
     1    20    19    2
     2    20    21    1
     3    19    17    1
     4    21    18    2
     5    17    16    2
     6    18    16    1
     7    18    22    1
     8    16    15    1
     9    22    13    2
    10    15    14    2
    11    13    14    1
    12    13    10    1
    13     4     3    2
    14     4     5    1
    15    10     9    2
    16    10    11    1
    17     9     8    1
    18     3     2    1
    19     5     6    2
    20    11    12    2
    21     2     1    2
    22     8    12    1
    23     8     7    1
    24     6     1    1
    25     6     7    1
    26     1    23    1
    27    23    26    2
    28    23    24   am
    29    25    24    1
    30    24    27    1
    31    27    28    1
    32    28    35    1
    33    28    29    1
    34    28    36    1
    35    35    32    1
    36    29    30    1
    37    36    34    1
    38    30    31    1
    39    32    34    1
    40    32    31    1
    41    32    33    1
