@<TRIPOS>MOLECULE
147_out_ligand_01.pdbqt
 35 37 0 0 0
SMALL
GASTEIGER

@<TRIPOS>ATOM
      1  C         20.1770  -23.2440   -9.7460 C.2     1  UNL1        0.0330
      2  C         20.2720  -22.3250  -10.7970 C.2     1  UNL1        0.0170
      3  C         19.1310  -21.6430  -11.2250 C.2     1  UNL1        0.0030
      4  C         17.9030  -21.8790  -10.6030 C.2     1  UNL1        0.0250
      5  C         17.8230  -22.8070   -9.5570 C.2     1  UNL1        0.0750
      6  C         18.9510  -23.5140   -9.1330 C.2     1  UNL1        0.0410
      7  C         21.3890  -23.9370   -9.2760 C.2     1  UNL1        0.2530
      8  N         22.6090  -23.2630   -9.3650 N.am    1  UNL1       -0.3440
      9  C         23.7960  -23.9040   -8.8190 C.3     1  UNL1        0.1530
     10  O         21.2650  -25.0840   -8.8570 O.2     1  UNL1       -0.2670
     11  C         22.7440  -21.8500   -9.7690 C.3     1  UNL1        0.2280
     12  C         23.7850  -21.6130  -10.8780 C.2     1  UNL1        0.2400
     13  N         23.4520  -22.2120  -12.0800 N.am    1  UNL1       -0.3260
     14  H         22.5460  -22.6770  -12.0850 H       1  UNL1        0.1690
     15  O         24.8090  -20.9800  -10.6360 O.2     1  UNL1       -0.2710
     16  C         24.1720  -22.2150  -13.2890 C.2     1  UNL1        0.0370
     17  C         25.2540  -23.0990  -13.3760 C.2     1  UNL1        0.0290
     18  C         26.0190  -23.1680  -14.5390 C.2     1  UNL1        0.0050
     19  C         25.7060  -22.3490  -15.6220 C.2     1  UNL1        0.0370
     20  C         24.6300  -21.4620  -15.5520 C.2     1  UNL1        0.0700
     21  C         23.8650  -21.3970  -14.3830 C.2     1  UNL1        0.0660
     22  O         24.4330  -20.7140  -16.6850 O.2     1  UNL1       -0.3560
     23  C         25.0860  -21.1610  -17.8680 C.3     1  UNL1        0.2100
     24  S         16.2760  -23.0800   -8.7300 S.O2    1  UNL1        0.2450
     25  O         16.3750  -24.3540   -8.0590 O.2     1  UNL1       -0.2060
     26  O         15.2000  -22.7870   -9.6500 O.2     1  UNL1       -0.2060
     27  N         16.3240  -21.9000   -7.5080 N.pl3   1  UNL1       -0.1800
     28  H         17.0720  -21.2390   -7.7400 H       1  UNL1        0.1460
     29  C         16.3380  -22.3740   -6.1540 C.2     1  UNL1        0.0440
     30  C         15.1550  -22.8610   -5.5920 C.2     1  UNL1        0.0260
     31  C         15.1610  -23.3740   -4.2940 C.2     1  UNL1        0.0020
     32  C         16.3480  -23.4110   -3.5590 C.2     1  UNL1        0.0020
     33  C         17.5330  -22.9310   -4.1180 C.2     1  UNL1        0.0260
     34  C         17.5310  -22.4160   -5.4150 C.2     1  UNL1        0.0560
     35 CL         19.0080  -21.8030   -6.0670 Cl      1  UNL1       -0.0820
@<TRIPOS>BOND
     1    23    22    1
     2    22    20    1
     3    19    20    2
     4    19    18    1
     5    20    21    1
     6    18    17    2
     7    21    16    2
     8    17    16    1
     9    16    13    1
    10    14    13    1
    11    13    12   am
    12     3     2    1
    13     3     4    2
    14    12    15    2
    15    12    11    1
    16     2     1    2
    17     4     5    1
    18    11     8    1
    19     1     7    1
    20     1     6    1
    21    26    24    2
    22     5     6    2
    23     5    24    1
    24     8     7   am
    25     8     9    1
    26     7    10    2
    27    24    25    2
    28    24    27    1
    29    28    27    1
    30    27    29    1
    31    29    30    2
    32    29    34    1
    33    35    34    1
    34    30    31    1
    35    34    33    2
    36    31    32    2
    37    33    32    1
