@<TRIPOS>MOLECULE
14805_out_ligand_01.pdbqt
 38 43 0 0 0
SMALL
GASTEIGER

@<TRIPOS>ATOM
      1  C         18.7810  -22.5000  -10.0150 C.2     1  UNL1        0.0400
      2  C         17.6490  -22.1110  -10.7450 C.2     1  UNL1        0.0170
      3  C         17.7740  -21.1990  -11.7900 C.2     1  UNL1        0.0010
      4  C         19.0210  -20.6550  -12.0940 C.2     1  UNL1        0.0010
      5  C         20.1470  -21.0240  -11.3570 C.2     1  UNL1        0.0100
      6  C         20.0470  -21.9490  -10.3010 C.2     1  UNL1       -0.0230
      7  C         18.5590  -23.4800   -8.9270 C.2     1  UNL1        0.2520
      8  N         17.3790  -23.3270   -8.2390 N.am    1  UNL1       -0.3490
      9  H         16.7440  -22.5900   -8.5330 H       1  UNL1        0.1630
     10  O         19.4170  -24.3220   -8.7050 O.2     1  UNL1       -0.2680
     11  C         16.8360  -24.2660   -7.2670 C.3     1  UNL1        0.1140
     12  C         15.5830  -25.0230   -7.7300 C.3     1  UNL1        0.0370
     13  C         16.6750  -23.5990   -5.9010 C.2     1  UNL1       -0.0250
     14  C         15.6010  -24.0170   -5.0830 C.2     1  UNL1        0.0100
     15  C         15.4030  -23.4840   -3.8120 C.2     1  UNL1        0.0020
     16  C         16.2710  -22.5130   -3.3270 C.2     1  UNL1        0.0140
     17  C         17.3290  -22.0460   -4.1220 C.2     1  UNL1       -0.0080
     18  C         18.1910  -21.0520   -3.6490 C.2     1  UNL1        0.1280
     19  C         17.5430  -22.5640   -5.4260 C.2     1  UNL1       -0.0150
     20  N         19.2240  -20.5260   -4.3440 N.2     1  UNL1       -0.2720
     21  C         19.4070  -21.0120   -5.5840 C.2     1  UNL1        0.1170
     22  C         18.6170  -22.0020   -6.1540 C.2     1  UNL1        0.0320
     23  C         21.2940  -22.3230   -9.5350 C.3     1  UNL1        0.1850
     24  N         22.4900  -21.9910  -10.2930 N.pl3   1  UNL1       -0.2790
     25  C         22.7580  -22.2770  -11.6000 C.2     1  UNL1        0.1420
     26  C         24.0580  -21.8600  -11.7710 C.2     1  UNL1        0.1010
     27  N         24.5070  -21.3000  -10.5990 N.2     1  UNL1       -0.1580
     28  N         23.5340  -21.3730   -9.7030 N.2     1  UNL1        0.0050
     29  C         24.8820  -22.0030  -12.9630 C.2     1  UNL1       -0.0040
     30  C         26.2680  -21.7990  -12.9380 C.2     1  UNL1        0.0150
     31  C         27.0290  -21.9230  -14.1060 C.2     1  UNL1        0.0140
     32  C         26.4140  -22.2540  -15.3260 C.2     1  UNL1       -0.0080
     33  C         27.1190  -22.3920  -16.5260 C.2     1  UNL1        0.1280
     34  C         25.0240  -22.4570  -15.3680 C.2     1  UNL1       -0.0220
     35  N         26.5550  -22.7020  -17.7170 N.2     1  UNL1       -0.2720
     36  C         25.2210  -22.8910  -17.7190 C.2     1  UNL1        0.1170
     37  C         24.4230  -22.7810  -16.5910 C.2     1  UNL1        0.0310
     38  C         24.2730  -22.3320  -14.1840 C.2     1  UNL1        0.0260
@<TRIPOS>BOND
     1    36    35    2
     2    36    37    1
     3    35    33    1
     4    37    34    2
     5    33    32    2
     6    34    32    1
     7    34    38    1
     8    32    31    1
     9    38    29    2
    10    31    30    2
    11    29    30    1
    12    29    26    1
    13     4     3    2
    14     4     5    1
    15     3     2    1
    16    26    25    2
    17    26    27    1
    18    25    24    1
    19     5     6    2
    20     2     1    2
    21    27    28    2
    22     6     1    1
    23     6    23    1
    24    24    28    1
    25    24    23    1
    26     1     7    1
    27     7    10    2
    28     7     8   am
    29     9     8    1
    30     8    11    1
    31    12    11    1
    32    11    13    1
    33    22    21    2
    34    22    19    1
    35    13    19    2
    36    13    14    1
    37    21    20    1
    38    19    17    1
    39    14    15    2
    40    20    18    2
    41    17    18    1
    42    17    16    2
    43    15    16    1
