@<TRIPOS>MOLECULE
14819_out_ligand_01.pdbqt
 40 45 0 0 0
SMALL
GASTEIGER

@<TRIPOS>ATOM
      1  C         19.2780  -22.5070  -10.0550 C.2     1  UNL1        0.0400
      2  C         18.1260  -22.2110  -10.8010 C.2     1  UNL1        0.0170
      3  C         18.1820  -21.3030  -11.8560 C.2     1  UNL1        0.0010
      4  C         19.3850  -20.6770  -12.1670 C.2     1  UNL1        0.0010
      5  C         20.5310  -20.9500  -11.4170 C.2     1  UNL1        0.0100
      6  C         20.4980  -21.8610  -10.3430 C.2     1  UNL1       -0.0230
      7  C         19.1060  -23.4980   -8.9620 C.2     1  UNL1        0.2520
      8  O         19.7590  -24.5330   -8.9730 O.2     1  UNL1       -0.2680
      9  N         18.2190  -23.1430   -7.9780 N.am    1  UNL1       -0.3480
     10  H         17.8490  -22.1950   -7.9700 H       1  UNL1        0.1630
     11  C         18.0550  -23.9170   -6.7520 C.3     1  UNL1        0.1250
     12  C         16.6750  -24.6070   -6.7310 C.3     1  UNL1        0.1080
     13  C         15.5830  -23.7090   -6.2470 C.2     1  UNL1        0.1050
     14  N         15.2550  -22.5330   -6.7460 N.2     1  UNL1       -0.2460
     15  C         14.2120  -22.0820   -5.9820 C.2     1  UNL1        0.1350
     16  C         13.8990  -22.9890   -5.0000 C.2     1  UNL1        0.1090
     17  N         14.7820  -24.0180   -5.1720 N.pl3   1  UNL1       -0.3530
     18  H         14.8240  -24.8730   -4.6320 H       1  UNL1        0.1660
     19  C         18.2670  -22.9980   -5.5540 C.2     1  UNL1       -0.0350
     20  C         17.9980  -23.4670   -4.2600 C.2     1  UNL1        0.0090
     21  C         18.1590  -22.6320   -3.1530 C.2     1  UNL1        0.0010
     22  C         18.5990  -21.3210   -3.3260 C.2     1  UNL1        0.0000
     23  C         18.8820  -20.8450   -4.6030 C.2     1  UNL1        0.0010
     24  C         18.7210  -21.6770   -5.7120 C.2     1  UNL1        0.0090
     25  C         21.7600  -22.0800   -9.5430 C.3     1  UNL1        0.1850
     26  N         22.9470  -21.9700  -10.3750 N.pl3   1  UNL1       -0.2790
     27  C         23.1450  -22.4750  -11.6280 C.2     1  UNL1        0.1420
     28  C         24.4200  -22.0640  -11.9580 C.2     1  UNL1        0.1010
     29  N         24.9340  -21.3340  -10.9130 N.2     1  UNL1       -0.1580
     30  N         24.0240  -21.2800   -9.9510 N.2     1  UNL1        0.0050
     31  C         25.1430  -22.3270  -13.1910 C.2     1  UNL1       -0.0040
     32  C         26.4320  -22.8770  -13.1920 C.2     1  UNL1        0.0150
     33  C         27.1040  -23.1190  -14.3950 C.2     1  UNL1        0.0140
     34  C         26.4970  -22.8130  -15.6230 C.2     1  UNL1       -0.0080
     35  C         27.1190  -23.0320  -16.8550 C.2     1  UNL1        0.1280
     36  C         25.2030  -22.2590  -15.6410 C.2     1  UNL1       -0.0220
     37  N         26.5650  -22.7490  -18.0570 N.2     1  UNL1       -0.2720
     38  C         25.3240  -22.2210  -18.0370 C.2     1  UNL1        0.1170
     39  C         24.6130  -21.9610  -16.8760 C.2     1  UNL1        0.0310
     40  C         24.5420  -22.0230  -14.4230 C.2     1  UNL1        0.0260
@<TRIPOS>BOND
     1    37    38    2
     2    37    35    1
     3    38    39    1
     4    39    36    2
     5    35    34    2
     6    36    34    1
     7    36    40    1
     8    34    33    1
     9    40    31    2
    10    33    32    2
    11    32    31    1
    12    31    28    1
    13     4     3    2
    14     4     5    1
    15    28    27    2
    16    28    29    1
    17     3     2    1
    18    27    26    1
    19     5     6    2
    20    29    30    2
    21     2     1    2
    22    26    30    1
    23    26    25    1
    24     6     1    1
    25     6    25    1
    26     1     7    1
    27     8     7    2
    28     7     9   am
    29     9    10    1
    30     9    11    1
    31    11    12    1
    32    11    19    1
    33    14    13    2
    34    14    15    1
    35    12    13    1
    36    13    17    1
    37    15    16    2
    38    24    19    2
    39    24    23    1
    40    19    20    1
    41    17    16    1
    42    17    18    1
    43    23    22    2
    44    20    21    2
    45    22    21    1
