@<TRIPOS>MOLECULE
14818_out_ligand_01.pdbqt
 36 40 0 0 0
SMALL
GASTEIGER

@<TRIPOS>ATOM
      1  C         20.9670  -22.2370  -10.6820 C.2     1  UNL1        0.0340
      2  C         20.6530  -21.0360  -11.3310 C.2     1  UNL1        0.0170
      3  C         19.3210  -20.7120  -11.5810 C.2     1  UNL1        0.0030
      4  C         18.3050  -21.5890  -11.1930 C.2     1  UNL1        0.0300
      5  C         18.6200  -22.7990  -10.5690 C.2     1  UNL1        0.0430
      6  C         19.9500  -23.1240  -10.3080 C.2     1  UNL1        0.0470
      7  C         22.3740  -22.6250  -10.4170 C.2     1  UNL1        0.2520
      8  O         22.6220  -23.6460   -9.7880 O.2     1  UNL1       -0.2680
      9  N         23.3410  -21.7820  -10.9200 N.am    1  UNL1       -0.3510
     10  H         23.0670  -21.0370  -11.5460 H       1  UNL1        0.1630
     11  C         24.7430  -22.1900  -10.9360 C.3     1  UNL1        0.1040
     12  C         25.6700  -20.9820  -11.0210 C.3     1  UNL1        0.0460
     13  C         25.7080  -20.6400  -12.5140 C.3     1  UNL1        0.1260
     14  N         25.3420  -21.8850  -13.1850 N.pl3   1  UNL1       -0.3640
     15  C         25.0980  -22.9580  -12.2240 C.3     1  UNL1        0.1490
     16  C         25.6930  -22.0740  -14.4980 C.2     1  UNL1        0.1250
     17  C         24.9890  -22.9400  -15.3360 C.2     1  UNL1        0.0500
     18  C         25.3680  -23.0890  -16.6710 C.2     1  UNL1        0.0050
     19  C         26.4450  -22.3670  -17.1560 C.2     1  UNL1        0.0190
     20  C         27.0910  -21.5210  -16.2770 C.2     1  UNL1        0.1190
     21  N         26.7370  -21.3630  -14.9810 N.2     1  UNL1       -0.2440
     22  N         17.5550  -23.6720  -10.2120 N.pl3   1  UNL1       -0.2810
     23  H         17.7870  -24.5900   -9.8370 H       1  UNL1        0.1790
     24  S         16.1410  -23.0550   -9.5250 S.O2    1  UNL1        0.2630
     25  O         15.9520  -21.6860   -9.9500 O.2     1  UNL1       -0.2000
     26  O         15.1210  -24.0580   -9.7540 O.2     1  UNL1       -0.2000
     27  C         16.5090  -23.0560   -7.7850 C.2     1  UNL1        0.0800
     28  C         15.9410  -24.0260   -6.9570 C.2     1  UNL1        0.0260
     29  C         16.2340  -24.0170   -5.5930 C.2     1  UNL1        0.0140
     30  C         17.1020  -23.0540   -5.0510 C.2     1  UNL1       -0.0260
     31  C         17.4030  -23.0340   -3.6790 C.2     1  UNL1        0.0120
     32  C         17.6900  -22.0870   -5.9010 C.2     1  UNL1       -0.0250
     33  C         18.2710  -22.0760   -3.1530 C.2     1  UNL1        0.0010
     34  C         18.8510  -21.1270   -3.9910 C.2     1  UNL1        0.0010
     35  C         18.5630  -21.1320   -5.3560 C.2     1  UNL1        0.0120
     36  C         17.3910  -22.1010   -7.2720 C.2     1  UNL1        0.0370
@<TRIPOS>BOND
     1    19    18    2
     2    19    20    1
     3    18    17    1
     4    20    21    2
     5    17    16    2
     6    21    16    1
     7    16    14    1
     8    14    13    1
     9    14    15    1
    10    13    12    1
    11    15    11    1
    12     3     2    1
    13     3     4    2
    14    10     9    1
    15     2     1    2
    16     4     5    1
    17    12    11    1
    18    11     9    1
    19     9     7   am
    20     1     7    1
    21     1     6    1
    22     5     6    2
    23     5    22    1
    24     7     8    2
    25    22    23    1
    26    22    24    1
    27    25    24    2
    28    26    24    2
    29    24    27    1
    30    27    36    2
    31    27    28    1
    32    36    32    1
    33    28    29    2
    34    32    35    1
    35    32    30    2
    36    29    30    1
    37    35    34    2
    38    30    31    1
    39    34    33    1
    40    31    33    2
