@<TRIPOS>MOLECULE
14811_out_ligand_01.pdbqt
 34 37 0 0 0
SMALL
GASTEIGER

@<TRIPOS>ATOM
      1  C         24.8730  -23.2720  -10.3230 C.2     1  UNL1        0.0340
      2  C         24.7450  -22.6680  -11.5780 C.2     1  UNL1        0.0190
      3  C         23.5840  -21.9570  -11.9020 C.2     1  UNL1        0.0270
      4  C         22.5290  -21.8510  -10.9920 C.2     1  UNL1        0.0350
      5  C         22.6940  -22.4270   -9.7010 C.2     1  UNL1        0.0570
      6  C         23.8530  -23.1390   -9.3790 C.2     1  UNL1        0.0480
      7  N         21.6570  -22.1800   -8.7720 N.am    1  UNL1       -0.3210
      8  C         20.8070  -23.0940   -8.1860 C.2     1  UNL1        0.2570
      9  O         20.7030  -24.2790   -8.4720 O.2     1  UNL1       -0.2670
     10  H         21.5480  -21.1970   -8.5490 H       1  UNL1        0.1690
     11  C         19.9230  -22.5200   -7.1440 C.2     1  UNL1        0.0470
     12  C         20.2460  -21.3220   -6.4950 C.2     1  UNL1        0.0370
     13  C         19.3770  -20.8330   -5.5320 C.2     1  UNL1        0.1200
     14  N         18.2160  -21.4110   -5.1530 N.2     1  UNL1       -0.2420
     15  C         17.9640  -22.5670   -5.7910 C.2     1  UNL1        0.1380
     16  N         16.8640  -23.3480   -5.5660 N.pl3   1  UNL1       -0.3500
     17  C         18.7400  -23.1840   -6.7690 C.2     1  UNL1        0.0270
     18  C         16.9030  -24.4520   -6.3770 C.2     1  UNL1        0.0900
     19  H         16.1470  -23.1220   -4.8920 H       1  UNL1        0.1660
     20  C         18.0540  -24.3780   -7.1320 C.2     1  UNL1        0.0330
     21  N         21.3100  -21.1940  -11.2680 N.pl3   1  UNL1       -0.2870
     22  H         20.9080  -20.9100  -10.3730 H       1  UNL1        0.1280
     23  C         20.2780  -21.7960  -12.1130 C.3     1  UNL1        0.1310
     24  C         18.9240  -21.7980  -11.4390 C.2     1  UNL1       -0.0450
     25  C         18.0780  -20.6810  -11.5310 C.2     1  UNL1        0.0080
     26  C         16.8270  -20.6820  -10.9130 C.2     1  UNL1        0.0010
     27  C         16.4030  -21.8000  -10.2010 C.2     1  UNL1        0.0000
     28  C         17.2270  -22.9200  -10.1090 C.2     1  UNL1        0.0010
     29  C         18.4780  -22.9210  -10.7270 C.2     1  UNL1        0.0080
     30  C         26.1010  -24.0190   -9.9520 C.2     1  UNL1        0.2490
     31  N         26.0560  -24.7440   -8.7910 N.am    1  UNL1       -0.3660
     32  H         25.3680  -24.5480   -8.0790 H       1  UNL1        0.1590
     33  H         26.9460  -25.1160   -8.4830 H       1  UNL1        0.1590
     34  O         27.1210  -23.9730  -10.6260 O.2     1  UNL1       -0.2680
@<TRIPOS>BOND
     1    23    24    1
     2    23    21    1
     3     3     2    1
     4     3     4    2
     5     2     1    2
     6    25    24    2
     7    25    26    1
     8    24    29    1
     9    21     4    1
    10    21    22    1
    11     4     5    1
    12    26    27    2
    13    29    28    2
    14    34    30    2
    15     1    30    1
    16     1     6    1
    17    27    28    1
    18    30    31   am
    19     5     6    2
    20     5     7    1
    21    31    33    1
    22    31    32    1
    23     7    10    1
    24     7     8   am
    25     9     8    2
    26     8    11    1
    27    11    17    2
    28    11    12    1
    29    20    17    1
    30    20    18    2
    31    17    15    1
    32    12    13    2
    33    18    16    1
    34    15    16    1
    35    15    14    2
    36    16    19    1
    37    13    14    1
