@<TRIPOS>MOLECULE
14820_out_ligand_01.pdbqt
 36 40 0 0 0
SMALL
GASTEIGER

@<TRIPOS>ATOM
      1  C         18.8760  -22.3550   -9.3600 C.2     1  UNL1        0.0400
      2  C         17.6990  -21.9440  -10.0030 C.2     1  UNL1        0.0170
      3  C         17.7450  -21.4670  -11.3110 C.2     1  UNL1        0.0010
      4  C         18.9650  -21.3950  -11.9790 C.2     1  UNL1        0.0010
      5  C         20.1430  -21.7850  -11.3370 C.2     1  UNL1        0.0100
      6  C         20.1220  -22.2620  -10.0130 C.2     1  UNL1       -0.0230
      7  C         21.4330  -22.6030   -9.3430 C.3     1  UNL1        0.1850
      8  N         22.5800  -22.2660  -10.1650 N.pl3   1  UNL1       -0.2790
      9  C         22.9510  -22.8130  -11.3590 C.2     1  UNL1        0.1420
     10  C         24.1200  -22.1560  -11.6760 C.2     1  UNL1        0.1010
     11  N         24.4150  -21.2650  -10.6710 N.2     1  UNL1       -0.1580
     12  N         23.4750  -21.3570   -9.7400 N.2     1  UNL1        0.0050
     13  C         24.9330  -22.3380  -12.8690 C.2     1  UNL1       -0.0040
     14  C         26.2390  -22.8350  -12.7410 C.2     1  UNL1        0.0160
     15  C         27.0690  -23.0280  -13.8550 C.2     1  UNL1        0.0310
     16  C         26.5470  -22.7090  -15.1140 C.2     1  UNL1        0.0420
     17  N         27.1210  -22.7930  -16.3640 N.pl3   1  UNL1       -0.3650
     18  C         25.2530  -22.2170  -15.2900 C.2     1  UNL1       -0.0070
     19  C         26.2320  -22.3740  -17.3250 C.2     1  UNL1        0.0890
     20  H         28.0630  -23.1170  -16.5400 H       1  UNL1        0.1650
     21  C         25.0650  -22.0130  -16.6890 C.2     1  UNL1        0.0300
     22  C         24.4370  -22.0300  -14.1530 C.2     1  UNL1        0.0270
     23  C         18.7240  -22.8700   -7.9780 C.2     1  UNL1        0.2520
     24  O         18.9290  -24.0530   -7.7540 O.2     1  UNL1       -0.2680
     25  N         18.4050  -21.9140   -7.0430 N.am    1  UNL1       -0.3460
     26  H         18.5170  -20.9510   -7.3150 H       1  UNL1        0.1630
     27  CA        18.4080  -22.1560   -5.5990 C.3     1  UNL1        0.1410
     28  C         18.8450  -20.9520   -4.7330 C.3     1  UNL1        0.1940
     29  O         19.9440  -20.2640   -5.3370 O.3     1  UNL1       -0.3990
     30  H         19.8060  -20.3080   -6.3110 H       1  UNL1        0.2090
     31  C         17.1070  -22.8100   -5.1650 C.2     1  UNL1       -0.0330
     32  C         15.9740  -22.8330   -5.9940 C.2     1  UNL1        0.0090
     33  C         14.7930  -23.4480   -5.5720 C.2     1  UNL1        0.0010
     34  C         14.7300  -24.0620   -4.3230 C.2     1  UNL1        0.0000
     35  C         15.8500  -24.0660   -3.4950 C.2     1  UNL1        0.0010
     36  C         17.0310  -23.4430   -3.9110 C.2     1  UNL1        0.0090
@<TRIPOS>BOND
     1    19    21    2
     2    19    17    1
     3    21    18    1
     4    20    17    1
     5    17    16    1
     6    18    16    2
     7    18    22    1
     8    16    15    1
     9    22    13    2
    10    15    14    2
    11    13    14    1
    12    13    10    1
    13     4     5    2
    14     4     3    1
    15    10     9    2
    16    10    11    1
    17     9     8    1
    18     5     6    1
    19     3     2    2
    20    11    12    2
    21     8    12    1
    22     8     7    1
    23     6     1    2
    24     6     7    1
    25     2     1    1
    26     1    23    1
    27    23    24    2
    28    23    25   am
    29    26    25    1
    30    25    27    1
    31    30    29    1
    32    32    33    1
    33    32    31    2
    34    27    31    1
    35    27    28    1
    36    33    34    2
    37    29    28    1
    38    31    36    1
    39    34    35    1
    40    36    35    2
