@<TRIPOS>MOLECULE
14834_out_ligand_01.pdbqt
 38 42 0 0 0
SMALL
GASTEIGER

@<TRIPOS>ATOM
      1  C         18.8450  -22.3430   -9.9270 C.2     1  UNL1        0.0400
      2  C         17.6740  -22.1250  -10.6710 C.2     1  UNL1        0.0170
      3  C         17.6940  -21.2980  -11.7920 C.2     1  UNL1        0.0010
      4  C         18.8800  -20.6770  -12.1690 C.2     1  UNL1        0.0010
      5  C         20.0440  -20.8700  -11.4210 C.2     1  UNL1        0.0100
      6  C         20.0480  -21.6950  -10.2800 C.2     1  UNL1       -0.0230
      7  C         18.7130  -23.2490   -8.7570 C.2     1  UNL1        0.2520
      8  N         17.6530  -22.9810   -7.9250 N.am    1  UNL1       -0.3490
      9  H         17.2790  -22.0440   -7.9530 H       1  UNL1        0.1630
     10  O         19.5490  -24.1230   -8.5690 O.2     1  UNL1       -0.2680
     11  C         17.4790  -23.6780   -6.6510 C.3     1  UNL1        0.1150
     12  C         16.0550  -24.2230   -6.4710 C.3     1  UNL1        0.0370
     13  C         17.8590  -22.7230   -5.5230 C.2     1  UNL1       -0.0120
     14  C         18.4220  -21.4670   -5.8370 C.2     1  UNL1        0.0530
     15  C         18.8160  -20.5980   -4.8250 C.2     1  UNL1        0.1170
     16  F         19.3380  -19.4060   -5.1430 F       1  UNL1       -0.2060
     17  C         18.6790  -20.9500   -3.4890 C.2     1  UNL1        0.0440
     18  C         18.1260  -22.1860   -3.1600 C.2     1  UNL1        0.0270
     19  C         17.7110  -23.0880   -4.1610 C.2     1  UNL1        0.0180
     20  N         17.1380  -24.3330   -3.8300 N.pl3   1  UNL1       -0.2910
     21  C         18.0680  -25.2390   -3.1530 C.3     1  UNL1        0.1160
     22  C         15.8480  -24.1770   -3.1530 C.3     1  UNL1        0.1160
     23  C         21.3410  -21.8270   -9.5040 C.3     1  UNL1        0.1850
     24  N         22.5580  -21.8050  -10.3030 N.pl3   1  UNL1       -0.2790
     25  C         22.7790  -22.2500  -11.5740 C.2     1  UNL1        0.1420
     26  C         24.1320  -22.0740  -11.7630 C.2     1  UNL1        0.1010
     27  N         24.6760  -21.5670  -10.6090 N.2     1  UNL1       -0.1580
     28  N         23.7060  -21.4230   -9.7160 N.2     1  UNL1        0.0050
     29  C         24.9080  -22.3810  -12.9540 C.2     1  UNL1       -0.0040
     30  C         25.9010  -23.3690  -12.8940 C.2     1  UNL1        0.0150
     31  C         26.6490  -23.7010  -14.0260 C.2     1  UNL1        0.0140
     32  C         26.4150  -23.0510  -15.2480 C.2     1  UNL1       -0.0080
     33  C         27.1210  -23.3510  -16.4160 C.2     1  UNL1        0.1280
     34  C         25.4260  -22.0530  -15.3280 C.2     1  UNL1       -0.0220
     35  N         26.9120  -22.7560  -17.6160 N.2     1  UNL1       -0.2720
     36  C         25.9620  -21.7990  -17.6530 C.2     1  UNL1        0.1170
     37  C         25.2060  -21.4170  -16.5560 C.2     1  UNL1        0.0310
     38  C         24.6850  -21.7260  -14.1760 C.2     1  UNL1        0.0260
@<TRIPOS>BOND
     1    36    35    2
     2    36    37    1
     3    35    33    1
     4    37    34    2
     5    33    32    2
     6    34    32    1
     7    34    38    1
     8    32    31    1
     9    38    29    2
    10    31    30    2
    11    29    30    1
    12    29    26    1
    13     4     3    2
    14     4     5    1
    15     3     2    1
    16    26    25    2
    17    26    27    1
    18    25    24    1
    19     5     6    2
    20     2     1    2
    21    27    28    2
    22    24    28    1
    23    24    23    1
    24     6     1    1
    25     6    23    1
    26     1     7    1
    27     7    10    2
    28     7     8   am
    29     9     8    1
    30     8    11    1
    31    11    12    1
    32    11    13    1
    33    14    13    2
    34    14    15    1
    35    13    19    1
    36    16    15    1
    37    15    17    2
    38    19    20    1
    39    19    18    2
    40    20    22    1
    41    20    21    1
    42    17    18    1
