@<TRIPOS>MOLECULE
14838_out_ligand_01.pdbqt
 29 31 0 0 0
SMALL
GASTEIGER

@<TRIPOS>ATOM
      1  N         20.9240  -22.8260   -9.3780 N.am    1  UNL1       -0.3270
      2  C         20.5040  -24.0710   -8.9380 C.2     1  UNL1        0.2230
      3  O         20.7290  -25.1470   -9.4840 O.2     1  UNL1       -0.2730
      4  H         20.6440  -22.0260   -8.8240 H       1  UNL1        0.1690
      5  C         19.7540  -23.9990   -7.6150 C.3     1  UNL1        0.1170
      6  C         18.8680  -22.7410   -7.5290 C.3     1  UNL1        0.0600
      7  C         18.5290  -22.4440   -6.0660 C.2     1  UNL1       -0.0490
      8  C         18.9040  -21.2120   -5.5040 C.2     1  UNL1        0.0080
      9  C         18.6330  -20.9280   -4.1640 C.2     1  UNL1        0.0010
     10  C         17.9850  -21.8700   -3.3680 C.2     1  UNL1        0.0000
     11  C         17.6110  -23.0970   -3.9090 C.2     1  UNL1        0.0010
     12  C         17.8830  -23.3840   -5.2480 C.2     1  UNL1        0.0080
     13  C         17.6210  -22.7830   -8.4160 C.2     1  UNL1       -0.0490
     14  C         16.5630  -23.6850   -8.2150 C.2     1  UNL1        0.0080
     15  C         15.4430  -23.6710   -9.0530 C.2     1  UNL1        0.0010
     16  C         15.3600  -22.7550  -10.0980 C.2     1  UNL1        0.0000
     17  C         16.3940  -21.8470  -10.3060 C.2     1  UNL1        0.0010
     18  C         17.5140  -21.8600   -9.4720 C.2     1  UNL1        0.0080
     19  C         21.6610  -22.5300  -10.5430 C.2     1  UNL1        0.0340
     20  C         21.0130  -21.7820  -11.5350 C.2     1  UNL1        0.0300
     21  C         21.6740  -21.4460  -12.7220 C.2     1  UNL1        0.0190
     22  C         22.9930  -21.8590  -12.9360 C.2     1  UNL1        0.0320
     23  C         23.6490  -22.5920  -11.9420 C.2     1  UNL1        0.0190
     24  C         22.9840  -22.9270  -10.7550 C.2     1  UNL1        0.0300
     25  C         23.6540  -21.4770  -14.2120 C.2     1  UNL1        0.2490
     26  N         23.2240  -20.3370  -14.8320 N.am    1  UNL1       -0.3660
     27  H         23.7720  -20.0340  -15.6280 H       1  UNL1        0.1590
     28  H         22.6770  -19.6370  -14.3530 H       1  UNL1        0.1590
     29  O         24.5750  -22.1360  -14.6810 O.2     1  UNL1       -0.2680
@<TRIPOS>BOND
     1    27    26    1
     2    26    28    1
     3    26    25   am
     4    29    25    2
     5    25    22    1
     6    22    21    2
     7    22    23    1
     8    21    20    1
     9    23    24    2
    10    20    19    2
    11    24    19    1
    12    19     1    1
    13    17    16    2
    14    17    18    1
    15    16    15    1
    16     3     2    2
    17    18    13    2
    18     1     2   am
    19     1     4    1
    20    15    14    2
    21     2     5    1
    22    13    14    1
    23    13     6    1
    24     5     6    1
    25     6     7    1
    26     7     8    2
    27     7    12    1
    28     8     9    1
    29    12    11    2
    30     9    10    2
    31    11    10    1
