@<TRIPOS>MOLECULE
14846_out_ligand_01.pdbqt
 38 40 0 0 0
SMALL
GASTEIGER

@<TRIPOS>ATOM
      1  C         17.4830  -23.1430   -5.5740 C.2     1  UNL1        0.0360
      2  C         17.4720  -23.7350   -4.3110 C.2     1  UNL1        0.0290
      3  C         16.3390  -23.6490   -3.4950 C.2     1  UNL1        0.0040
      4  C         15.2050  -22.9710   -3.9380 C.2     1  UNL1        0.0230
      5  C         15.2040  -22.3750   -5.2000 C.2     1  UNL1        0.0460
      6  C         14.0420  -21.6790   -5.6690 C.1     1  UNL1        0.0990
      7  N         13.1020  -21.1180   -6.0550 N.1     1  UNL1       -0.1910
      8  C         16.3410  -22.4600   -6.0130 C.2     1  UNL1        0.0520
      9  N         18.5780  -23.1860   -6.4590 N.am    1  UNL1       -0.3260
     10  C         19.5460  -22.2110   -6.6600 C.2     1  UNL1        0.2310
     11  O         19.5950  -21.1160   -6.1070 O.2     1  UNL1       -0.2720
     12  H         18.7190  -24.0790   -6.9370 H       1  UNL1        0.1690
     13  C         20.6120  -22.6330   -7.6610 C.3     1  UNL1        0.1820
     14  S         19.9330  -23.6870   -8.9940 S.3     1  UNL1       -0.1200
     15  C         18.9790  -22.5220   -9.9610 C.2     1  UNL1        0.0160
     16  C         17.5870  -22.5610   -9.8000 C.2     1  UNL1        0.0190
     17  C         16.7570  -21.6840  -10.5060 C.2     1  UNL1        0.0010
     18  C         17.3050  -20.7550  -11.3880 C.2     1  UNL1        0.0010
     19  C         18.6840  -20.7070  -11.5720 C.2     1  UNL1        0.0180
     20  C         19.5110  -21.5980  -10.8720 C.2     1  UNL1        0.0490
     21  C         20.9610  -21.4760  -11.1020 C.2     1  UNL1        0.2570
     22  N         21.3660  -21.8590  -12.3610 N.am    1  UNL1       -0.3230
     23  H         20.6460  -22.2270  -12.9750 H       1  UNL1        0.1690
     24  O         21.6430  -21.0800  -10.1630 O.2     1  UNL1       -0.2670
     25  C         22.6780  -21.8500  -12.8720 C.2     1  UNL1        0.0360
     26  C         23.0360  -21.2720  -14.0900 C.2     1  UNL1        0.0320
     27  C         24.3640  -21.3060  -14.5360 C.2     1  UNL1        0.0400
     28  C         25.3610  -21.9110  -13.7650 C.2     1  UNL1        0.0910
     29  C         24.9990  -22.5020  -12.5530 C.2     1  UNL1        0.1090
     30  C         23.6670  -22.4720  -12.1070 C.2     1  UNL1        0.0570
     31  O         26.6600  -22.0110  -14.1790 O.2     1  UNL1       -0.3540
     32  C         27.1210  -20.9620  -15.0290 C.3     1  UNL1        0.2100
     33  S         26.1950  -23.2990  -11.5150 S.O2    1  UNL1        0.2420
     34  O         27.1210  -22.2850  -11.0580 O.2     1  UNL1       -0.2060
     35  O         26.6350  -24.4950  -12.1920 O.2     1  UNL1       -0.2060
     36  N         25.3390  -23.7440  -10.1390 N.3     1  UNL1       -0.2250
     37  H         25.8330  -23.4460   -9.2990 H       1  UNL1        0.1360
     38  H         24.3600  -23.4550  -10.1810 H       1  UNL1        0.1360
@<TRIPOS>BOND
     1    32    31    1
     2    27    26    1
     3    27    28    2
     4    31    28    1
     5    26    25    2
     6    28    29    1
     7    23    22    1
     8    25    22    1
     9    25    30    1
    10    29    30    2
    11    29    33    1
    12    22    21   am
    13    35    33    2
    14    19    18    2
    15    19    20    1
    16    33    34    2
    17    33    36    1
    18    18    17    1
    19    21    20    1
    20    21    24    2
    21    20    15    2
    22    17    16    2
    23    38    36    1
    24    36    37    1
    25    15    16    1
    26    15    14    1
    27    14    13    1
    28    13    10    1
    29    12     9    1
    30    10     9   am
    31    10    11    2
    32     9     1    1
    33     7     6    3
    34     8     1    2
    35     8     5    1
    36     6     5    1
    37     1     2    1
    38     5     4    2
    39     2     3    2
    40     4     3    1
