@<TRIPOS>MOLECULE
14859_out_ligand_01.pdbqt
 26 28 0 0 0
SMALL
GASTEIGER

@<TRIPOS>ATOM
      1  C         19.1570  -23.3830   -8.4780 C.2     1  UNL1        0.2800
      2  O         19.7890  -24.4300   -8.5560 O.2     1  UNL1       -0.2650
      3  N         19.3520  -22.2670   -9.2730 N.am    1  UNL1       -0.3210
      4  H         18.7290  -21.4910   -9.0660 H       1  UNL1        0.1690
      5  C         18.0880  -23.1910   -7.5070 C.ar    1  UNL1        0.1500
      6  C         16.7100  -23.3260   -7.6120 C.ar    1  UNL1       -0.0090
      7  C         15.9540  -23.7290   -8.8260 C.3     1  UNL1        0.0520
      8  C         16.1790  -23.0030   -6.3240 C.ar    1  UNL1        0.0080
      9  C         14.8920  -22.9410   -5.7540 C.2     1  UNL1        0.0150
     10  C         17.2710  -22.6910   -5.5210 C.ar    1  UNL1        0.1080
     11  C         14.7580  -22.5700   -4.4070 C.2     1  UNL1        0.0030
     12  C         15.8790  -22.2630   -3.6330 C.2     1  UNL1        0.0270
     13  C         17.1630  -22.3190   -4.1800 C.2     1  UNL1        0.0680
     14 CL         18.5410  -21.9430   -3.2300 Cl      1  UNL1       -0.0810
     15  O         18.4240  -22.8050   -6.2360 O.2     1  UNL1       -0.3020
     16  C         20.2860  -22.0790  -10.3070 C.2     1  UNL1        0.0350
     17  C         21.5870  -22.5830  -10.2870 C.2     1  UNL1        0.0300
     18  C         22.4560  -22.3490  -11.3610 C.2     1  UNL1        0.0190
     19  C         22.0290  -21.6150  -12.4720 C.2     1  UNL1        0.0320
     20  C         20.7310  -21.0970  -12.4920 C.2     1  UNL1        0.0190
     21  C         19.8680  -21.3310  -11.4160 C.2     1  UNL1        0.0300
     22  C         22.9880  -21.3950  -13.5870 C.2     1  UNL1        0.2490
     23  N         22.7170  -20.3770  -14.4600 N.am    1  UNL1       -0.3660
     24  H         23.3100  -20.3400  -15.2800 H       1  UNL1        0.1590
     25  H         21.7950  -19.9760  -14.5420 H       1  UNL1        0.1590
     26  O         23.9670  -22.1120  -13.7480 O.2     1  UNL1       -0.2680
@<TRIPOS>BOND
     1    24    23    1
     2    25    23    1
     3    23    22   am
     4    26    22    2
     5    22    19    1
     6    20    19    2
     7    20    21    1
     8    19    18    1
     9    21    16    2
    10    18    17    2
    11    16    17    1
    12    16     3    1
    13     3     4    1
    14     3     1   am
    15     7     6    1
    16     2     1    2
    17     1     5    1
    18     6     5   ar
    19     6     8   ar
    20     5    15   ar
    21     8     9    2
    22     8    10   ar
    23    15    10   ar
    24     9    11    1
    25    10    13    2
    26    11    12    2
    27    13    12    1
    28    13    14    1
