@<TRIPOS>MOLECULE
14853_out_ligand_01.pdbqt
 33 36 0 0 0
SMALL
GASTEIGER

@<TRIPOS>ATOM
      1  C         23.1870  -22.0340  -11.4010 C.2     1  UNL1        0.0800
      2  C         21.8750  -22.1420  -11.8630 C.2     1  UNL1        0.0270
      3  C         20.8300  -22.2490  -10.9410 C.2     1  UNL1        0.0310
      4  C         21.0840  -22.2400   -9.5620 C.2     1  UNL1        0.0350
      5  C         22.4030  -22.1190   -9.1160 C.2     1  UNL1        0.0310
      6  C         23.4560  -22.0100  -10.0310 C.2     1  UNL1        0.0270
      7  N         19.9710  -22.3530   -8.7080 N.am    1  UNL1       -0.3210
      8  C         19.4080  -23.4980   -8.1720 C.2     1  UNL1        0.2800
      9  O         19.8020  -24.6420   -8.3670 O.2     1  UNL1       -0.2650
     10  H         19.5060  -21.4930   -8.4400 H       1  UNL1        0.1690
     11  C         18.2590  -23.2050   -7.3260 C.ar    1  UNL1        0.1500
     12  O         18.4490  -23.1200   -5.9690 O.2     1  UNL1       -0.3040
     13  C         17.2450  -22.8420   -5.4080 C.ar    1  UNL1        0.0870
     14  C         17.0120  -22.6780   -4.0430 C.2     1  UNL1        0.0380
     15  C         16.2640  -22.7430   -6.3860 C.ar    1  UNL1        0.0070
     16  C         15.6970  -22.3950   -3.6630 C.2     1  UNL1        0.0030
     17  C         14.6800  -22.2860   -4.6130 C.2     1  UNL1        0.0010
     18  C         14.9470  -22.4570   -5.9790 C.2     1  UNL1        0.0150
     19  C         16.9220  -22.9790   -7.6320 C.ar    1  UNL1       -0.0090
     20  C         16.3150  -22.9850   -8.9870 C.3     1  UNL1        0.0520
     21  S         24.5280  -21.8700  -12.5540 S.O2    1  UNL1        0.2760
     22  O         25.4910  -20.9200  -12.0370 O.2     1  UNL1       -0.2000
     23  O         24.9480  -23.2180  -12.8860 O.2     1  UNL1       -0.2000
     24  N         23.8070  -21.2660  -13.9200 N.pl3   1  UNL1       -0.1090
     25  H         22.8390  -21.5440  -14.0320 H       1  UNL1        0.1980
     26  C         24.5340  -21.3110  -15.1030 C.cat   1  UNL1        0.7360
     27  N         25.4010  -20.3340  -15.3680 N.2     1  UNL1       -0.0670
     28  C         25.9550  -20.3530  -16.5950 C.2     1  UNL1        0.0510
     29  C         25.6160  -21.2990  -17.5440 C.2     1  UNL1        0.0540
     30  C         26.9620  -19.2890  -16.9110 C.3     1  UNL1        0.0710
     31  C         24.6630  -22.2330  -17.1780 C.2     1  UNL1        0.0510
     32  C         24.2220  -23.2830  -18.1520 C.3     1  UNL1        0.0710
     33  N         24.0920  -22.2380  -15.9560 N.2     1  UNL1       -0.0670
@<TRIPOS>BOND
     1    32    31    1
     2    29    31    1
     3    29    28    2
     4    31    33    2
     5    30    28    1
     6    28    27    1
     7    33    26    1
     8    27    26    2
     9    26    24    1
    10    25    24    1
    11    24    21    1
    12    23    21    2
    13    21    22    2
    14    21     1    1
    15     2     1    2
    16     2     3    1
    17     1     6    1
    18     3     4    2
    19     6     5    2
    20     4     5    1
    21     4     7    1
    22    20    19    1
    23     7    10    1
    24     7     8   am
    25     9     8    2
    26     8    11    1
    27    19    11   ar
    28    19    15   ar
    29    11    12   ar
    30    15    18    1
    31    15    13   ar
    32    18    17    2
    33    12    13   ar
    34    13    14    1
    35    17    16    1
    36    14    16    2
