@<TRIPOS>MOLECULE
14852_out_ligand_01.pdbqt
 34 37 0 0 0
SMALL
GASTEIGER

@<TRIPOS>ATOM
      1  C         19.4390  -22.4960  -10.0810 C.2     1  UNL1        0.0320
      2  C         19.9930  -21.8910  -11.2180 C.2     1  UNL1        0.0190
      3  C         21.3200  -22.1530  -11.5730 C.2     1  UNL1        0.0310
      4  C         22.0910  -23.0200  -10.7990 C.2     1  UNL1        0.0420
      5  C         21.5420  -23.6400   -9.6790 C.2     1  UNL1        0.0310
      6  C         20.2170  -23.3800   -9.3210 C.2     1  UNL1        0.0190
      7  N         23.4230  -23.3250  -11.1840 N.pl3   1  UNL1       -0.2810
      8  H         23.7640  -24.2670  -10.9990 H       1  UNL1        0.1790
      9  S         24.6240  -22.1820  -10.8450 S.O2    1  UNL1        0.2630
     10  O         24.0940  -21.1730   -9.9540 O.2     1  UNL1       -0.2000
     11  O         25.8070  -22.9390  -10.4950 O.2     1  UNL1       -0.2000
     12  C         24.9160  -21.4460  -12.4350 C.2     1  UNL1        0.0820
     13  C         25.7390  -20.2950  -12.5180 C.2     1  UNL1        0.0280
     14  C         25.9830  -19.6800  -13.7520 C.2     1  UNL1        0.0330
     15  C         25.3800  -20.2460  -14.8520 C.ar    1  UNL1        0.0630
     16  N         25.4350  -19.8670  -16.1870 N.ar    1  UNL1       -0.3070
     17  C         24.5610  -21.3740  -14.7590 C.ar    1  UNL1        0.0640
     18  C         24.6510  -20.7510  -16.9420 C.ar    1  UNL1        0.3250
     19  H         25.9370  -19.0890  -16.5840 H       1  UNL1        0.1700
     20  O         24.4710  -20.7160  -18.1450 O.2     1  UNL1       -0.2470
     21  N         24.1160  -21.6830  -16.0400 N.ar    1  UNL1       -0.3060
     22  H         23.5070  -22.4390  -16.3120 H       1  UNL1        0.1700
     23  C         24.2990  -21.9990  -13.5650 C.2     1  UNL1        0.0570
     24  C         18.0280  -22.2600   -9.6650 C.2     1  UNL1        0.2510
     25  O         17.2520  -21.6930  -10.4260 O.2     1  UNL1       -0.2680
     26  N         17.6670  -22.7420   -8.4250 N.am    1  UNL1       -0.3530
     27  H         18.2750  -23.4000   -7.9600 H       1  UNL1        0.1630
     28  C         16.2950  -22.6910   -7.9710 C.3     1  UNL1        0.1610
     29  C         16.2310  -22.5120   -6.4780 C.2     1  UNL1       -0.0380
     30  C         14.9960  -22.4810   -5.8210 C.2     1  UNL1        0.0280
     31  C         14.9790  -22.3420   -4.4430 C.2     1  UNL1        0.1160
     32  N         16.0920  -22.2370   -3.6850 N.2     1  UNL1       -0.2730
     33  C         17.2730  -22.2740   -4.3360 C.2     1  UNL1        0.1160
     34  C         17.3950  -22.4120   -5.7110 C.2     1  UNL1        0.0280
@<TRIPOS>BOND
     1    20    18    2
     2    18    16   ar
     3    18    21   ar
     4    19    16    1
     5    22    21    1
     6    16    15   ar
     7    21    17   ar
     8    15    17   ar
     9    15    14    1
    10    17    23    1
    11    14    13    2
    12    23    12    2
    13    13    12    1
    14    12     9    1
    15     3     2    1
    16     3     4    2
    17     2     1    2
    18     7     8    1
    19     7     9    1
    20     7     4    1
    21     9    11    2
    22     9    10    2
    23     4     5    1
    24    25    24    2
    25     1    24    1
    26     1     6    1
    27     5     6    2
    28    24    26   am
    29    26    28    1
    30    26    27    1
    31    28    29    1
    32    29    30    2
    33    29    34    1
    34    30    31    1
    35    34    33    2
    36    31    32    2
    37    33    32    1
