@<TRIPOS>MOLECULE
14857_out_ligand_01.pdbqt
 36 40 0 0 0
SMALL
GASTEIGER

@<TRIPOS>ATOM
      1  O         22.0450  -23.6580  -10.1290 O.2     1  UNL1       -0.2670
      2  C         21.5920  -22.6970  -10.7370 C.2     1  UNL1        0.2560
      3  N         22.2900  -21.8440  -11.5740 N.am    1  UNL1       -0.3230
      4  H         21.8320  -20.9780  -11.8270 H       1  UNL1        0.1690
      5  C         20.1630  -22.3350  -10.5380 C.2     1  UNL1        0.0340
      6  C         19.4190  -21.7630  -11.5710 C.2     1  UNL1        0.0170
      7  C         18.0800  -21.4580  -11.3530 C.2     1  UNL1        0.0030
      8  C         17.4880  -21.7280  -10.1120 C.2     1  UNL1        0.0300
      9  C         18.2110  -22.3090   -9.0560 C.2     1  UNL1        0.0460
     10  C         19.5610  -22.6140   -9.2990 C.2     1  UNL1        0.0470
     11  N         17.5980  -22.5850   -7.7940 N.am    1  UNL1       -0.2440
     12  C         18.0540  -22.1270   -6.5720 C.2     1  UNL1        0.2660
     13  O         19.0090  -21.4350   -6.2650 O.2     1  UNL1       -0.2670
     14  C         17.1360  -22.6240   -5.5520 C.2     1  UNL1        0.0480
     15  C         17.1400  -22.4450   -4.1810 C.2     1  UNL1        0.0180
     16  C         16.1710  -23.3700   -6.1870 C.2     1  UNL1        0.0480
     17  C         16.1150  -23.0550   -3.4520 C.2     1  UNL1        0.0010
     18  C         15.1260  -23.8200   -4.1020 C.2     1  UNL1        0.0010
     19  C         15.1480  -23.9880   -5.4890 C.2     1  UNL1        0.0180
     20  C         16.4700  -23.3630   -7.6150 C.2     1  UNL1        0.2660
     21  O         15.7920  -24.0070   -8.3950 O.2     1  UNL1       -0.2670
     22  C         23.6340  -21.9790  -11.9790 C.2     1  UNL1        0.0360
     23  C         24.6250  -21.7100  -11.0250 C.2     1  UNL1        0.0290
     24  C         25.9790  -21.8360  -11.3470 C.2     1  UNL1        0.0040
     25  C         26.3570  -22.2320  -12.6280 C.2     1  UNL1        0.0250
     26  C         25.3700  -22.4970  -13.5810 C.2     1  UNL1        0.0810
     27  C         24.0150  -22.3450  -13.2700 C.2     1  UNL1        0.0540
     28  S         25.8480  -22.9570  -15.2360 S.O2    1  UNL1        0.2600
     29  O         27.1190  -23.6440  -15.1540 O.2     1  UNL1       -0.2000
     30  O         24.6990  -23.5940  -15.8480 O.2     1  UNL1       -0.2000
     31  N         26.0860  -21.4630  -16.0050 N.3     1  UNL1       -0.3070
     32  C         24.9170  -20.8180  -16.6260 C.3     1  UNL1        0.1350
     33  C         25.3870  -19.9170  -17.7670 C.3     1  UNL1        0.0210
     34  C         26.6320  -19.0970  -17.4190 C.3     1  UNL1        0.0030
     35  C         26.9200  -19.1080  -15.9240 C.3     1  UNL1        0.0210
     36  C         27.0710  -20.5350  -15.3940 C.3     1  UNL1        0.1350
@<TRIPOS>BOND
     1    33    34    1
     2    33    32    1
     3    34    35    1
     4    32    31    1
     5    31    36    1
     6    31    28    1
     7    35    36    1
     8    30    28    2
     9    28    29    2
    10    28    26    1
    11    26    27    1
    12    26    25    2
    13    27    22    2
    14    25    24    1
    15    22     3    1
    16    22    23    1
    17     4     3    1
    18     3     2   am
    19     6     7    1
    20     6     5    2
    21     7     8    2
    22    24    23    2
    23     2     5    1
    24     2     1    2
    25     5    10    1
    26     8     9    1
    27    10     9    2
    28     9    11    1
    29    21    20    2
    30    11    20   am
    31    11    12   am
    32    20    16    1
    33    12    13    2
    34    12    14    1
    35    16    14    2
    36    16    19    1
    37    14    15    1
    38    19    18    2
    39    15    17    2
    40    18    17    1
