@<TRIPOS>MOLECULE
14875_out_ligand_01.pdbqt
 33 36 0 0 0
SMALL
GASTEIGER

@<TRIPOS>ATOM
      1  N         24.4750  -21.5600  -14.0840 N.am    1  UNL1       -0.2430
      2  C         24.9260  -22.4460  -13.1290 C.2     1  UNL1        0.2660
      3  O         25.9390  -23.1170  -13.0520 O.2     1  UNL1       -0.2670
      4  C         23.8670  -22.5730  -12.1320 C.2     1  UNL1        0.0480
      5  C         23.8160  -23.3110  -10.9650 C.2     1  UNL1        0.0190
      6  C         22.6330  -23.2500  -10.2190 C.2     1  UNL1        0.0180
      7  C         21.5370  -22.4600  -10.6450 C.2     1  UNL1        0.0330
      8  C         21.6110  -21.7390  -11.8450 C.2     1  UNL1        0.0350
      9  C         22.7970  -21.8170  -12.5570 C.2     1  UNL1        0.0490
     10  C         23.1730  -21.1890  -13.8180 C.2     1  UNL1        0.2660
     11  O         22.3950  -20.4630  -14.4120 O.2     1  UNL1       -0.2670
     12  C         20.3040  -22.4560   -9.8050 C.2     1  UNL1        0.2560
     13  O         19.2470  -22.1580  -10.3470 O.2     1  UNL1       -0.2670
     14  N         20.4860  -22.8260   -8.4850 N.am    1  UNL1       -0.3230
     15  H         21.4030  -23.1560   -8.2150 H       1  UNL1        0.1690
     16  C         19.5060  -22.8770   -7.4700 C.2     1  UNL1        0.0350
     17  C         18.7110  -24.0300   -7.4060 C.2     1  UNL1        0.0300
     18  C         17.7200  -24.1660   -6.4260 C.2     1  UNL1        0.0190
     19  C         17.5170  -23.1480   -5.4910 C.2     1  UNL1        0.0320
     20  C         18.2990  -21.9910   -5.5580 C.2     1  UNL1        0.0190
     21  C         19.2920  -21.8600   -6.5380 C.2     1  UNL1        0.0300
     22  C         16.4760  -23.2380   -4.4320 C.2     1  UNL1        0.2490
     23  N         16.1170  -22.0780   -3.8020 N.am    1  UNL1       -0.3660
     24  H         16.3080  -21.1720   -4.2040 H       1  UNL1        0.1590
     25  H         15.3140  -22.1490   -3.1890 H       1  UNL1        0.1590
     26  O         15.9280  -24.2960   -4.1540 O.2     1  UNL1       -0.2680
     27  C         25.1870  -21.1880  -15.2600 C.2     1  UNL1        0.0510
     28  C         25.9950  -20.0320  -15.2210 C.2     1  UNL1        0.0310
     29  C         26.6750  -19.5700  -16.3490 C.2     1  UNL1        0.0020
     30  C         26.5710  -20.2560  -17.5480 C.2     1  UNL1        0.0010
     31  C         25.8070  -21.4180  -17.6070 C.2     1  UNL1        0.0090
     32  C         25.1330  -21.9150  -16.4720 C.2     1  UNL1       -0.0350
     33  C         24.4380  -23.2400  -16.6420 C.3     1  UNL1        0.0500
@<TRIPOS>BOND
     1    31    30    2
     2    31    32    1
     3    30    29    1
     4    33    32    1
     5    32    27    2
     6    29    28    2
     7    27    28    1
     8    27     1    1
     9    11    10    2
    10     1    10   am
    11     1     2   am
    12    10     9    1
    13     2     3    2
    14     2     4    1
    15     9     4    2
    16     9     8    1
    17     4     5    1
    18     8     7    2
    19     5     6    2
    20     7     6    1
    21     7    12    1
    22    13    12    2
    23    12    14   am
    24    14    15    1
    25    14    16    1
    26    16    17    2
    27    16    21    1
    28    17    18    1
    29    21    20    2
    30    18    19    2
    31    20    19    1
    32    19    22    1
    33    22    26    2
    34    22    23   am
    35    24    23    1
    36    23    25    1
