@<TRIPOS>MOLECULE
14886_out_ligand_01.pdbqt
 33 36 0 0 0
SMALL
GASTEIGER

@<TRIPOS>ATOM
      1  C         19.2320  -22.2370  -10.0810 C.2     1  UNL1        0.0330
      2  C         18.3420  -21.5040  -10.8800 C.2     1  UNL1        0.0170
      3  C         16.9680  -21.5440  -10.6290 C.2     1  UNL1        0.0030
      4  C         16.4740  -22.3280   -9.5870 C.2     1  UNL1        0.0250
      5  C         17.3620  -23.0790   -8.8110 C.2     1  UNL1        0.0760
      6  C         18.7400  -23.0390   -9.0460 C.2     1  UNL1        0.0410
      7  C         20.6880  -22.1640  -10.3900 C.2     1  UNL1        0.2560
      8  N         21.0020  -22.2180  -11.7360 N.am    1  UNL1       -0.3230
      9  H         20.2460  -22.4120  -12.3800 H       1  UNL1        0.1690
     10  O         21.4720  -22.0910   -9.4520 O.2     1  UNL1       -0.2670
     11  C         22.2830  -22.1170  -12.3180 C.2     1  UNL1        0.0350
     12  C         22.4200  -21.2620  -13.4200 C.2     1  UNL1        0.0300
     13  C         23.6570  -21.0990  -14.0550 C.2     1  UNL1        0.0190
     14  C         24.7770  -21.7960  -13.5920 C.2     1  UNL1        0.0320
     15  C         24.6490  -22.6360  -12.4810 C.2     1  UNL1        0.0190
     16  C         23.4080  -22.7980  -11.8510 C.2     1  UNL1        0.0300
     17  C         26.1150  -21.6570  -14.2260 C.2     1  UNL1        0.2490
     18  N         27.0050  -22.6810  -14.0460 N.am    1  UNL1       -0.3660
     19  H         27.9470  -22.4970  -14.3710 H       1  UNL1        0.1590
     20  H         26.8990  -23.3540  -13.3020 H       1  UNL1        0.1590
     21  O         26.4300  -20.6580  -14.8560 O.2     1  UNL1       -0.2680
     22  S         16.7110  -24.0870   -7.4940 S.O2    1  UNL1        0.2480
     23  O         17.8510  -24.7440   -6.8920 O.2     1  UNL1       -0.2050
     24  O         15.6070  -24.8510   -8.0420 O.2     1  UNL1       -0.2050
     25  N         16.0770  -22.9100   -6.4340 N.pl3   1  UNL1       -0.1710
     26  C         14.9020  -23.3440   -5.5980 C.3     1  UNL1        0.1180
     27  C         15.3420  -23.2770   -4.1270 C.3     1  UNL1        0.0560
     28  C         16.6010  -22.4820   -4.2030 C.2     1  UNL1       -0.0350
     29  C         17.3520  -21.9750   -3.1540 C.2     1  UNL1        0.0090
     30  C         17.0230  -22.3390   -5.5210 C.2     1  UNL1        0.0310
     31  C         18.5340  -21.2940   -3.4540 C.2     1  UNL1        0.0010
     32  C         18.9470  -21.1350   -4.7860 C.2     1  UNL1        0.0020
     33  C         18.1850  -21.6560   -5.8340 C.2     1  UNL1        0.0250
@<TRIPOS>BOND
     1    21    17    2
     2    19    18    1
     3    17    18   am
     4    17    14    1
     5    13    14    2
     6    13    12    1
     7    18    20    1
     8    14    15    1
     9    12    11    2
    10    15    16    2
    11     9     8    1
    12    11    16    1
    13    11     8    1
    14     8     7   am
    15     2     3    1
    16     2     1    2
    17     3     4    2
    18     7     1    1
    19     7    10    2
    20     1     6    1
    21     4     5    1
    22     6     5    2
    23     5    22    1
    24    24    22    2
    25    22    23    2
    26    22    25    1
    27    25    26    1
    28    25    30    1
    29    33    30    1
    30    33    32    2
    31    26    27    1
    32    30    28    2
    33    32    31    1
    34    28    27    1
    35    28    29    1
    36    31    29    2
