@<TRIPOS>MOLECULE
14916_out_ligand_01.pdbqt
 34 37 0 0 0
SMALL
GASTEIGER

@<TRIPOS>ATOM
      1  C         18.7430  -22.3840  -10.1010 C.2     1  UNL1        0.0830
      2  C         20.1070  -22.7370  -10.1610 C.2     1  UNL1        0.0540
      3  C         20.9520  -22.1480  -11.0990 C.2     1  UNL1        0.0360
      4  C         20.4300  -21.1810  -11.9610 C.2     1  UNL1        0.0300
      5  C         19.0800  -20.8250  -11.9050 C.2     1  UNL1        0.0100
      6  C         18.2090  -21.4270  -10.9840 C.2     1  UNL1       -0.0390
      7  C         16.7720  -20.9910  -10.9810 C.3     1  UNL1        0.0500
      8  N         22.3170  -22.4570  -11.2390 N.am    1  UNL1       -0.3250
      9  C         23.3920  -21.9250  -10.5430 C.2     1  UNL1        0.2540
     10  O         23.3290  -21.1220   -9.6180 O.2     1  UNL1       -0.2700
     11  H         22.5630  -23.1340  -11.9540 H       1  UNL1        0.1690
     12  C         24.7330  -22.5490  -10.9770 C.3     1  UNL1        0.2450
     13  C         25.8930  -21.5760  -10.7960 C.3     1  UNL1        0.2180
     14  O         25.8450  -20.5030  -11.7440 O.2     1  UNL1       -0.3450
     15  C         25.5590  -20.9510  -13.0040 C.2     1  UNL1        0.1020
     16  C         25.8070  -20.0690  -14.0520 C.2     1  UNL1        0.0390
     17  C         25.0300  -22.2170  -13.2670 C.2     1  UNL1        0.1030
     18  C         25.5590  -20.4620  -15.3680 C.2     1  UNL1        0.0030
     19  C         25.0580  -21.7370  -15.6330 C.2     1  UNL1        0.0030
     20  C         24.7940  -22.6160  -14.5820 C.2     1  UNL1        0.0400
     21  O         24.7090  -23.1200  -12.2890 O.2     1  UNL1       -0.3310
     22  S         17.7520  -23.1800   -8.8360 S.O2    1  UNL1        0.2460
     23  O         16.5580  -23.7100   -9.4610 O.2     1  UNL1       -0.2060
     24  O         18.6120  -24.0550   -8.0670 O.2     1  UNL1       -0.2060
     25  N         17.3170  -21.9080   -7.8120 N.pl3   1  UNL1       -0.1790
     26  H         16.8030  -21.1910   -8.3260 H       1  UNL1        0.1460
     27  C         16.7260  -22.2330   -6.5470 C.2     1  UNL1        0.0560
     28  C         15.3830  -22.5980   -6.4670 C.2     1  UNL1        0.0270
     29  C         14.8140  -22.8690   -5.2230 C.2     1  UNL1        0.0020
     30  C         15.5890  -22.7790   -4.0670 C.2     1  UNL1        0.0030
     31  C         16.9370  -22.4180   -4.1480 C.2     1  UNL1        0.0380
     32  C         17.5160  -22.1400   -5.3880 C.2     1  UNL1        0.0900
     33  O         18.8250  -21.7690   -5.5910 O.2     1  UNL1       -0.3540
     34  C         19.2120  -20.4890   -5.1110 C.3     1  UNL1        0.2100
@<TRIPOS>BOND
     1    19    18    2
     2    19    20    1
     3    18    16    1
     4    20    17    2
     5    16    15    2
     6    17    15    1
     7    17    21    1
     8    15    14    1
     9    21    12    1
    10     4     5    2
    11     4     3    1
    12    11     8    1
    13     5     6    1
    14    14    13    1
    15     8     3    1
    16     8     9   am
    17     3     2    2
    18     6     7    1
    19     6     1    2
    20    12    13    1
    21    12     9    1
    22     9    10    2
    23     2     1    1
    24     1    22    1
    25    23    22    2
    26    22    24    2
    27    22    25    1
    28    26    25    1
    29    25    27    1
    30    27    28    2
    31    27    32    1
    32    28    29    1
    33    33    32    1
    34    33    34    1
    35    32    31    2
    36    29    30    2
    37    31    30    1
