@<TRIPOS>MOLECULE
14928_out_ligand_01.pdbqt
 34 36 0 0 0
SMALL
GASTEIGER

@<TRIPOS>ATOM
      1  C         17.9920  -23.7850   -8.1500 C.2     1  UNL1        0.0750
      2  C         17.6600  -22.9430   -9.2180 C.2     1  UNL1        0.0260
      3  C         18.6710  -22.4320  -10.0330 C.2     1  UNL1        0.0180
      4  C         20.0110  -22.7530   -9.7700 C.2     1  UNL1        0.0320
      5  C         20.3320  -23.6040   -8.7020 C.2     1  UNL1        0.0180
      6  C         19.3240  -24.1140   -7.8820 C.2     1  UNL1        0.0260
      7  C         21.1180  -22.2350  -10.6210 C.2     1  UNL1        0.2560
      8  O         20.8310  -21.4750  -11.5380 O.2     1  UNL1       -0.2670
      9  N         22.3750  -22.7070  -10.2880 N.am    1  UNL1       -0.3230
     10  H         22.4200  -23.4270   -9.5770 H       1  UNL1        0.1690
     11  C         23.6030  -22.3770  -10.9000 C.2     1  UNL1        0.0360
     12  C         24.5070  -21.4430  -10.3860 C.2     1  UNL1        0.0290
     13  C         25.7050  -21.1610  -11.0540 C.2     1  UNL1        0.0040
     14  C         26.0170  -21.8200  -12.2400 C.2     1  UNL1        0.0250
     15  C         25.1230  -22.7620  -12.7470 C.2     1  UNL1        0.0760
     16  C         23.9190  -23.0420  -12.0900 C.2     1  UNL1        0.0540
     17  S         25.5260  -23.6090  -14.2520 S.O2    1  UNL1        0.2430
     18  O         26.8830  -23.2600  -14.6200 O.2     1  UNL1       -0.2060
     19  O         25.1230  -24.9880  -14.0850 O.2     1  UNL1       -0.2060
     20  N         24.4860  -22.8740  -15.3970 N.3     1  UNL1       -0.2150
     21  C         24.6240  -21.4050  -15.5170 C.3     1  UNL1        0.1290
     22  C         24.5340  -23.5330  -16.7220 C.3     1  UNL1        0.1290
     23  S         16.6830  -24.4230   -7.1230 S.O2    1  UNL1        0.2480
     24  O         17.3240  -25.2610   -6.1320 O.2     1  UNL1       -0.2050
     25  O         15.6440  -24.9390   -7.9930 O.2     1  UNL1       -0.2050
     26  N         16.0900  -22.9910   -6.3770 N.pl3   1  UNL1       -0.1720
     27  C         14.6720  -23.0620   -5.9120 C.3     1  UNL1        0.1090
     28  C         14.0680  -21.6650   -5.8690 C.3     1  UNL1        0.0220
     29  C         17.0120  -22.4350   -5.4150 C.2     1  UNL1        0.0250
     30  C         17.9900  -21.5550   -5.8790 C.2     1  UNL1        0.0240
     31  C         18.8850  -20.9670   -4.9840 C.2     1  UNL1        0.0020
     32  C         18.7970  -21.2540   -3.6220 C.2     1  UNL1        0.0000
     33  C         17.8160  -22.1280   -3.1540 C.2     1  UNL1        0.0020
     34  C         16.9210  -22.7160   -4.0480 C.2     1  UNL1        0.0240
@<TRIPOS>BOND
     1    22    20    1
     2    21    20    1
     3    20    17    1
     4    18    17    2
     5    17    19    2
     6    17    15    1
     7    15    14    2
     8    15    16    1
     9    14    13    1
    10    16    11    2
    11     8     7    2
    12    13    12    2
    13    11    12    1
    14    11     9    1
    15     7     9   am
    16     7     4    1
    17     9    10    1
    18     3     4    2
    19     3     2    1
    20     4     5    1
    21     2     1    2
    22     5     6    2
    23     1     6    1
    24     1    23    1
    25    25    23    2
    26    23    26    1
    27    23    24    2
    28    26    27    1
    29    26    29    1
    30    27    28    1
    31    30    29    2
    32    30    31    1
    33    29    34    1
    34    31    32    2
    35    34    33    2
    36    32    33    1
