@<TRIPOS>MOLECULE
14935_out_ligand_01.pdbqt
 33 37 0 0 0
SMALL
GASTEIGER

@<TRIPOS>ATOM
      1  C         21.1580  -22.6410   -9.0230 C.2     1  UNL1        0.0330
      2  C         20.6560  -23.9460   -9.2530 C.2     1  UNL1        0.0180
      3  C         19.6710  -24.4920   -8.4200 C.2     1  UNL1        0.0190
      4  C         19.2130  -23.7030   -7.3820 C.2     1  UNL1        0.0480
      5  C         19.6910  -22.4230   -7.1650 C.2     1  UNL1        0.0490
      6  C         20.6620  -21.8580   -7.9690 C.2     1  UNL1        0.0350
      7  C         18.9940  -21.8850   -5.9980 C.2     1  UNL1        0.2620
      8  O         19.2210  -20.7910   -5.5180 O.2     1  UNL1       -0.2670
      9  N         18.1210  -22.8530   -5.5890 N.am    1  UNL1       -0.2740
     10  C         18.2070  -23.9780   -6.3590 C.2     1  UNL1        0.2620
     11  O         17.6060  -25.0310   -6.2610 O.2     1  UNL1       -0.2670
     12  C         22.1960  -22.0460   -9.9110 C.2     1  UNL1        0.2560
     13  O         22.9650  -21.2290   -9.4220 O.2     1  UNL1       -0.2670
     14  N         22.1920  -22.5210  -11.2090 N.am    1  UNL1       -0.3230
     15  H         21.5720  -23.2900  -11.4210 H       1  UNL1        0.1690
     16  C         23.0270  -22.1100  -12.2690 C.2     1  UNL1        0.0350
     17  C         22.4680  -21.2880  -13.2470 C.2     1  UNL1        0.0320
     18  C         23.2390  -20.8350  -14.3300 C.2     1  UNL1        0.0310
     19  C         24.5890  -21.1780  -14.4780 C.2     1  UNL1        0.0300
     20  C         25.1290  -21.9990  -13.4780 C.2     1  UNL1        0.0310
     21  C         24.3670  -22.4610  -12.3910 C.2     1  UNL1        0.0320
     22  N         25.3450  -20.7240  -15.5430 N.pl3   1  UNL1       -0.3770
     23  C         26.4560  -19.7750  -15.3630 C.3     1  UNL1        0.1490
     24  C         26.6170  -18.9010  -16.6180 C.3     1  UNL1        0.1870
     25  O         26.8730  -19.6430  -17.8180 O.3     1  UNL1       -0.3880
     26  C         26.2810  -20.9490  -17.8130 C.3     1  UNL1        0.1870
     27  C         25.0220  -21.0670  -16.9360 C.3     1  UNL1        0.1490
     28  C         17.2130  -22.7060   -4.4740 C.3     1  UNL1        0.2000
     29  C         15.8600  -22.3610   -4.9860 C.2     1  UNL1        0.0700
     30  C         15.3140  -22.3000   -6.2520 C.2     1  UNL1        0.0360
     31  C         13.9660  -21.9010   -6.0870 C.2     1  UNL1        0.0270
     32  C         13.7760  -21.7450   -4.7350 C.2     1  UNL1        0.1420
     33  O         14.9200  -22.0240   -4.0590 O.2     1  UNL1       -0.3250
@<TRIPOS>BOND
     1    25    26    1
     2    25    24    1
     3    26    27    1
     4    27    22    1
     5    24    23    1
     6    22    23    1
     7    22    19    1
     8    19    18    2
     9    19    20    1
    10    18    17    1
    11    20    21    2
    12    17    16    2
    13    21    16    1
    14    16    14    1
    15    15    14    1
    16    14    12   am
    17    12    13    2
    18    12     1    1
    19     2     1    2
    20     2     3    1
    21     1     6    1
    22     3     4    2
    23     6     5    2
    24     4     5    1
    25     4    10    1
    26     5     7    1
    27    10    11    2
    28    10     9   am
    29    30    31    1
    30    30    29    2
    31    31    32    2
    32     7     9   am
    33     7     8    2
    34     9    28    1
    35    29    28    1
    36    29    33    1
    37    32    33    1
