@<TRIPOS>MOLECULE
14946_out_ligand_01.pdbqt
 35 38 0 0 0
SMALL
GASTEIGER

@<TRIPOS>ATOM
      1  C         17.4480  -21.9940  -10.6460 C.2     1  UNL1       -0.0360
      2  C         16.2130  -21.8340  -10.0030 C.2     1  UNL1        0.0130
      3  C         15.9160  -22.5570   -8.8470 C.2     1  UNL1        0.0250
      4  C         16.8670  -23.4380   -8.3270 C.2     1  UNL1        0.0750
      5  C         18.1090  -23.5980   -8.9460 C.2     1  UNL1        0.0250
      6  C         18.4020  -22.8650  -10.0970 C.2     1  UNL1        0.0130
      7  C         17.7140  -21.2350  -11.8710 C.2     1  UNL1        0.0170
      8  C         18.8950  -20.7600  -12.3060 C.2     1  UNL1        0.0750
      9  C         20.2470  -20.8760  -11.6870 C.2     1  UNL1        0.2450
     10  N         20.9880  -21.9430  -12.1310 N.am    1  UNL1       -0.3240
     11  H         20.5580  -22.5350  -12.8290 H       1  UNL1        0.1690
     12  O         20.5900  -20.0040  -10.8980 O.2     1  UNL1       -0.2680
     13  C         22.2650  -22.3450  -11.6910 C.2     1  UNL1        0.0350
     14  C         23.4370  -22.1710  -12.4280 C.2     1  UNL1        0.0300
     15  C         24.6700  -22.5890  -11.9090 C.2     1  UNL1        0.0190
     16  C         24.7440  -23.1910  -10.6490 C.2     1  UNL1        0.0320
     17  C         23.5750  -23.3540   -9.9010 C.2     1  UNL1        0.0190
     18  C         22.3440  -22.9370  -10.4220 C.2     1  UNL1        0.0300
     19  C         26.0780  -23.6130  -10.1450 C.2     1  UNL1        0.2490
     20  N         26.1100  -24.4950   -9.0990 N.am    1  UNL1       -0.3660
     21  H         25.3090  -25.0500   -8.8370 H       1  UNL1        0.1590
     22  H         27.0250  -24.8580   -8.8610 H       1  UNL1        0.1590
     23  O         27.1170  -23.2200  -10.6590 O.2     1  UNL1       -0.2680
     24  S         16.5010  -24.3940   -6.8690 S.O2    1  UNL1        0.2480
     25  O         15.2610  -25.1030   -7.1110 O.2     1  UNL1       -0.2050
     26  O         17.7180  -25.1080   -6.5450 O.2     1  UNL1       -0.2050
     27  N         16.2060  -23.1760   -5.7160 N.pl3   1  UNL1       -0.1710
     28  C         15.5580  -23.6240   -4.4350 C.3     1  UNL1        0.1180
     29  C         16.0230  -22.6390   -3.3510 C.3     1  UNL1        0.0560
     30  C         17.2370  -22.0360   -3.9740 C.2     1  UNL1       -0.0350
     31  C         18.1680  -21.2020   -3.3730 C.2     1  UNL1        0.0090
     32  C         17.3200  -22.3580   -5.3290 C.2     1  UNL1        0.0310
     33  C         19.1910  -20.6760   -4.1620 C.2     1  UNL1        0.0010
     34  C         19.2550  -20.9690   -5.5330 C.2     1  UNL1        0.0020
     35  C         18.3040  -21.8030   -6.1280 C.2     1  UNL1        0.0250
@<TRIPOS>BOND
     1    11    10    1
     2    14    15    1
     3    14    13    2
     4     8     7    2
     5     8     9    1
     6    10    13    1
     7    10     9   am
     8    15    16    2
     9     7     1    1
    10    13    18    1
    11     9    12    2
    12    23    19    2
    13    16    19    1
    14    16    17    1
    15     1     6    2
    16     1     2    1
    17    18    17    2
    18    19    20   am
    19     6     5    1
    20     2     3    2
    21    20    22    1
    22    20    21    1
    23     5     4    2
    24     3     4    1
    25     4    24    1
    26    25    24    2
    27    24    26    2
    28    24    27    1
    29    35    34    2
    30    35    32    1
    31    27    32    1
    32    27    28    1
    33    34    33    1
    34    32    30    2
    35    28    29    1
    36    33    31    2
    37    30    31    1
    38    30    29    1
