@<TRIPOS>MOLECULE
14945_out_ligand_01.pdbqt
 37 41 0 0 0
SMALL
GASTEIGER

@<TRIPOS>ATOM
      1  O         21.2090  -20.8860  -12.8970 O.2     1  UNL1       -0.2670
      2  C         21.9660  -21.6850  -12.3630 C.2     1  UNL1        0.2570
      3  N         21.7050  -22.5230  -11.2970 N.am    1  UNL1       -0.3230
      4  H         22.4840  -23.0670  -10.9440 H       1  UNL1        0.1690
      5  C         20.4770  -22.7010  -10.6280 C.2     1  UNL1        0.0350
      6  C         19.3070  -22.0070  -10.9490 C.2     1  UNL1        0.0310
      7  C         18.1230  -22.2490  -10.2440 C.2     1  UNL1        0.0270
      8  C         18.1020  -23.2040   -9.2260 C.2     1  UNL1        0.0800
      9  C         19.2680  -23.8910   -8.8810 C.2     1  UNL1        0.0270
     10  C         20.4480  -23.6390   -9.5860 C.2     1  UNL1        0.0310
     11  S         16.6090  -23.4980   -8.3130 S.O2    1  UNL1        0.2640
     12  O         16.7460  -24.7060   -7.5320 O.2     1  UNL1       -0.2000
     13  O         15.5070  -23.3460   -9.2440 O.2     1  UNL1       -0.2000
     14  N         16.5010  -22.1770   -7.3020 N.pl3   1  UNL1       -0.2680
     15  H         16.1250  -21.3670   -7.7870 H       1  UNL1        0.1800
     16  C         16.8180  -22.1210   -5.9370 C.2     1  UNL1        0.1080
     17  N         15.9150  -22.4080   -5.0840 N.2     1  UNL1       -0.2760
     18  C         16.0690  -22.4120   -3.6380 C.3     1  UNL1        0.1510
     19  C         17.4000  -22.9680   -3.1560 C.3     1  UNL1        0.0220
     20  C         18.5080  -21.9160   -3.1560 C.3     1  UNL1        0.0020
     21  C         18.5040  -21.0060   -4.3810 C.3     1  UNL1        0.0080
     22  C         18.2680  -21.7700   -5.6710 C.3     1  UNL1        0.0790
     23  C         23.3610  -21.7480  -12.8520 C.2     1  UNL1        0.0470
     24  C         23.5880  -21.2340  -14.1290 C.2     1  UNL1        0.0520
     25  C         24.8850  -21.2190  -14.6000 C.2     1  UNL1        0.0920
     26  N         25.9240  -21.6810  -13.8630 N.2     1  UNL1       -0.2450
     27  C         25.6960  -22.2090  -12.6510 C.2     1  UNL1        0.0690
     28  C         26.7790  -22.7030  -11.9360 C.2     1  UNL1        0.0320
     29  C         24.4130  -22.2880  -12.0790 C.2     1  UNL1        0.0080
     30  C         26.6310  -23.2910  -10.6790 C.2     1  UNL1        0.0020
     31  C         25.3670  -23.3970  -10.1160 C.2     1  UNL1        0.0010
     32  C         24.2630  -22.9050  -10.8100 C.2     1  UNL1        0.0150
     33  C         25.2170  -20.6960  -15.9220 C.2     1  UNL1        0.1030
     34  C         26.2200  -19.8790  -16.4150 C.2     1  UNL1        0.0410
     35  C         25.9880  -19.7360  -17.8050 C.2     1  UNL1        0.0270
     36  C         24.8630  -20.4720  -18.0800 C.2     1  UNL1        0.1420
     37  O         24.3900  -21.0570  -16.9520 O.2     1  UNL1       -0.3200
@<TRIPOS>BOND
     1    36    35    2
     2    36    37    1
     3    35    34    1
     4    37    33    1
     5    34    33    2
     6    33    25    1
     7    25    24    1
     8    25    26    2
     9    24    23    2
    10    26    27    1
    11     1     2    2
    12    23     2    1
    13    23    29    1
    14    27    29    2
    15    27    28    1
    16     2     3   am
    17    29    32    1
    18    28    30    2
    19     3     4    1
    20     3     5    1
    21     6     5    2
    22     6     7    1
    23    32    31    2
    24    30    31    1
    25     5    10    1
    26     7     8    2
    27    10     9    2
    28    13    11    2
    29     8     9    1
    30     8    11    1
    31    11    12    2
    32    11    14    1
    33    15    14    1
    34    14    16    1
    35    16    22    1
    36    16    17    2
    37    22    21    1
    38    17    18    1
    39    21    20    1
    40    18    19    1
    41    20    19    1
