@<TRIPOS>MOLECULE
14943_out_ligand_01.pdbqt
 35 38 0 0 0
SMALL
GASTEIGER

@<TRIPOS>ATOM
      1  C         25.1480  -20.9710  -12.8970 C.2     1  UNL1        0.0160
      2  C         25.7470  -20.0070  -13.7210 C.2     1  UNL1        0.0190
      3  C         26.7240  -19.1450  -13.2160 C.2     1  UNL1        0.0010
      4  C         27.1210  -19.2380  -11.8840 C.2     1  UNL1        0.0010
      5  C         26.5450  -20.1970  -11.0530 C.2     1  UNL1        0.0180
      6  C         25.5640  -21.0620  -11.5580 C.2     1  UNL1        0.0480
      7  C         24.9940  -22.0640  -10.6310 C.2     1  UNL1        0.2530
      8  O         25.3910  -23.2220  -10.6360 O.2     1  UNL1       -0.2680
      9  N         23.9970  -21.5830   -9.8140 N.am    1  UNL1       -0.3570
     10  H         23.6960  -20.6180   -9.9090 H       1  UNL1        0.1620
     11  C         23.2460  -22.4460   -8.9240 C.3     1  UNL1        0.1270
     12  C         22.2260  -21.6790   -8.0740 C.3     1  UNL1        0.0580
     13  C         20.9590  -22.4630   -7.8030 C.2     1  UNL1       -0.0540
     14  C         20.7840  -23.7360   -8.3680 C.2     1  UNL1        0.0100
     15  C         19.6070  -24.4550   -8.1460 C.2     1  UNL1        0.0400
     16  C         18.5980  -23.9100   -7.3590 C.2     1  UNL1        0.1020
     17  C         18.7780  -22.6600   -6.7610 C.2     1  UNL1        0.1020
     18  O         17.4590  -24.6600   -7.2060 O.2     1  UNL1       -0.3460
     19  C         19.9470  -21.9340   -6.9910 C.2     1  UNL1        0.0460
     20  O         17.8430  -22.0780   -5.9400 O.2     1  UNL1       -0.3460
     21  C         16.8810  -23.0380   -5.4880 C.3     1  UNL1        0.2020
     22  C         16.3890  -23.8820   -6.6530 C.3     1  UNL1        0.2020
     23  S         23.9470  -22.0710  -13.6380 S.3     1  UNL1       -0.1200
     24  C         22.4640  -21.0090  -13.5000 C.3     1  UNL1        0.1820
     25  C         21.4700  -21.5670  -12.4870 C.2     1  UNL1        0.2310
     26  O         21.7800  -22.4990  -11.7500 O.2     1  UNL1       -0.2720
     27  N         20.2250  -20.9570  -12.5500 N.am    1  UNL1       -0.3270
     28  H         20.1630  -20.1660  -13.1810 H       1  UNL1        0.1690
     29  C         19.0770  -21.2480  -11.7870 C.2     1  UNL1        0.0340
     30  C         18.0950  -20.3070  -11.4640 C.2     1  UNL1        0.0320
     31  C         16.9830  -20.6800  -10.7020 C.2     1  UNL1        0.0440
     32  C         16.8540  -21.9930  -10.2650 C.2     1  UNL1        0.1160
     33  F         15.7880  -22.3480   -9.5330 F       1  UNL1       -0.2060
     34  C         17.8180  -22.9410  -10.5740 C.2     1  UNL1        0.0440
     35  C         18.9300  -22.5690  -11.3340 C.2     1  UNL1        0.0320
@<TRIPOS>BOND
     1     2     3    1
     2     2     1    2
     3    23    24    1
     4    23     1    1
     5    24    25    1
     6     3     4    2
     7    28    27    1
     8     1     6    1
     9    27    25   am
    10    27    29    1
    11    25    26    2
    12     4     5    1
    13    29    30    2
    14    29    35    1
    15     6     5    2
    16     6     7    1
    17    30    31    1
    18    35    34    2
    19    31    32    2
    20     8     7    2
    21     7     9   am
    22    34    32    1
    23    32    33    1
    24    10     9    1
    25     9    11    1
    26    11    12    1
    27    14    15    1
    28    14    13    2
    29    15    16    2
    30    12    13    1
    31    13    19    1
    32    16    18    1
    33    16    17    1
    34    18    22    1
    35    19    17    2
    36    17    20    1
    37    22    21    1
    38    20    21    1
