@<TRIPOS>MOLECULE
14954_out_ligand_01.pdbqt
 35 39 0 0 0
SMALL
GASTEIGER

@<TRIPOS>ATOM
      1  C         20.6800  -22.2290  -11.1490 C.2     1  UNL1        0.0330
      2  C         19.8180  -21.3280  -11.7880 C.2     1  UNL1        0.0170
      3  C         18.4750  -21.2590  -11.4100 C.2     1  UNL1        0.0090
      4  C         17.9750  -22.0870  -10.3930 C.2     1  UNL1       -0.0480
      5  C         18.8480  -22.9800   -9.7530 C.2     1  UNL1        0.0090
      6  C         20.1930  -23.0460  -10.1240 C.2     1  UNL1        0.0170
      7  C         22.1190  -22.3180  -11.5080 C.2     1  UNL1        0.2700
      8  O         22.7520  -23.3460  -11.2890 O.2     1  UNL1       -0.2660
      9  N         22.6500  -21.2000  -12.1230 N.am    1  UNL1       -0.2520
     10  H         22.0470  -20.5430  -12.5970 H       1  UNL1        0.1910
     11  N         23.9380  -21.3080  -12.6170 N.am    1  UNL1       -0.1670
     12  C         25.0590  -21.2730  -11.8300 C.2     1  UNL1        0.3450
     13  O         25.1490  -21.0550  -10.6330 O.2     1  UNL1       -0.2450
     14  N         26.1450  -21.5180  -12.6500 N.am    1  UNL1       -0.3230
     15  C         25.7510  -21.9040  -13.9980 C.3     1  UNL1        0.1170
     16  H         27.0640  -21.6390  -12.2430 H       1  UNL1        0.1650
     17  C         26.0160  -23.4010  -14.2050 C.3     1  UNL1        0.0410
     18  C         24.2280  -21.6260  -13.9190 C.2     1  UNL1        0.2750
     19  C         26.4440  -21.0120  -15.0310 C.3     1  UNL1        0.0410
     20  C         25.8440  -23.8460  -15.6550 C.3     1  UNL1        0.0030
     21  C         26.6490  -22.9730  -16.6090 C.3     1  UNL1        0.0000
     22  C         26.2750  -21.5030  -16.4660 C.3     1  UNL1        0.0030
     23  O         23.4320  -21.6930  -14.8490 O.2     1  UNL1       -0.2680
     24  C         16.5310  -21.9800   -9.9570 C.3     1  UNL1        0.1210
     25  S         15.8810  -23.5710   -9.3600 S.3     1  UNL1       -0.0870
     26  C         16.0080  -23.3430   -7.6580 C.ar    1  UNL1        0.1670
     27  N         15.2290  -22.6190   -6.8920 N.ar    1  UNL1       -0.2230
     28  C         15.7380  -22.7850   -5.6260 C.ar    1  UNL1        0.0860
     29  C         15.2980  -22.2490   -4.4060 C.2     1  UNL1        0.0340
     30  C         16.8510  -23.6200   -5.6380 C.ar    1  UNL1        0.0630
     31  C         15.9980  -22.5780   -3.2370 C.2     1  UNL1        0.0020
     32  C         17.1090  -23.4260   -3.2810 C.2     1  UNL1        0.0020
     33  C         17.5650  -23.9700   -4.4880 C.2     1  UNL1        0.0320
     34  N         17.0040  -23.9550   -6.9590 N.ar    1  UNL1       -0.3330
     35  H         17.7030  -24.5660   -7.3530 H       1  UNL1        0.1680
@<TRIPOS>BOND
     1    21    22    1
     2    21    20    1
     3    22    19    1
     4    20    17    1
     5    19    15    1
     6    23    18    2
     7    17    15    1
     8    15    18    1
     9    15    14    1
    10    18    11   am
    11    14    16    1
    12    14    12   am
    13    11     9    1
    14    11    12   am
    15    10     9    1
    16     9     7   am
    17    12    13    2
    18     2     3    1
    19     2     1    2
    20     7     8    2
    21     7     1    1
    22     3     4    2
    23     1     6    1
    24     4    24    1
    25     4     5    1
    26     6     5    2
    27    24    25    1
    28    25    26    1
    29    26    34   ar
    30    26    27   ar
    31    35    34    1
    32    34    30   ar
    33    27    28   ar
    34    30    28   ar
    35    30    33    1
    36    28    29    1
    37    33    32    2
    38    29    31    2
    39    32    31    1
