@<TRIPOS>MOLECULE
14955_out_ligand_01.pdbqt
 28 30 0 0 0
SMALL
GASTEIGER

@<TRIPOS>ATOM
      1  C         18.2400  -21.8580  -10.6170 C.2     1  UNL1       -0.0490
      2  C         19.0690  -22.8630  -10.1090 C.2     1  UNL1        0.0100
      3  C         20.4390  -22.8610  -10.3890 C.2     1  UNL1        0.0300
      4  C         21.0090  -21.8540  -11.1780 C.2     1  UNL1        0.0350
      5  C         20.1830  -20.8490  -11.6780 C.2     1  UNL1        0.0300
      6  C         18.8100  -20.8470  -11.3980 C.2     1  UNL1        0.0100
      7  C         16.7590  -21.8610  -10.3200 C.3     1  UNL1        0.1410
      8  C         16.3490  -22.8520   -9.2430 C.2     1  UNL1        0.2220
      9  O         15.7340  -23.8820   -9.5070 O.2     1  UNL1       -0.2730
     10  N         16.7600  -22.5200   -7.9690 N.am    1  UNL1       -0.3560
     11  H         17.3450  -21.7010   -7.8500 H       1  UNL1        0.1620
     12  C         16.5520  -23.4000   -6.8200 C.3     1  UNL1        0.0840
     13  C         17.6870  -23.1920   -5.8070 C.3     1  UNL1        0.0250
     14  C         17.4060  -23.7100   -4.3980 C.3     1  UNL1        0.0020
     15  C         16.6880  -22.6830   -3.5250 C.3     1  UNL1        0.0000
     16  C         15.2190  -22.4570   -3.8620 C.3     1  UNL1        0.0000
     17  C         14.9340  -22.0640   -5.3110 C.3     1  UNL1        0.0020
     18  C         15.1260  -23.2250   -6.2850 C.3     1  UNL1        0.0250
     19  N         22.4010  -21.9290  -11.4040 N.am    1  UNL1       -0.3210
     20  C         23.4260  -21.5630  -10.5400 C.2     1  UNL1        0.2800
     21  O         23.2490  -21.0840   -9.4240 O.2     1  UNL1       -0.2650
     22  H         22.6710  -22.2930  -12.3040 H       1  UNL1        0.1690
     23  C         24.7640  -21.7970  -11.0750 C.2     1  UNL1        0.1440
     24  C         25.9750  -21.1300  -10.9660 C.2     1  UNL1        0.0460
     25  C         26.9210  -21.8610  -11.7300 C.2     1  UNL1        0.0480
     26  C         26.2390  -22.9270  -12.2650 C.2     1  UNL1        0.1220
     27 BR         26.9930  -24.2610  -13.3910 Br      1  UNL1       -0.0230
     28  O         24.9400  -22.8980  -11.8750 O.2     1  UNL1       -0.2980
@<TRIPOS>BOND
     1    27    26    1
     2    22    19    1
     3    26    28    1
     4    26    25    2
     5    28    23    1
     6    25    24    1
     7     5     6    1
     8     5     4    2
     9    19     4    1
    10    19    20   am
    11     6     1    2
    12     4     3    1
    13    23    24    2
    14    23    20    1
    15     1     7    1
    16     1     2    1
    17    20    21    2
    18     3     2    2
    19     7     8    1
    20     9     8    2
    21     8    10   am
    22    10    11    1
    23    10    12    1
    24    12    18    1
    25    12    13    1
    26    18    17    1
    27    13    14    1
    28    17    16    1
    29    14    15    1
    30    16    15    1
