@<TRIPOS>MOLECULE
14952_out_ligand_01.pdbqt
 38 41 0 0 0
SMALL
GASTEIGER

@<TRIPOS>ATOM
      1  C         23.7680  -22.0290  -13.0070 C.ar    1  UNL1        0.0790
      2  N         22.6410  -21.3430  -13.2400 N.ar    1  UNL1       -0.1760
      3  N         22.8700  -20.7310  -14.4150 N.ar    1  UNL1       -0.2610
      4  C         24.1030  -20.9990  -14.9510 C.ar    1  UNL1        0.1380
      5  C         24.7150  -21.8390  -14.0450 C.ar    1  UNL1        0.1150
      6  C         26.0190  -22.3990  -14.1440 C.1     1  UNL1        0.1050
      7  N         27.0790  -22.8710  -14.2120 N.1     1  UNL1       -0.1910
      8  H         22.1450  -20.1370  -14.7990 H       1  UNL1        0.1910
      9  N         24.4950  -20.4690  -16.1280 N.pl3   1  UNL1       -0.3830
     10  H         23.8970  -20.4490  -16.9510 H       1  UNL1        0.1570
     11  H         25.4850  -20.3830  -16.3600 H       1  UNL1        0.1570
     12  C         23.8980  -22.8570  -11.7700 C.3     1  UNL1        0.0640
     13  C         24.2420  -22.0150  -10.5420 C.3     1  UNL1        0.0260
     14  C         23.5220  -22.5360   -9.3010 C.3     1  UNL1        0.1230
     15  N         22.0890  -22.3750   -9.4160 N.am    1  UNL1       -0.3570
     16  C         21.2100  -23.4220   -9.2780 C.2     1  UNL1        0.2540
     17  O         21.5850  -24.5780   -9.1060 O.2     1  UNL1       -0.2680
     18  H         21.7060  -21.4440   -9.5440 H       1  UNL1        0.1620
     19  C         19.7420  -23.1140   -9.3370 C.2     1  UNL1        0.0660
     20  C         18.9350  -23.8100   -8.4160 C.2     1  UNL1        0.0440
     21  C         17.5530  -23.6260   -8.4120 C.2     1  UNL1        0.0760
     22  C         16.9570  -22.7300   -9.2980 C.2     1  UNL1        0.0270
     23  C         17.7510  -22.0240  -10.2060 C.2     1  UNL1        0.0390
     24  C         19.1430  -22.2080  -10.2410 C.2     1  UNL1        0.0840
     25  S         16.5350  -24.4950   -7.2350 S.O2    1  UNL1        0.2480
     26  O         15.3850  -25.0160   -7.9440 O.2     1  UNL1       -0.2050
     27  O         17.4230  -25.3800   -6.5070 O.2     1  UNL1       -0.2050
     28  N         16.0260  -23.2260   -6.2190 N.pl3   1  UNL1       -0.1710
     29  C         14.9670  -23.5720   -5.2090 C.3     1  UNL1        0.1180
     30  C         15.1650  -22.6090   -4.0290 C.3     1  UNL1        0.0560
     31  C         16.5730  -22.1560   -4.2280 C.2     1  UNL1       -0.0350
     32  C         17.3500  -21.4120   -3.3550 C.2     1  UNL1        0.0090
     33  C         17.0450  -22.5240   -5.4880 C.2     1  UNL1        0.0310
     34  C         18.6240  -21.0220   -3.7700 C.2     1  UNL1        0.0010
     35  C         19.0870  -21.3570   -5.0510 C.2     1  UNL1        0.0020
     36  C         18.2880  -22.1000   -5.9260 C.2     1  UNL1        0.0250
     37  O         19.9640  -21.5400  -11.1160 O.2     1  UNL1       -0.3550
     38  C         19.4410  -20.4000  -11.7910 C.3     1  UNL1        0.2100
@<TRIPOS>BOND
     1    10     9    1
     2    11     9    1
     3     9     4    1
     4     4     3   ar
     5     4     5   ar
     6     8     3    1
     7     3     2   ar
     8     7     6    3
     9     6     5    1
    10     5     1   ar
    11     2     1   ar
    12     1    12    1
    13    38    37    1
    14    12    13    1
    15    37    24    1
    16    13    14    1
    17    24    23    1
    18    24    19    2
    19    23    22    2
    20    18    15    1
    21    15    14    1
    22    15    16   am
    23    19    16    1
    24    19    20    1
    25    22    21    1
    26    16    17    2
    27    20    21    2
    28    21    25    1
    29    26    25    2
    30    25    27    2
    31    25    28    1
    32    28    33    1
    33    28    29    1
    34    36    33    1
    35    36    35    2
    36    33    31    2
    37    29    30    1
    38    35    34    1
    39    31    30    1
    40    31    32    1
    41    34    32    2
