@<TRIPOS>MOLECULE
1495_out_ligand_01.pdbqt
 32 35 0 0 0
SMALL
GASTEIGER

@<TRIPOS>ATOM
      1  N         17.9030  -22.7570   -7.0570 N.ar    1  UNL1       -0.2730
      2  C         16.6860  -22.6930   -7.7530 C.ar    1  UNL1        0.1760
      3  N         15.6550  -22.4540   -6.9720 N.ar    1  UNL1       -0.2140
      4  C         16.1790  -22.3820   -5.7190 C.ar    1  UNL1        0.1730
      5  C         15.5100  -22.1480   -4.4530 C.2     1  UNL1        0.2790
      6  O         14.2980  -22.0180   -4.3010 O.2     1  UNL1       -0.2650
      7  N         16.3940  -22.1040   -3.3880 N.am    1  UNL1       -0.3160
      8  C         17.7540  -22.2880   -3.5220 C.2     1  UNL1        0.2120
      9  N         18.3720  -22.5230   -4.6400 N.2     1  UNL1       -0.2230
     10  C         17.5460  -22.5730   -5.7210 C.ar    1  UNL1        0.1720
     11  H         15.9770  -21.9430   -2.4830 H       1  UNL1        0.1700
     12  S         16.4690  -23.1060   -9.4420 S.3     1  UNL1       -0.0820
     13  C         16.5620  -21.4490  -10.2100 C.3     1  UNL1        0.1850
     14  C         17.7160  -21.2770  -11.1930 C.2     1  UNL1        0.2270
     15  O         17.5280  -21.2960  -12.4150 O.2     1  UNL1       -0.2730
     16  N         18.9570  -21.0190  -10.6590 N.am    1  UNL1       -0.3600
     17  H         19.0400  -20.9190   -9.6530 H       1  UNL1        0.1620
     18  C         20.1260  -20.8190  -11.4890 C.3     1  UNL1        0.1270
     19  C         20.9360  -22.1100  -11.6930 C.3     1  UNL1        0.0580
     20  C         22.2190  -21.8920  -12.4510 C.2     1  UNL1       -0.0570
     21  C         23.3890  -22.5590  -12.0550 C.2     1  UNL1        0.0070
     22  C         24.5710  -22.4250  -12.7840 C.2     1  UNL1        0.0010
     23  C         24.5980  -21.6050  -13.9110 C.2     1  UNL1        0.0000
     24  C         23.4430  -20.9170  -14.3040 C.2     1  UNL1        0.0010
     25  C         22.2570  -21.0570  -13.5780 C.2     1  UNL1        0.0070
     26  C         19.2240  -22.9850   -7.5560 C.2     1  UNL1        0.0430
     27  C         20.2330  -22.0230   -7.4140 C.2     1  UNL1        0.0300
     28  C         21.5190  -22.2600   -7.9070 C.2     1  UNL1        0.0090
     29  C         21.8210  -23.4620   -8.5550 C.2     1  UNL1       -0.0620
     30  C         23.2120  -23.7290   -9.0390 C.3     1  UNL1        0.0480
     31  C         20.8250  -24.4370   -8.6780 C.2     1  UNL1        0.0090
     32  C         19.5380  -24.2010   -8.1830 C.2     1  UNL1        0.0300
@<TRIPOS>BOND
     1    24    23    2
     2    24    25    1
     3    23    22    1
     4    25    20    2
     5    22    21    2
     6    20    21    1
     7    20    19    1
     8    15    14    2
     9    19    18    1
    10    18    16    1
    11    14    16   am
    12    14    13    1
    13    16    17    1
    14    13    12    1
    15    12     2    1
    16    30    29    1
    17    31    29    2
    18    31    32    1
    19    29    28    1
    20    32    26    2
    21    28    27    2
    22     2     1   ar
    23     2     3   ar
    24    26    27    1
    25    26     1    1
    26     1    10   ar
    27     3     4   ar
    28    10     4   ar
    29    10     9    1
    30     4     5    1
    31     9     8    2
    32     5     6    2
    33     5     7   am
    34     8     7    1
    35     7    11    1
