@<TRIPOS>MOLECULE
14957_out_ligand_01.pdbqt
 40 43 0 0 0
SMALL
GASTEIGER

@<TRIPOS>ATOM
      1  C         22.4800  -23.4250  -10.2810 C.3     1  UNL1        0.1810
      2  C         22.6380  -22.8550  -11.7110 C.2     1  UNL1        0.2450
      3  N         23.7390  -23.3750  -12.3800 N.am    1  UNL1       -0.3250
      4  H         24.2100  -24.1580  -11.9410 H       1  UNL1        0.1690
      5  O         21.8650  -22.0080  -12.1520 O.2     1  UNL1       -0.2710
      6  C         24.2210  -23.0060  -13.6520 C.2     1  UNL1        0.0340
      7  C         23.8840  -21.8150  -14.3000 C.2     1  UNL1        0.0300
      8  C         24.4110  -21.5150  -15.5630 C.2     1  UNL1        0.0190
      9  C         25.2810  -22.4090  -16.1940 C.2     1  UNL1        0.0320
     10  C         25.6370  -23.5930  -15.5390 C.2     1  UNL1        0.0190
     11  C         25.1080  -23.8880  -14.2800 C.2     1  UNL1        0.0300
     12  C         25.8690  -22.1370  -17.5320 C.2     1  UNL1        0.2490
     13  N         25.6130  -20.9190  -18.1010 N.am    1  UNL1       -0.3660
     14  H         25.9150  -20.8110  -19.0610 H       1  UNL1        0.1590
     15  H         24.8590  -20.3270  -17.7850 H       1  UNL1        0.1590
     16  O         26.5320  -22.9790  -18.1250 O.2     1  UNL1       -0.2680
     17  C         23.6410  -22.9880   -9.3690 C.3     1  UNL1        0.0730
     18  C         24.8680  -22.4760  -10.0910 C.2     1  UNL1       -0.0560
     19  C         24.9320  -21.1410  -10.5170 C.2     1  UNL1        0.0070
     20  C         26.0530  -20.6680  -11.1990 C.2     1  UNL1        0.0010
     21  C         27.1200  -21.5230  -11.4640 C.2     1  UNL1        0.0000
     22  C         27.0670  -22.8510  -11.0450 C.2     1  UNL1        0.0010
     23  C         25.9480  -23.3260  -10.3610 C.2     1  UNL1        0.0070
     24  N         21.1760  -23.0490   -9.7360 N.am    1  UNL1       -0.3470
     25  C         20.4160  -23.9860   -9.0520 C.2     1  UNL1        0.2310
     26  O         20.8700  -25.0900   -8.7570 O.2     1  UNL1       -0.2720
     27  H         20.6450  -22.4040  -10.3180 H       1  UNL1        0.1630
     28  C         18.9930  -23.4980   -8.7010 C.3     1  UNL1        0.1430
     29  C         18.8640  -22.9580   -7.2760 C.2     1  UNL1       -0.0410
     30  C         18.0650  -23.6520   -6.3500 C.2     1  UNL1        0.0080
     31  C         17.9160  -23.1870   -5.0430 C.2     1  UNL1        0.0010
     32  C         18.5600  -22.0180   -4.6420 C.2     1  UNL1        0.0000
     33  C         19.3450  -21.3130   -5.5500 C.2     1  UNL1        0.0010
     34  C         19.4910  -21.7750   -6.8600 C.2     1  UNL1        0.0080
     35  C         18.4130  -22.5470   -9.7440 C.2     1  UNL1       -0.0410
     36  C         17.0220  -22.3620   -9.8340 C.2     1  UNL1        0.0080
     37  C         16.4780  -21.4890  -10.7780 C.2     1  UNL1        0.0010
     38  C         17.3140  -20.7900  -11.6460 C.2     1  UNL1        0.0000
     39  C         18.6940  -20.9640  -11.5720 C.2     1  UNL1        0.0010
     40  C         19.2400  -21.8360  -10.6290 C.2     1  UNL1        0.0080
@<TRIPOS>BOND
     1    14    13    1
     2    16    12    2
     3    13    15    1
     4    13    12   am
     5    12     9    1
     6     9     8    2
     7     9    10    1
     8     8     7    1
     9    10    11    2
    10     7     6    2
    11    11     6    1
    12     6     3    1
    13     3     4    1
    14     3     2   am
    15     5     2    2
    16     2     1    1
    17    38    39    2
    18    38    37    1
    19    39    40    1
    20    21    20    2
    21    21    22    1
    22    20    19    1
    23    22    23    2
    24    37    36    2
    25    40    35    2
    26    19    18    2
    27    23    18    1
    28    27    24    1
    29     1    24    1
    30     1    17    1
    31    18    17    1
    32    36    35    1
    33    35    28    1
    34    24    25   am
    35    25    26    2
    36    25    28    1
    37    28    29    1
    38    29    34    2
    39    29    30    1
    40    34    33    1
    41    30    31    2
    42    33    32    2
    43    31    32    1
