@<TRIPOS>MOLECULE
14989_out_ligand_01.pdbqt
 34 38 0 0 0
SMALL
GASTEIGER

@<TRIPOS>ATOM
      1  C         20.5350  -23.2930   -9.1620 C.2     1  UNL1        0.2800
      2  O         21.1910  -24.3190   -9.0070 O.2     1  UNL1       -0.2650
      3  N         20.9890  -22.1660   -9.8330 N.am    1  UNL1       -0.3210
      4  H         20.4070  -21.3450   -9.7610 H       1  UNL1        0.1690
      5  C         22.2130  -21.9950  -10.5120 C.2     1  UNL1        0.0350
      6  C         23.4270  -21.7060   -9.8830 C.2     1  UNL1        0.0310
      7  C         24.6000  -21.5540  -10.6310 C.2     1  UNL1        0.0270
      8  C         24.5600  -21.7050  -12.0160 C.2     1  UNL1        0.0750
      9  C         23.3550  -21.9870  -12.6630 C.2     1  UNL1        0.0270
     10  C         22.1890  -22.1350  -11.9090 C.2     1  UNL1        0.0310
     11  S         26.0390  -21.4950  -12.9850 S.O2    1  UNL1        0.2470
     12  O         26.9620  -20.7260  -12.1790 O.2     1  UNL1       -0.2050
     13  O         26.3950  -22.7890  -13.5280 O.2     1  UNL1       -0.2050
     14  N         25.4240  -20.5820  -14.2670 N.pl3   1  UNL1       -0.1590
     15  H         24.4330  -20.4360  -14.0700 H       1  UNL1        0.1480
     16  C         25.4850  -21.3100  -15.5190 C.2     1  UNL1        0.1580
     17  N         24.3930  -21.8790  -15.9620 N.2     1  UNL1       -0.2400
     18  C         24.6560  -22.4550  -17.1900 C.2     1  UNL1        0.1260
     19  C         25.9330  -22.2630  -17.6790 C.2     1  UNL1        0.0720
     20  S         26.8350  -21.3200  -16.5650 S.3     1  UNL1       -0.0680
     21  C         19.1950  -23.1410   -8.6100 C.ar    1  UNL1        0.1500
     22  C         17.9630  -22.7860   -9.1560 C.ar    1  UNL1       -0.0090
     23  C         17.6400  -22.4930  -10.5770 C.3     1  UNL1        0.0520
     24  C         17.0310  -22.7910   -8.0670 C.ar    1  UNL1        0.0070
     25  C         17.7470  -23.1760   -6.9420 C.ar    1  UNL1        0.0980
     26  C         15.6570  -22.5220   -7.9230 C.2     1  UNL1        0.0160
     27  O         19.0470  -23.3960   -7.2740 O.2     1  UNL1       -0.3030
     28  C         17.1830  -23.3090   -5.6570 C.2     1  UNL1        0.0090
     29  C         17.9540  -23.7040   -4.5490 C.2     1  UNL1        0.0150
     30  C         15.8030  -23.0300   -5.5290 C.2     1  UNL1       -0.0230
     31  C         17.3490  -23.8190   -3.2990 C.2     1  UNL1        0.0010
     32  C         15.9880  -23.5450   -3.1540 C.2     1  UNL1        0.0010
     33  C         15.2210  -23.1540   -4.2580 C.2     1  UNL1        0.0120
     34  C         15.0610  -22.6420   -6.6560 C.2     1  UNL1        0.0130
@<TRIPOS>BOND
     1    19    18    2
     2    19    20    1
     3    18    17    1
     4    20    16    1
     5    17    16    2
     6    16    14    1
     7    14    15    1
     8    14    11    1
     9    13    11    2
    10    11    12    2
    11    11     8    1
    12     9     8    2
    13     9    10    1
    14     8     7    1
    15    10     5    2
    16     7     6    2
    17    23    22    1
    18     5     6    1
    19     5     3    1
    20     3     4    1
    21     3     1   am
    22     1     2    2
    23     1    21    1
    24    22    21   ar
    25    22    24   ar
    26    21    27   ar
    27    24    26    2
    28    24    25   ar
    29    26    34    1
    30    27    25   ar
    31    25    28    2
    32    34    30    2
    33    28    30    1
    34    28    29    1
    35    30    33    1
    36    29    31    2
    37    33    32    2
    38    31    32    1
