@<TRIPOS>MOLECULE
14980_out_ligand_01.pdbqt
 27 29 0 0 0
SMALL
GASTEIGER

@<TRIPOS>ATOM
      1  C         17.1460  -22.7980   -5.7030 C.2     1  UNL1        0.0780
      2  C         17.6260  -23.7060   -6.6550 C.2     1  UNL1        0.0540
      3  C         18.8510  -23.4960   -7.3040 C.2     1  UNL1        0.0320
      4  C         19.6100  -22.3830   -6.9210 C.2     1  UNL1        0.0650
      5  C         19.1270  -21.4780   -5.9600 C.2     1  UNL1        0.1060
      6  C         17.8900  -21.6770   -5.3440 C.2     1  UNL1        0.0610
      7  N         19.2990  -24.4660   -8.1900 N.pl3   1  UNL1       -0.3810
      8  H         18.6490  -25.2340   -8.3380 H       1  UNL1        0.1600
      9  C         20.0900  -24.1770   -9.3930 C.3     1  UNL1        0.1150
     10  C         21.5510  -23.9160   -8.9870 C.3     1  UNL1        0.0300
     11  C         22.3340  -23.3000  -10.1390 C.3     1  UNL1        0.0070
     12  C         21.7570  -21.9330  -10.4910 C.3     1  UNL1        0.0390
     13  C         20.2590  -21.9580  -10.6640 C.2     1  UNL1       -0.0500
     14  C         19.6430  -20.8960  -11.3460 C.2     1  UNL1        0.0070
     15  C         19.4660  -22.9910  -10.1250 C.2     1  UNL1       -0.0290
     16  C         18.2610  -20.8680  -11.5250 C.2     1  UNL1        0.0010
     17  C         17.4770  -21.9030  -11.0250 C.2     1  UNL1        0.0010
     18  C         18.0750  -22.9570  -10.3360 C.2     1  UNL1        0.0100
     19  S         15.5970  -23.0940   -4.9050 S.O2    1  UNL1        0.2390
     20  O         14.5390  -22.4630   -5.6580 O.2     1  UNL1       -0.2060
     21  O         15.5470  -24.4760   -4.4960 O.2     1  UNL1       -0.2060
     22  N         15.7570  -22.1900   -3.5010 N.3     1  UNL1       -0.2250
     23  H         14.8340  -21.9430   -3.1410 H       1  UNL1        0.1360
     24  H         16.3510  -21.3790   -3.6800 H       1  UNL1        0.1360
     25  N         19.9360  -20.3060   -5.5990 N.pl3   1  UNL1       -0.1160
     26  O         19.3610  -19.3620   -5.0380 O.2     1  UNL1       -0.5320
     27  O         21.1410  -20.3250   -5.8860 O.2     1  UNL1       -0.5320
@<TRIPOS>BOND
     1    16    14    1
     2    16    17    2
     3    14    13    2
     4    17    18    1
     5    13    12    1
     6    13    15    1
     7    12    11    1
     8    18    15    2
     9    11    10    1
    10    15     9    1
    11     9    10    1
    12     9     7    1
    13     8     7    1
    14     7     3    1
    15     3     4    2
    16     3     2    1
    17     4     5    1
    18     2     1    2
    19     5    25    1
    20     5     6    2
    21    27    25    2
    22     1     6    1
    23     1    19    1
    24    20    19    2
    25    25    26    2
    26    19    21    2
    27    19    22    1
    28    24    22    1
    29    22    23    1
