@<TRIPOS>MOLECULE
149_out_ligand_01.pdbqt
 41 44 0 0 0
SMALL
GASTEIGER

@<TRIPOS>ATOM
      1  O         21.1760  -20.9080  -12.2290 O.2     1  UNL1       -0.2670
      2  C         21.4680  -21.8450  -11.4980 C.2     1  UNL1        0.2560
      3  N         20.6350  -22.5330  -10.6370 N.am    1  UNL1       -0.3230
      4  H         21.0620  -23.2260  -10.0350 H       1  UNL1        0.1690
      5  C         22.8820  -22.3030  -11.5070 C.2     1  UNL1        0.0340
      6  C         23.6070  -22.4680  -10.3260 C.2     1  UNL1        0.0190
      7  C         24.9170  -22.9530  -10.3840 C.2     1  UNL1        0.0260
      8  C         25.5160  -23.2890  -11.6100 C.2     1  UNL1        0.0570
      9 CL         27.1210  -23.9060  -11.5030 Cl      1  UNL1       -0.0830
     10  C         24.7820  -23.1350  -12.7880 C.2     1  UNL1        0.1020
     11  C         23.4670  -22.6370  -12.7320 C.2     1  UNL1        0.0440
     12  S         25.3950  -23.5270  -14.4100 S.O2    1  UNL1        0.2640
     13  O         24.4850  -23.0690  -15.4330 O.2     1  UNL1       -0.2000
     14  O         25.8060  -24.9160  -14.3710 O.2     1  UNL1       -0.2000
     15  N         26.8240  -22.6320  -14.4980 N.pl3   1  UNL1       -0.2810
     16  H         27.5410  -22.9800  -13.8630 H       1  UNL1        0.1790
     17  C         26.7690  -21.2370  -14.7580 C.2     1  UNL1        0.0420
     18  C         26.6260  -20.3140  -13.7220 C.2     1  UNL1        0.0320
     19  C         26.6160  -18.9450  -14.0020 C.2     1  UNL1        0.0260
     20  C         26.7450  -18.5080  -15.3190 C.2     1  UNL1        0.0340
     21 CL         26.7400  -16.8230  -15.6640 Cl      1  UNL1       -0.0840
     22  C         26.8800  -19.4270  -16.3580 C.2     1  UNL1        0.0260
     23  C         26.8900  -20.7960  -16.0770 C.2     1  UNL1        0.0320
     24  C         19.2500  -22.3350  -10.4530 C.2     1  UNL1        0.0360
     25  C         18.5960  -21.4960  -11.3670 C.2     1  UNL1        0.0290
     26  C         17.2280  -21.2320  -11.2510 C.2     1  UNL1        0.0040
     27  C         16.4960  -21.8000  -10.2120 C.2     1  UNL1        0.0250
     28  C         17.1470  -22.6290   -9.2960 C.2     1  UNL1        0.0820
     29  C         18.5130  -22.9120   -9.4200 C.2     1  UNL1        0.0540
     30  S         16.2340  -23.3590   -7.9560 S.O2    1  UNL1        0.2630
     31  O         15.6790  -24.6070   -8.4340 O.2     1  UNL1       -0.2000
     32  O         15.3860  -22.3350   -7.3830 O.2     1  UNL1       -0.2000
     33  N         17.4470  -23.7630   -6.8450 N.pl3   1  UNL1       -0.2790
     34  H         18.2180  -24.2380   -7.3160 H       1  UNL1        0.1790
     35  C         17.8260  -22.7940   -5.8590 C.2     1  UNL1        0.0640
     36  C         18.8060  -21.8430   -6.1540 C.2     1  UNL1        0.0320
     37  C         19.1970  -20.9130   -5.1870 C.2     1  UNL1        0.0020
     38  C         18.6060  -20.9250   -3.9240 C.2     1  UNL1        0.0020
     39  C         17.6200  -21.8640   -3.6240 C.2     1  UNL1        0.0260
     40  C         17.2280  -22.7940   -4.5890 C.2     1  UNL1        0.0610
     41 CL         15.9950  -23.9340   -4.1810 Cl      1  UNL1       -0.0820
@<TRIPOS>BOND
     1    22    23    1
     2    22    20    2
     3    23    17    2
     4    21    20    1
     5    13    12    2
     6    20    19    1
     7    17    15    1
     8    17    18    1
     9    15    12    1
    10    15    16    1
    11    12    14    2
    12    12    10    1
    13    19    18    2
    14    10    11    1
    15    10     8    2
    16    11     5    2
    17     1     2    2
    18     8     9    1
    19     8     7    1
    20     5     2    1
    21     5     6    1
    22     2     3   am
    23    25    26    1
    24    25    24    2
    25    26    27    2
    26     3    24    1
    27     3     4    1
    28    24    29    1
    29     7     6    2
    30    27    28    1
    31    29    28    2
    32    28    30    1
    33    31    30    2
    34    30    32    2
    35    30    33    1
    36    34    33    1
    37    33    35    1
    38    36    35    2
    39    36    37    1
    40    35    40    1
    41    37    38    2
    42    40    41    1
    43    40    39    2
    44    38    39    1
