@<TRIPOS>MOLECULE
14_out_ligand_01.pdbqt
 28 31 0 0 0
SMALL
GASTEIGER

@<TRIPOS>ATOM
      1  O         20.4440  -24.5340   -8.5460 O.2     1  UNL1       -0.2670
      2  C         19.6390  -23.6060   -8.5730 C.2     1  UNL1        0.2580
      3  N         19.4860  -22.6610   -9.6040 N.am    1  UNL1       -0.3130
      4  C         18.2200  -21.9320   -9.7690 C.3     1  UNL1        0.1330
      5  C         17.8250  -21.7710  -11.2250 C.3     1  UNL1        0.0250
      6  C         18.9020  -20.9880  -11.9470 C.3     1  UNL1        0.0420
      7  C         20.2620  -21.5830  -11.6940 C.2     1  UNL1       -0.0300
      8  C         21.2880  -21.2800  -12.6120 C.2     1  UNL1        0.0190
      9  C         22.5840  -21.7790  -12.4450 C.2     1  UNL1       -0.0270
     10  C         22.8450  -22.5770  -11.3290 C.2     1  UNL1        0.0120
     11  C         21.8340  -22.8720  -10.4070 C.2     1  UNL1        0.0310
     12  C         20.5270  -22.3910  -10.5670 C.2     1  UNL1        0.0430
     13  C         18.7440  -23.5060   -7.3930 C.2     1  UNL1        0.0320
     14  C         17.6860  -24.4110   -7.2240 C.2     1  UNL1        0.0200
     15  C         16.8400  -24.2850   -6.1210 C.2     1  UNL1        0.0430
     16  C         17.0480  -23.2510   -5.2120 C.2     1  UNL1        0.1160
     17  F         16.2340  -23.1340   -4.1550 F       1  UNL1       -0.2060
     18  C         18.0800  -22.3340   -5.3850 C.2     1  UNL1        0.0430
     19  C         18.9300  -22.4560   -6.4860 C.2     1  UNL1        0.0200
     20  C         23.6760  -21.4450  -13.4450 C.3     1  UNL1        0.1790
     21  O         23.2700  -21.8760  -14.7470 O.3     1  UNL1       -0.3890
     22  H         23.1830  -22.8430  -14.7190 H       1  UNL1        0.2100
     23  C         25.0310  -22.0920  -13.0470 C.3     1  UNL1        0.3080
     24  N         26.1190  -21.1350  -12.7770 N.3     1  UNL1        0.0910
     25  C         26.0100  -20.5420  -11.4440 C.3     1  UNL1        0.2720
     26  C         26.9940  -19.3890  -11.5090 C.3     1  UNL1        0.0320
     27  C         27.0130  -18.9730  -12.9750 C.3     1  UNL1        0.0320
     28  C         26.1520  -20.0010  -13.6990 C.3     1  UNL1        0.2720
@<TRIPOS>BOND
     1    21    22    1
     2    21    20    1
     3    28    27    1
     4    28    24    1
     5    20    23    1
     6    20     9    1
     7    23    24    1
     8    27    26    1
     9    24    25    1
    10     8     9    1
    11     8     7    2
    12     9    10    2
    13     6     7    1
    14     6     5    1
    15     7    12    1
    16    26    25    1
    17    10    11    1
    18     5     4    1
    19    12    11    2
    20    12     3    1
    21     4     3    1
    22     3     2   am
    23     2     1    2
    24     2    13    1
    25    13    14    2
    26    13    19    1
    27    14    15    1
    28    19    18    2
    29    15    16    2
    30    18    16    1
    31    16    17    1
