@<TRIPOS>MOLECULE
15002_out_ligand_01.pdbqt
 37 41 0 0 0
SMALL
GASTEIGER

@<TRIPOS>ATOM
      1  N         19.4210  -23.0450  -10.3380 N.am    1  UNL1       -0.2520
      2  C         20.5710  -22.3630   -9.9900 C.2     1  UNL1        0.2700
      3  O         20.7640  -21.8910   -8.8710 O.2     1  UNL1       -0.2660
      4  H         19.2810  -23.5260  -11.2110 H       1  UNL1        0.1910
      5  C         21.6140  -22.2150  -11.0450 C.2     1  UNL1        0.0330
      6  C         21.2760  -21.5260  -12.2160 C.2     1  UNL1        0.0170
      7  C         22.2010  -21.3850  -13.2520 C.2     1  UNL1        0.0090
      8  C         23.4830  -21.9400  -13.1400 C.2     1  UNL1       -0.0480
      9  C         23.8210  -22.6210  -11.9610 C.2     1  UNL1        0.0090
     10  C         22.8920  -22.7710  -10.9280 C.2     1  UNL1        0.0170
     11  C         24.4800  -21.7940  -14.2670 C.3     1  UNL1        0.1210
     12  S         26.1120  -21.2170  -13.7190 S.3     1  UNL1       -0.0870
     13  C         26.3630  -19.8260  -14.7090 C.ar    1  UNL1        0.1670
     14  N         26.1090  -19.7470  -15.9930 N.ar    1  UNL1       -0.2230
     15  C         26.3830  -18.4400  -16.3230 C.ar    1  UNL1        0.0860
     16  C         26.2770  -17.7870  -17.5600 C.2     1  UNL1        0.0340
     17  C         26.8040  -17.7180  -15.2080 C.ar    1  UNL1        0.0630
     18  C         26.5970  -16.4250  -17.6300 C.2     1  UNL1        0.0020
     19  C         27.0070  -15.7270  -16.4900 C.2     1  UNL1        0.0020
     20  C         27.1200  -16.3610  -15.2460 C.2     1  UNL1        0.0320
     21  N         26.7730  -18.6300  -14.1830 N.ar    1  UNL1       -0.3330
     22  H         26.9830  -18.4490  -13.2120 H       1  UNL1        0.1680
     23  N         18.3920  -23.1090   -9.4120 N.am    1  UNL1       -0.1670
     24  C         17.3120  -22.2660   -9.4290 C.2     1  UNL1        0.3450
     25  N         16.5800  -22.4940   -8.2790 N.am    1  UNL1       -0.3190
     26  O         17.0110  -21.4440  -10.2780 O.2     1  UNL1       -0.2450
     27  C         17.2530  -23.4150   -7.3750 C.3     1  UNL1        0.1410
     28  H         15.8810  -21.8230   -7.9920 H       1  UNL1        0.1660
     29  C         16.3900  -24.6750   -7.2200 C.3     1  UNL1        0.0550
     30  C         18.4860  -23.8060   -8.2310 C.2     1  UNL1        0.2800
     31  O         19.3580  -24.6090   -7.9210 O.2     1  UNL1       -0.2680
     32  C         17.6170  -22.6940   -6.0800 C.2     1  UNL1       -0.0210
     33  C         18.5750  -21.6650   -6.0400 C.2     1  UNL1        0.0100
     34  C         18.9280  -21.0490   -4.8350 C.2     1  UNL1        0.0010
     35  C         18.3380  -21.4530   -3.6440 C.2     1  UNL1        0.0000
     36  C         17.3950  -22.4740   -3.6560 C.2     1  UNL1        0.0010
     37  C         17.0410  -23.0910   -4.8580 C.2     1  UNL1        0.0100
@<TRIPOS>BOND
     1    18    16    1
     2    18    19    2
     3    16    15    2
     4    19    20    1
     5    15    14   ar
     6    15    17   ar
     7    14    13   ar
     8    20    17    2
     9    17    21   ar
    10    13    21   ar
    11    13    12    1
    12    11    12    1
    13    11     8    1
    14    21    22    1
    15     7     8    2
    16     7     6    1
    17     8     9    1
    18     6     5    2
    19     9    10    2
    20     4     1    1
    21     5    10    1
    22     5     2    1
    23     1     2   am
    24     1    23    1
    25    26    24    2
    26     2     3    2
    27    24    23   am
    28    24    25   am
    29    23    30   am
    30    25    28    1
    31    25    27    1
    32    30    31    2
    33    30    27    1
    34    27    29    1
    35    27    32    1
    36    32    33    2
    37    32    37    1
    38    33    34    1
    39    37    36    2
    40    34    35    2
    41    36    35    1
