@<TRIPOS>MOLECULE
15012_out_ligand_01.pdbqt
 34 37 0 0 0
SMALL
GASTEIGER

@<TRIPOS>ATOM
      1  C         18.6010  -22.3720   -9.4430 C.2     1  UNL1        0.0830
      2  C         19.8830  -22.2250  -10.0070 C.2     1  UNL1        0.0540
      3  C         20.0380  -21.7390  -11.3040 C.2     1  UNL1        0.0360
      4  C         18.8950  -21.4370  -12.0500 C.2     1  UNL1        0.0300
      5  C         17.6200  -21.5880  -11.4980 C.2     1  UNL1        0.0100
      6  C         17.4480  -22.0450  -10.1820 C.2     1  UNL1       -0.0390
      7  C         16.0470  -22.1850   -9.6590 C.3     1  UNL1        0.0500
      8  N         21.2860  -21.5470  -11.9320 N.am    1  UNL1       -0.3230
      9  C         22.4490  -22.2640  -11.7180 C.2     1  UNL1        0.2560
     10  O         22.6270  -23.1350  -10.8760 O.2     1  UNL1       -0.2670
     11  H         21.3520  -20.7370  -12.5360 H       1  UNL1        0.1690
     12  C         23.6010  -21.8670  -12.5770 C.2     1  UNL1        0.0350
     13  C         24.8800  -21.8270  -12.0020 C.2     1  UNL1        0.0200
     14  C         25.9870  -21.4620  -12.7710 C.2     1  UNL1        0.0400
     15  C         25.8210  -21.1490  -14.1170 C.2     1  UNL1        0.1020
     16  C         24.5460  -21.1810  -14.6930 C.2     1  UNL1        0.1030
     17  O         26.9520  -20.8190  -14.8180 O.2     1  UNL1       -0.3460
     18  C         23.4390  -21.5600  -13.9330 C.2     1  UNL1        0.0560
     19  O         24.3070  -20.8640  -16.0060 O.2     1  UNL1       -0.3460
     20  C         25.4260  -20.1920  -16.5970 C.3     1  UNL1        0.2020
     21  C         26.7270  -20.8850  -16.2310 C.3     1  UNL1        0.2020
     22  S         18.5160  -23.0190   -7.7720 S.O2    1  UNL1        0.2460
     23  O         19.8140  -22.8550   -7.1520 O.2     1  UNL1       -0.2060
     24  O         17.9020  -24.3300   -7.8220 O.2     1  UNL1       -0.2060
     25  N         17.4070  -21.9930   -7.0070 N.pl3   1  UNL1       -0.1790
     26  H         17.8520  -21.1110   -6.7500 H       1  UNL1        0.1460
     27  C         16.5940  -22.5440   -5.9640 C.2     1  UNL1        0.0560
     28  C         15.3900  -23.1790   -6.2620 C.2     1  UNL1        0.0270
     29  C         14.6370  -23.7520   -5.2390 C.2     1  UNL1        0.0020
     30  C         15.0860  -23.6800   -3.9200 C.2     1  UNL1        0.0030
     31  C         16.2890  -23.0360   -3.6160 C.2     1  UNL1        0.0380
     32  C         17.0540  -22.4640   -4.6350 C.2     1  UNL1        0.0900
     33  O         18.2530  -21.8170   -4.4630 O.2     1  UNL1       -0.3540
     34  C         18.5390  -21.3330   -3.1560 C.3     1  UNL1        0.2100
@<TRIPOS>BOND
     1    20    21    1
     2    20    19    1
     3    21    17    1
     4    19    16    1
     5    17    15    1
     6    16    15    2
     7    16    18    1
     8    15    14    1
     9    18    12    2
    10    14    13    2
    11    12    13    1
    12    12     9    1
    13    11     8    1
    14     4     5    2
    15     4     3    1
    16     8     9   am
    17     8     3    1
    18     9    10    2
    19     5     6    1
    20     3     2    2
    21     6     7    1
    22     6     1    2
    23     2     1    1
    24     1    22    1
    25    24    22    2
    26    22    23    2
    27    22    25    1
    28    25    26    1
    29    25    27    1
    30    28    27    2
    31    28    29    1
    32    27    32    1
    33    29    30    2
    34    32    33    1
    35    32    31    2
    36    33    34    1
    37    30    31    1
