@<TRIPOS>MOLECULE
15029_out_ligand_01.pdbqt
 28 30 0 0 0
SMALL
GASTEIGER

@<TRIPOS>ATOM
      1  C         17.9080  -22.3380  -10.2430 C.2     1  UNL1       -0.0400
      2  C         19.0050  -23.0970   -9.8100 C.2     1  UNL1        0.0100
      3  C         20.2660  -22.9080  -10.3780 C.2     1  UNL1        0.0170
      4  C         20.4420  -21.9700  -11.3980 C.2     1  UNL1        0.0320
      5  C         19.3550  -21.1970  -11.8280 C.2     1  UNL1        0.0170
      6  C         18.0950  -21.3820  -11.2510 C.2     1  UNL1        0.0100
      7  C         16.5550  -22.5220   -9.5980 C.3     1  UNL1        0.1610
      8  N         16.6200  -22.2360   -8.1840 N.am    1  UNL1       -0.3530
      9  C         16.7380  -23.2370   -7.2500 C.2     1  UNL1        0.2550
     10  O         16.7030  -24.4270   -7.5480 O.2     1  UNL1       -0.2680
     11  H         16.9090  -21.3090   -7.9150 H       1  UNL1        0.1630
     12  C         16.9520  -22.7800   -5.8810 C.2     1  UNL1        0.0690
     13  C         16.0640  -23.0320   -4.8450 C.2     1  UNL1        0.0650
     14  O         16.5190  -22.5030   -3.6790 O.2     1  UNL1       -0.3260
     15  C         14.7740  -23.7500   -4.7690 C.3     1  UNL1        0.0770
     16  C         17.6900  -21.8860   -3.9530 C.2     1  UNL1        0.1490
     17  C         18.0120  -22.0030   -5.2900 C.2     1  UNL1       -0.0210
     18  C         19.2020  -21.3980   -5.9370 C.3     1  UNL1        0.0510
     19  C         21.8010  -21.7980  -11.9830 C.2     1  UNL1        0.2560
     20  O         21.9020  -21.2470  -13.0720 O.2     1  UNL1       -0.2670
     21  N         22.8360  -22.2560  -11.1880 N.am    1  UNL1       -0.3220
     22  H         22.5960  -22.5590  -10.2520 H       1  UNL1        0.1690
     23  C         24.2120  -22.2550  -11.5000 C.2     1  UNL1        0.0520
     24  C         25.1450  -21.3790  -10.9540 C.2     1  UNL1        0.0320
     25  C         26.4840  -21.4600  -11.3430 C.2     1  UNL1        0.0210
     26  C         26.8490  -22.4200  -12.2720 C.2     1  UNL1        0.1160
     27  N         25.9790  -23.2850  -12.8290 N.2     1  UNL1       -0.2710
     28  C         24.6890  -23.1820  -12.4290 C.2     1  UNL1        0.1450
@<TRIPOS>BOND
     1    20    19    2
     2    27    28    1
     3    27    26    2
     4    28    23    2
     5    26    25    1
     6    19     4    1
     7    19    21   am
     8     5     4    2
     9     5     6    1
    10    23    21    1
    11    23    24    1
    12     4     3    1
    13    25    24    2
    14     6     1    2
    15    21    22    1
    16     3     2    2
    17     1     2    1
    18     1     7    1
    19     7     8    1
    20     8    11    1
    21     8     9   am
    22    10     9    2
    23     9    12    1
    24    18    17    1
    25    12    17    1
    26    12    13    2
    27    17    16    2
    28    13    15    1
    29    13    14    1
    30    16    14    1
