@<TRIPOS>MOLECULE
15035_out_ligand_01.pdbqt
 31 34 0 0 0
SMALL
GASTEIGER

@<TRIPOS>ATOM
      1  C         19.7820  -21.8150   -6.8790 C.2     1  UNL1        0.0360
      2  C         19.9290  -21.0410   -5.7250 C.2     1  UNL1        0.0290
      3  C         18.9140  -20.9880   -4.7620 C.2     1  UNL1        0.0040
      4  C         17.7370  -21.7080   -4.9450 C.2     1  UNL1        0.0250
      5  C         17.5860  -22.4780   -6.0990 C.2     1  UNL1        0.0810
      6  C         18.6010  -22.5430   -7.0600 C.2     1  UNL1        0.0540
      7  N         20.7670  -21.9280   -7.8830 N.am    1  UNL1       -0.3230
      8  C         21.1430  -23.0740   -8.5620 C.2     1  UNL1        0.2560
      9  O         20.7500  -24.2150   -8.3510 O.2     1  UNL1       -0.2670
     10  H         21.2970  -21.0890   -8.0770 H       1  UNL1        0.1690
     11  C         22.1700  -22.8640   -9.6210 C.2     1  UNL1        0.0330
     12  C         23.5110  -23.2090   -9.4220 C.2     1  UNL1        0.0180
     13  C         24.4420  -22.9970  -10.4410 C.2     1  UNL1        0.0130
     14  C         24.0510  -22.4330  -11.6670 C.2     1  UNL1       -0.0260
     15  C         24.9770  -22.2160  -12.7000 C.2     1  UNL1        0.0120
     16  C         22.6990  -22.0660  -11.8620 C.2     1  UNL1       -0.0250
     17  C         24.5750  -21.6480  -13.9100 C.2     1  UNL1        0.0010
     18  C         23.2440  -21.2860  -14.1020 C.2     1  UNL1        0.0010
     19  C         22.3120  -21.4930  -13.0840 C.2     1  UNL1        0.0120
     20  C         21.7710  -22.2810  -10.8300 C.2     1  UNL1        0.0290
     21  S         16.0820  -23.3850   -6.3410 S.O2    1  UNL1        0.2590
     22  O         15.9900  -24.4100   -5.3240 O.2     1  UNL1       -0.2010
     23  O         15.0270  -22.4230   -6.5580 O.2     1  UNL1       -0.2010
     24  N         16.3640  -24.1350   -7.8030 N.3     1  UNL1       -0.3090
     25  H         17.3310  -24.4270   -7.9470 H       1  UNL1        0.1720
     26  C         15.6290  -23.6640   -8.9700 C.3     1  UNL1        0.1970
     27  C         16.5890  -22.9350   -9.8360 C.2     1  UNL1        0.0700
     28  C         17.8390  -23.2400  -10.3340 C.2     1  UNL1        0.0360
     29  C         18.2500  -22.1200  -11.0950 C.2     1  UNL1        0.0270
     30  C         17.2290  -21.2030  -11.0110 C.2     1  UNL1        0.1420
     31  O         16.2160  -21.6860  -10.2460 O.2     1  UNL1       -0.3250
@<TRIPOS>BOND
     1    18    17    2
     2    18    19    1
     3    17    15    1
     4    19    16    2
     5    15    14    2
     6    16    14    1
     7    16    20    1
     8    14    13    1
     9    29    30    2
    10    29    28    1
    11    30    31    1
    12    20    11    2
    13    13    12    2
    14    28    27    2
    15    31    27    1
    16    27    26    1
    17    11    12    1
    18    11     8    1
    19    26    24    1
    20     8     9    2
    21     8     7   am
    22    10     7    1
    23    25    24    1
    24     7     1    1
    25    24    21    1
    26     6     1    2
    27     6     5    1
    28     1     2    1
    29    23    21    2
    30    21     5    1
    31    21    22    2
    32     5     4    2
    33     2     3    2
    34     4     3    1
