@<TRIPOS>MOLECULE
15037_out_ligand_01.pdbqt
 30 33 0 0 0
SMALL
GASTEIGER

@<TRIPOS>ATOM
      1  C         19.6130  -21.8800  -11.3390 C.2     1  UNL1        0.0320
      2  C         19.3620  -23.0730  -10.6460 C.2     1  UNL1        0.0180
      3  C         18.1010  -23.3190  -10.0930 C.2     1  UNL1        0.0190
      4  C         17.0820  -22.3700  -10.2140 C.2     1  UNL1        0.0010
      5  C         17.3310  -21.1790  -10.9040 C.2     1  UNL1        0.0190
      6  C         18.5930  -20.9290  -11.4570 C.2     1  UNL1        0.0180
      7  C         20.9740  -21.6660  -11.9110 C.2     1  UNL1        0.2520
      8  O         21.1400  -20.8840  -12.8410 O.2     1  UNL1       -0.2680
      9  N         22.0060  -22.3600  -11.3200 N.am    1  UNL1       -0.3440
     10  H         21.8720  -22.7340  -10.3840 H       1  UNL1        0.1630
     11  C         23.4030  -22.1100  -11.6810 C.3     1  UNL1        0.1770
     12  C         24.0850  -23.3920  -12.1550 C.3     1  UNL1        0.0350
     13  C         25.2630  -23.1230  -13.0900 C.3     1  UNL1        0.0040
     14  C         26.1780  -21.9710  -12.6700 C.3     1  UNL1        0.0200
     15  C         26.4550  -21.9430  -11.1760 C.3     1  UNL1        0.1220
     16  N         25.4180  -21.3110  -10.3810 N.am    1  UNL1       -0.3590
     17  C         24.0720  -21.5250  -10.4180 C.2     1  UNL1        0.2400
     18  H         25.7030  -20.9520   -9.4760 H       1  UNL1        0.1620
     19  O         23.3990  -21.1730   -9.4420 O.2     1  UNL1       -0.2710
     20  S         15.4770  -22.7120   -9.5220 S.3     1  UNL1       -0.1240
     21  C         15.9480  -23.9590   -8.2710 C.3     1  UNL1        0.1400
     22  C         16.5080  -23.3090   -7.0530 C.2     1  UNL1        0.0620
     23  C         16.0740  -23.3900   -5.7410 C.2     1  UNL1        0.1260
     24  N         16.9300  -22.6030   -5.0140 N.pl3   1  UNL1       -0.3160
     25  C         16.9380  -22.3240   -3.6500 C.2     1  UNL1        0.0980
     26  C         17.8610  -22.0880   -5.9100 C.2     1  UNL1        0.1340
     27  C         17.8870  -21.5130   -3.1530 C.2     1  UNL1        0.0180
     28  C         18.8800  -20.9530   -4.0590 C.2     1  UNL1        0.0050
     29  C         18.8670  -21.2290   -5.3790 C.2     1  UNL1        0.0510
     30  N         17.6310  -22.5070   -7.1370 N.2     1  UNL1       -0.2330
@<TRIPOS>BOND
     1    13    14    1
     2    13    12    1
     3     8     7    2
     4    14    15    1
     5    12    11    1
     6     7     1    1
     7     7     9   am
     8    11     9    1
     9    11    17    1
    10     6     1    2
    11     6     5    1
    12     1     2    1
    13     9    10    1
    14    15    16    1
    15     5     4    2
    16     2     3    2
    17    17    16   am
    18    17    19    2
    19    16    18    1
    20     4     3    1
    21     4    20    1
    22    20    21    1
    23    21    22    1
    24    30    22    1
    25    30    26    2
    26    22    23    2
    27    26    29    1
    28    26    24    1
    29    23    24    1
    30    29    28    2
    31    24    25    1
    32    28    27    1
    33    25    27    2
