@<TRIPOS>MOLECULE
15040_out_ligand_01.pdbqt
 34 37 0 0 0
SMALL
GASTEIGER

@<TRIPOS>ATOM
      1  C         19.3750  -22.2670   -9.8060 C.2     1  UNL1        0.0340
      2  C         18.6140  -21.4200  -10.6200 C.2     1  UNL1        0.0170
      3  C         19.1390  -20.9780  -11.8320 C.2     1  UNL1        0.0030
      4  C         20.4190  -21.3780  -12.2240 C.2     1  UNL1        0.0290
      5  C         21.1900  -22.2220  -11.4130 C.2     1  UNL1        0.0350
      6  C         20.6630  -22.6580  -10.1960 C.2     1  UNL1        0.0460
      7  C         18.8440  -22.7410   -8.5000 C.2     1  UNL1        0.2560
      8  O         18.6630  -23.9400   -8.3430 O.2     1  UNL1       -0.2670
      9  N         18.5920  -21.7310   -7.5890 N.am    1  UNL1       -0.3230
     10  H         18.6880  -20.7810   -7.9260 H       1  UNL1        0.1690
     11  C         18.1300  -21.8700   -6.2640 C.2     1  UNL1        0.0350
     12  C         18.8930  -21.2690   -5.2560 C.2     1  UNL1        0.0290
     13  C         18.5080  -21.3620   -3.9170 C.2     1  UNL1        0.0030
     14  C         17.3540  -22.0610   -3.5720 C.2     1  UNL1        0.0160
     15  C         16.5800  -22.6810   -4.5630 C.2     1  UNL1        0.0500
     16  C         16.9760  -22.5720   -5.9090 C.2     1  UNL1        0.0450
     17  C         15.3180  -23.4260   -4.2030 C.3     1  UNL1        0.4170
     18  F         15.4900  -24.2870   -3.1590 F       1  UNL1       -0.1660
     19  F         14.3090  -22.5900   -3.8310 F       1  UNL1       -0.1660
     20  F         14.8280  -24.1820   -5.2240 F       1  UNL1       -0.1660
     21  N         22.4690  -22.5720  -11.8910 N.am    1  UNL1       -0.3230
     22  C         23.6850  -22.0420  -11.5020 C.2     1  UNL1        0.2570
     23  O         23.8930  -21.1630  -10.6780 O.2     1  UNL1       -0.2670
     24  H         22.5010  -23.2870  -12.6080 H       1  UNL1        0.1690
     25  C         24.8430  -22.6120  -12.2340 C.2     1  UNL1        0.0430
     26  C         25.6300  -23.5280  -11.5230 C.2     1  UNL1        0.0180
     27  C         26.7700  -24.0630  -12.1110 C.2     1  UNL1        0.0020
     28  C         27.1200  -23.6850  -13.4070 C.2     1  UNL1        0.0120
     29  C         26.3300  -22.7860  -14.1430 C.2     1  UNL1       -0.0250
     30  C         26.6930  -22.4340  -15.4540 C.2     1  UNL1        0.0120
     31  C         25.1580  -22.2380  -13.5660 C.2     1  UNL1       -0.0100
     32  C         25.9070  -21.5640  -16.2090 C.2     1  UNL1        0.0010
     33  C         24.7420  -21.0390  -15.6660 C.2     1  UNL1        0.0010
     34  C         24.3680  -21.3740  -14.3630 C.2     1  UNL1        0.0130
@<TRIPOS>BOND
     1    32    33    1
     2    32    30    2
     3    33    34    2
     4    30    29    1
     5    34    31    1
     6    29    31    1
     7    29    28    2
     8    31    25    2
     9    28    27    1
    10    24    21    1
    11    25    26    1
    12    25    22    1
    13     4     3    2
    14     4     5    1
    15    27    26    2
    16    21    22   am
    17    21     5    1
    18     3     2    1
    19    22    23    2
    20     5     6    2
    21     2     1    2
    22     6     1    1
    23     1     7    1
    24     7     8    2
    25     7     9   am
    26    10     9    1
    27     9    11    1
    28    11    16    2
    29    11    12    1
    30    16    15    1
    31    12    13    2
    32    20    17    1
    33    15    17    1
    34    15    14    2
    35    17    19    1
    36    17    18    1
    37    13    14    1
