@<TRIPOS>MOLECULE
1504_out_ligand_01.pdbqt
 33 36 0 0 0
SMALL
GASTEIGER

@<TRIPOS>ATOM
      1  C         21.2650  -23.0850   -9.7960 C.2     1  UNL1       -0.0380
      2  C         20.9390  -22.4220  -10.9970 C.2     1  UNL1        0.0090
      3  C         19.6390  -21.9820  -11.2460 C.2     1  UNL1        0.0100
      4  C         18.6710  -22.2060  -10.2800 C.2     1  UNL1       -0.0290
      5  C         18.9760  -22.8470   -9.0800 C.2     1  UNL1        0.0440
      6  C         20.2660  -23.2890   -8.8260 C.2     1  UNL1        0.0390
      7  N         17.8310  -22.9150   -8.2560 N.am    1  UNL1       -0.3090
      8  C         17.8170  -23.4310   -6.9650 C.2     1  UNL1        0.2580
      9  O         18.7450  -24.0160   -6.4120 O.2     1  UNL1       -0.2670
     10  C         16.6650  -22.4590   -9.0640 C.3     1  UNL1        0.0930
     11  C         15.7840  -23.6410   -9.4800 C.3     1  UNL1        0.0330
     12  C         17.2490  -21.7450  -10.3030 C.3     1  UNL1        0.0660
     13  C         22.6810  -23.5360   -9.5290 C.3     1  UNL1        0.1630
     14  N         23.5390  -23.3100  -10.6740 N.am    1  UNL1       -0.3390
     15  C         24.0080  -22.0490  -10.9780 C.2     1  UNL1        0.3210
     16  N         24.7570  -22.0710  -12.1360 N.am    1  UNL1       -0.3080
     17  O         23.7760  -21.0780  -10.2710 O.2     1  UNL1       -0.2470
     18  H         25.0060  -22.9910  -12.4580 H       1  UNL1        0.1700
     19  H         23.4400  -23.9660  -11.4340 H       1  UNL1        0.1640
     20  C         25.3530  -20.9770  -12.8070 C.2     1  UNL1        0.0420
     21  C         26.3760  -20.2160  -12.2300 C.2     1  UNL1        0.0300
     22  C         26.9510  -19.1400  -12.9140 C.2     1  UNL1        0.0090
     23  C         26.5180  -18.8040  -14.1970 C.2     1  UNL1       -0.0610
     24  C         27.1190  -17.6320  -14.9150 C.3     1  UNL1        0.0480
     25  C         25.4780  -19.5400  -14.7700 C.2     1  UNL1        0.0150
     26  C         24.8890  -20.6260  -14.0920 C.2     1  UNL1       -0.0350
     27  C         23.7790  -21.3750  -14.7800 C.3     1  UNL1        0.0500
     28  C         16.5840  -23.2660   -6.1620 C.2     1  UNL1        0.0320
     29  C         16.4890  -22.2540   -5.2010 C.2     1  UNL1        0.0170
     30  C         15.3290  -22.1340   -4.4350 C.2     1  UNL1        0.0010
     31  C         14.2820  -23.0400   -4.6070 C.2     1  UNL1        0.0000
     32  C         14.3940  -24.0730   -5.5390 C.2     1  UNL1        0.0010
     33  C         15.5490  -24.1940   -6.3130 C.2     1  UNL1        0.0170
@<TRIPOS>BOND
     1    24    23    1
     2    27    26    1
     3    25    23    2
     4    25    26    1
     5    23    22    1
     6    26    20    2
     7    22    21    2
     8    20    21    1
     9    20    16    1
    10    18    16    1
    11    16    15   am
    12    19    14    1
    13     3     2    1
    14     3     4    2
    15     2     1    2
    16    15    14   am
    17    15    17    2
    18    14    13    1
    19    12     4    1
    20    12    10    1
    21     4     5    1
    22     1    13    1
    23     1     6    1
    24    11    10    1
    25     5     6    2
    26     5     7    1
    27    10     7    1
    28     7     8   am
    29     8     9    2
    30     8    28    1
    31    33    28    2
    32    33    32    1
    33    28    29    1
    34    32    31    2
    35    29    30    2
    36    31    30    1
