@<TRIPOS>MOLECULE
15041_out_ligand_01.pdbqt
 31 33 0 0 0
SMALL
GASTEIGER

@<TRIPOS>ATOM
      1  N         21.8270  -22.4960   -9.7290 N.am    1  UNL1       -0.3230
      2  C         21.4350  -23.5710   -8.9500 C.2     1  UNL1        0.2560
      3  O         21.9650  -24.6750   -8.9070 O.2     1  UNL1       -0.2670
      4  H         21.2050  -21.6970   -9.7510 H       1  UNL1        0.1690
      5  C         22.9530  -22.4200  -10.5730 C.2     1  UNL1        0.0360
      6  C         24.2260  -22.8700  -10.2240 C.2     1  UNL1        0.0320
      7  C         25.3000  -22.7530  -11.1170 C.2     1  UNL1        0.0400
      8  C         25.1190  -22.1900  -12.3820 C.2     1  UNL1        0.0910
      9  C         23.8470  -21.7260  -12.7260 C.2     1  UNL1        0.1090
     10  C         22.7710  -21.8410  -11.8320 C.2     1  UNL1        0.0570
     11  O         26.1370  -22.0100  -13.2780 O.2     1  UNL1       -0.3540
     12  C         26.7950  -23.1950  -13.7250 C.3     1  UNL1        0.2100
     13  S         23.5400  -20.9930  -14.3090 S.O2    1  UNL1        0.2420
     14  O         23.8120  -21.9830  -15.3270 O.2     1  UNL1       -0.2060
     15  O         22.2750  -20.2960  -14.2430 O.2     1  UNL1       -0.2060
     16  N         24.7330  -19.8090  -14.4520 N.3     1  UNL1       -0.2250
     17  H         24.7300  -19.3800  -15.3790 H       1  UNL1        0.1360
     18  H         24.5410  -19.0950  -13.7460 H       1  UNL1        0.1360
     19  C         20.2150  -23.3410   -8.1240 C.2     1  UNL1        0.0320
     20  C         19.1870  -24.2860   -8.1720 C.2     1  UNL1        0.0190
     21  C         18.0200  -24.1150   -7.4130 C.2     1  UNL1        0.0320
     22  C         17.8660  -22.9960   -6.5900 C.2     1  UNL1        0.0580
     23  C         18.9250  -22.0660   -6.5220 C.2     1  UNL1        0.0320
     24  C         20.0890  -22.2360   -7.2800 C.2     1  UNL1        0.0190
     25  N         16.6990  -22.7640   -5.7890 N.pl3   1  UNL1       -0.2380
     26  N         15.6050  -22.2120   -6.3910 N.2     1  UNL1       -0.1720
     27  C         14.7070  -22.0310   -5.4260 C.2     1  UNL1        0.0530
     28  C         13.3960  -21.4110   -5.7320 C.3     1  UNL1        0.0720
     29  C         15.1750  -22.5070   -4.1940 C.2     1  UNL1        0.0550
     30  C         16.4390  -23.0080   -4.4410 C.2     1  UNL1        0.0350
     31  C         17.3200  -23.7060   -3.4750 C.3     1  UNL1        0.0700
@<TRIPOS>BOND
     1    17    16    1
     2    14    13    2
     3    16    13    1
     4    16    18    1
     5    13    15    2
     6    13     9    1
     7    12    11    1
     8    11     8    1
     9     9     8    2
    10     9    10    1
    11     8     7    1
    12    10     5    2
    13     7     6    2
    14     5     6    1
    15     5     1    1
    16     4     1    1
    17     1     2   am
    18     2     3    2
    19     2    19    1
    20    20    19    2
    21    20    21    1
    22    19    24    1
    23    21    22    2
    24    24    23    2
    25    22    23    1
    26    22    25    1
    27    26    25    1
    28    26    27    2
    29    25    30    1
    30    28    27    1
    31    27    29    1
    32    30    29    2
    33    30    31    1
