@<TRIPOS>MOLECULE
15057_out_ligand_01.pdbqt
 32 35 0 0 0
SMALL
GASTEIGER

@<TRIPOS>ATOM
      1  N         20.2320  -21.9210  -10.5470 N.am    1  UNL1       -0.3270
      2  C         19.3090  -22.7850   -9.9750 C.2     1  UNL1        0.2260
      3  O         19.5070  -23.9550   -9.6580 O.2     1  UNL1       -0.2730
      4  H         19.8900  -20.9990  -10.7980 H       1  UNL1        0.1690
      5  C         21.5750  -22.1950  -10.8760 C.2     1  UNL1        0.0360
      6  C         22.4380  -22.9480  -10.0820 C.2     1  UNL1        0.0320
      7  C         23.7640  -23.1750  -10.4780 C.2     1  UNL1        0.0400
      8  C         24.2490  -22.6610  -11.6820 C.2     1  UNL1        0.0910
      9  C         23.3860  -21.8940  -12.4710 C.2     1  UNL1        0.1090
     10  C         22.0590  -21.6650  -12.0740 C.2     1  UNL1        0.0570
     11  O         25.5420  -22.8130  -12.0970 O.2     1  UNL1       -0.3540
     12  C         26.5460  -22.3890  -11.1770 C.3     1  UNL1        0.2100
     13  S         23.9290  -21.2000  -14.0080 S.O2    1  UNL1        0.2420
     14  O         23.9980  -22.2670  -14.9810 O.2     1  UNL1       -0.2060
     15  O         25.0550  -20.3360  -13.7400 O.2     1  UNL1       -0.2060
     16  N         22.6540  -20.2010  -14.4810 N.3     1  UNL1       -0.2250
     17  H         21.7620  -20.6980  -14.4780 H       1  UNL1        0.1360
     18  H         22.6120  -19.4250  -13.8160 H       1  UNL1        0.1360
     19  C         17.9500  -22.1330   -9.7560 C.3     1  UNL1        0.1440
     20  C         17.0210  -22.9550   -8.9210 C.2     1  UNL1       -0.0130
     21  C         16.0950  -23.8720   -9.3850 C.2     1  UNL1        0.1510
     22  O         15.3840  -24.4080   -8.3700 O.2     1  UNL1       -0.3210
     23  C         15.8620  -23.8690   -7.2190 C.2     1  UNL1        0.0860
     24  C         15.3740  -24.1760   -5.9540 C.2     1  UNL1        0.0390
     25  C         16.9000  -22.9770   -7.4820 C.2     1  UNL1        0.0170
     26  C         15.9820  -23.5370   -4.8740 C.2     1  UNL1        0.0150
     27  C         17.0450  -22.6420   -5.0530 C.2     1  UNL1       -0.0250
     28  C         17.6450  -22.0280   -3.9430 C.2     1  UNL1        0.0120
     29  C         17.5350  -22.3520   -6.3590 C.2     1  UNL1       -0.0120
     30  C         18.7160  -21.1480   -4.1000 C.2     1  UNL1        0.0010
     31  C         19.2090  -20.8720   -5.3710 C.2     1  UNL1        0.0010
     32  C         18.6280  -21.4680   -6.4920 C.2     1  UNL1        0.0130
@<TRIPOS>BOND
     1    14    13    2
     2    16    17    1
     3    16    13    1
     4    16    18    1
     5    13    15    2
     6    13     9    1
     7     9    10    1
     8     9     8    2
     9    11     8    1
    10    11    12    1
    11    10     5    2
    12     8     7    1
    13     5     1    1
    14     5     6    1
    15     4     1    1
    16     1     2   am
    17     7     6    2
    18     2    19    1
    19     2     3    2
    20    19    20    1
    21    21    20    2
    22    21    22    1
    23    20    25    1
    24    22    23    1
    25    25    23    2
    26    25    29    1
    27    23    24    1
    28    32    29    1
    29    32    31    2
    30    29    27    2
    31    24    26    2
    32    31    30    1
    33    27    26    1
    34    27    28    1
    35    30    28    2
