@<TRIPOS>MOLECULE
15051_out_ligand_01.pdbqt
 30 32 0 0 0
SMALL
GASTEIGER

@<TRIPOS>ATOM
      1  C         17.3560  -22.5120   -9.4390 C.2     1  UNL1        0.0770
      2  C         16.6330  -21.7230  -10.3350 C.2     1  UNL1        0.0250
      3  C         17.2960  -21.1480  -11.4150 C.2     1  UNL1        0.0040
      4  C         18.6690  -21.3530  -11.5910 C.2     1  UNL1        0.0290
      5  C         19.4010  -22.1250  -10.6840 C.2     1  UNL1        0.0360
      6  C         18.7350  -22.6970   -9.5940 C.2     1  UNL1        0.0540
      7  S         16.5280  -23.2780   -8.0640 S.O2    1  UNL1        0.2460
      8  O         15.7850  -22.2380   -7.3810 O.2     1  UNL1       -0.2060
      9  O         15.8670  -24.4720   -8.5450 O.2     1  UNL1       -0.2060
     10  N         17.8010  -23.7120   -7.0320 N.pl3   1  UNL1       -0.1790
     11  H         17.6990  -24.6870   -6.7430 H       1  UNL1        0.1460
     12  C         18.0880  -22.8350   -5.9370 C.2     1  UNL1        0.0560
     13  C         18.9080  -21.7230   -6.1290 C.2     1  UNL1        0.0270
     14  C         19.1430  -20.8460   -5.0710 C.2     1  UNL1        0.0020
     15  C         18.5570  -21.0820   -3.8280 C.2     1  UNL1        0.0030
     16  C         17.7300  -22.1940   -3.6350 C.2     1  UNL1        0.0380
     17  C         17.4830  -23.0740   -4.6900 C.2     1  UNL1        0.0900
     18  O         16.6880  -24.1920   -4.6180 O.2     1  UNL1       -0.3540
     19  C         15.3100  -23.9670   -4.3340 C.3     1  UNL1        0.2100
     20  N         20.7850  -22.3720  -10.7880 N.am    1  UNL1       -0.3230
     21  C         21.6700  -21.8570  -11.7180 C.2     1  UNL1        0.2590
     22  O         21.3750  -21.1100  -12.6470 O.2     1  UNL1       -0.2670
     23  H         21.1680  -23.0060  -10.0940 H       1  UNL1        0.1690
     24  C         23.1030  -22.2600  -11.5740 C.2     1  UNL1        0.0700
     25  C         23.6850  -23.0400  -12.5860 C.2     1  UNL1        0.0200
     26  C         25.0210  -23.4440  -12.4990 C.2     1  UNL1        0.0010
     27  C         25.7920  -23.0730  -11.3990 C.2     1  UNL1        0.0030
     28  C         25.2270  -22.3010  -10.3870 C.2     1  UNL1        0.0430
     29  C         23.8940  -21.9010  -10.4780 C.2     1  UNL1        0.1320
     30  F         23.3910  -21.1620   -9.4770 F       1  UNL1       -0.2050
@<TRIPOS>BOND
     1    22    21    2
     2    25    26    1
     3    25    24    2
     4    26    27    2
     5    21    24    1
     6    21    20   am
     7     4     3    2
     8     4     5    1
     9    24    29    1
    10     3     2    1
    11    27    28    1
    12    20     5    1
    13    20    23    1
    14     5     6    2
    15    29    28    2
    16    29    30    1
    17     2     1    2
    18     6     1    1
    19     1     7    1
    20     9     7    2
    21     7     8    2
    22     7    10    1
    23    10    11    1
    24    10    12    1
    25    13    12    2
    26    13    14    1
    27    12    17    1
    28    14    15    2
    29    17    18    1
    30    17    16    2
    31    18    19    1
    32    15    16    1
