@<TRIPOS>MOLECULE
15059_out_ligand_01.pdbqt
 33 35 0 0 0
SMALL
GASTEIGER

@<TRIPOS>ATOM
      1  C         19.0200  -21.3790  -11.3250 C.2     1  UNL1        0.2510
      2  O         18.5500  -20.5310  -12.0740 O.2     1  UNL1       -0.2680
      3  N         18.2860  -22.0440  -10.3670 N.am    1  UNL1       -0.3570
      4  H         18.6540  -22.9030   -9.9800 H       1  UNL1        0.1620
      5  C         20.4490  -21.7760  -11.4570 C.2     1  UNL1        0.0330
      6  C         21.1090  -22.5130  -10.4430 C.2     1  UNL1        0.0180
      7  C         22.4570  -22.8730  -10.5790 C.2     1  UNL1        0.0190
      8  C         23.1030  -22.4780  -11.7330 C.2     1  UNL1        0.0480
      9  C         24.4860  -22.6840  -12.1610 C.2     1  UNL1        0.2610
     10  C         22.4630  -21.7500  -12.7210 C.2     1  UNL1        0.0490
     11  N         24.6030  -22.0980  -13.3920 N.am    1  UNL1       -0.2800
     12  O         25.3250  -23.2640  -11.4990 O.2     1  UNL1       -0.2670
     13  C         23.4360  -21.4970  -13.7810 C.2     1  UNL1        0.2610
     14  O         23.1970  -20.8610  -14.7900 O.2     1  UNL1       -0.2670
     15  C         21.1380  -21.3760  -12.6130 C.2     1  UNL1        0.0350
     16  C         25.8370  -22.0360  -14.1480 C.3     1  UNL1        0.1350
     17  C         26.8760  -21.1580  -13.4480 C.3     1  UNL1        0.0200
     18  C         26.2940  -19.7940  -13.0830 C.3     1  UNL1       -0.0030
     19  C         26.5300  -19.4620  -11.6180 C.3     1  UNL1        0.0050
     20  C         16.8510  -21.8450  -10.2530 C.3     1  UNL1        0.1270
     21  C         16.1130  -23.0750   -9.7130 C.3     1  UNL1        0.0580
     22  C         16.2150  -23.2050   -8.2090 C.2     1  UNL1       -0.0570
     23  C         16.8050  -24.3390   -7.6320 C.2     1  UNL1        0.0090
     24  C         16.8750  -24.4710   -6.2440 C.2     1  UNL1        0.0250
     25  C         16.3580  -23.4600   -5.4290 C.2     1  UNL1        0.0740
     26  C         15.7570  -22.3300   -5.9900 C.2     1  UNL1        0.0250
     27  C         15.6920  -22.2040   -7.3770 C.2     1  UNL1        0.0090
     28  S         16.4050  -23.6410   -3.6700 S.O2    1  UNL1        0.2390
     29  O         15.5300  -24.7240   -3.2840 O.2     1  UNL1       -0.2060
     30  O         17.7760  -23.5570   -3.2210 O.2     1  UNL1       -0.2060
     31  N         15.6590  -22.2310   -3.1530 N.3     1  UNL1       -0.2250
     32  H         14.7010  -22.1950   -3.5000 H       1  UNL1        0.1360
     33  H         15.7340  -22.1500   -2.1380 H       1  UNL1        0.1360
@<TRIPOS>BOND
     1    14    13    2
     2    16    17    1
     3    16    11    1
     4    13    11   am
     5    13    10    1
     6    17    18    1
     7    11     9   am
     8    18    19    1
     9    10    15    1
    10    10     8    2
    11    15     5    2
    12     9     8    1
    13     9    12    2
    14     2     1    2
    15     8     7    1
    16     5     1    1
    17     5     6    1
    18     1     3   am
    19     7     6    2
    20     3    20    1
    21     3     4    1
    22    20    21    1
    23    21    22    1
    24    22    23    2
    25    22    27    1
    26    23    24    1
    27    27    26    2
    28    24    25    2
    29    26    25    1
    30    25    28    1
    31    28    29    2
    32    28    30    2
    33    28    31    1
    34    32    31    1
    35    31    33    1
