@<TRIPOS>MOLECULE
15079_out_ligand_01.pdbqt
 35 38 0 0 0
SMALL
GASTEIGER

@<TRIPOS>ATOM
      1  N         18.0940  -22.3180  -10.5290 N.am    1  UNL1       -0.3570
      2  C         18.8880  -21.4390  -11.2370 C.2     1  UNL1        0.2510
      3  O         18.4790  -20.3910  -11.7200 O.2     1  UNL1       -0.2680
      4  H         18.5220  -23.0660  -10.0010 H       1  UNL1        0.1620
      5  C         20.3230  -21.8080  -11.3710 C.2     1  UNL1        0.0330
      6  C         20.9820  -22.5770  -10.3810 C.2     1  UNL1        0.0180
      7  C         22.3320  -22.9260  -10.5270 C.2     1  UNL1        0.0190
      8  C         22.9770  -22.4930  -11.6680 C.2     1  UNL1        0.0480
      9  C         22.3310  -21.7520  -12.6410 C.2     1  UNL1        0.0490
     10  C         24.3590  -22.6920  -12.1070 C.2     1  UNL1        0.2620
     11  C         21.0010  -21.3970  -12.5300 C.2     1  UNL1        0.0350
     12  C         23.3000  -21.4740  -13.6990 C.2     1  UNL1        0.2620
     13  O         23.0490  -20.8440  -14.7080 O.2     1  UNL1       -0.2670
     14  N         24.4770  -22.0500  -13.3070 N.am    1  UNL1       -0.2740
     15  O         25.1790  -23.3330  -11.4810 O.2     1  UNL1       -0.2670
     16  C         25.7020  -21.9730  -14.0690 C.3     1  UNL1        0.2000
     17  C         26.2090  -20.5750  -14.0490 C.2     1  UNL1        0.0700
     18  C         26.3350  -19.5980  -15.0170 C.2     1  UNL1        0.0360
     19  C         26.8890  -18.4660  -14.3740 C.2     1  UNL1        0.0270
     20  C         27.0700  -18.8230  -13.0580 C.2     1  UNL1        0.1420
     21  O         26.6600  -20.1010  -12.8510 O.2     1  UNL1       -0.3250
     22  C         16.7010  -22.0090  -10.2590 C.3     1  UNL1        0.1270
     23  C         15.9380  -23.2130   -9.7010 C.3     1  UNL1        0.0580
     24  C         16.0640  -23.3070   -8.1990 C.2     1  UNL1       -0.0570
     25  C         15.5280  -22.2980   -7.3850 C.2     1  UNL1        0.0090
     26  C         15.6580  -22.3630   -5.9980 C.2     1  UNL1        0.0250
     27  C         16.3280  -23.4440   -5.4230 C.2     1  UNL1        0.0740
     28  C         16.8840  -24.4480   -6.2200 C.2     1  UNL1        0.0250
     29  C         16.7490  -24.3780   -7.6070 C.2     1  UNL1        0.0090
     30  S         16.5070  -23.5420   -3.6620 S.O2    1  UNL1        0.2390
     31  O         15.8410  -24.7380   -3.2040 O.2     1  UNL1       -0.2060
     32  O         17.8730  -23.2310   -3.3150 O.2     1  UNL1       -0.2060
     33  N         15.6010  -22.2140   -3.1560 N.3     1  UNL1       -0.2250
     34  H         15.1310  -22.3680   -2.2660 H       1  UNL1        0.1360
     35  H         14.9390  -21.9720   -3.8960 H       1  UNL1        0.1360
@<TRIPOS>BOND
     1    18    19    1
     2    18    17    2
     3    13    12    2
     4    19    20    2
     5    16    17    1
     6    16    14    1
     7    17    21    1
     8    12    14   am
     9    12     9    1
    10    14    10   am
    11    20    21    1
    12     9    11    1
    13     9     8    2
    14    11     5    2
    15    10     8    1
    16    10    15    2
    17     3     2    2
    18     8     7    1
    19     5     2    1
    20     5     6    1
    21     2     1   am
    22     1    22    1
    23     1     4    1
    24     7     6    2
    25    22    23    1
    26    23    24    1
    27    24    29    2
    28    24    25    1
    29    29    28    1
    30    25    26    2
    31    28    27    2
    32    26    27    1
    33    27    30    1
    34    35    33    1
    35    30    32    2
    36    30    31    2
    37    30    33    1
    38    33    34    1
