@<TRIPOS>MOLECULE
15072_out_ligand_01.pdbqt
 32 35 0 0 0
SMALL
GASTEIGER

@<TRIPOS>ATOM
      1  C         18.4750  -21.9420  -10.7760 C.2     1  UNL1       -0.0360
      2  C         17.1680  -21.6620  -10.3580 C.2     1  UNL1        0.0130
      3  C         16.6020  -22.3720   -9.2970 C.2     1  UNL1        0.0250
      4  C         17.3430  -23.3770   -8.6680 C.2     1  UNL1        0.0750
      5  C         18.6430  -23.6740   -9.0810 C.2     1  UNL1        0.0250
      6  C         19.2050  -22.9560  -10.1380 C.2     1  UNL1        0.0130
      7  C         19.0640  -21.1770  -11.8800 C.2     1  UNL1        0.0170
      8  C         20.3760  -20.9940  -12.1010 C.2     1  UNL1        0.0750
      9  C         21.4850  -21.4880  -11.2490 C.2     1  UNL1        0.2410
     10  O         21.6200  -21.0770  -10.1040 O.2     1  UNL1       -0.2690
     11  N         22.2570  -22.4520  -11.8320 N.am    1  UNL1       -0.3530
     12  H         21.9930  -22.8180  -12.7360 H       1  UNL1        0.1630
     13  C         23.3330  -23.0980  -11.1160 C.3     1  UNL1        0.1630
     14  C         24.6550  -22.4610  -11.4640 C.2     1  UNL1       -0.0190
     15  C         25.0620  -21.3280  -10.7310 C.2     1  UNL1        0.0100
     16  C         26.2460  -20.6580  -11.0410 C.2     1  UNL1        0.0010
     17  C         27.0440  -21.1090  -12.0890 C.2     1  UNL1        0.0020
     18  C         26.6610  -22.2340  -12.8210 C.2     1  UNL1        0.0240
     19  C         25.4730  -22.9050  -12.5160 C.2     1  UNL1        0.0420
     20 CL         25.0580  -24.2690  -13.4970 Cl      1  UNL1       -0.0840
     21  S         16.6120  -24.2690   -7.3100 S.O2    1  UNL1        0.2480
     22  O         17.7050  -24.9360   -6.6330 O.2     1  UNL1       -0.2050
     23  O         15.4810  -25.0130   -7.8270 O.2     1  UNL1       -0.2050
     24  N         16.0110  -22.9980   -6.3390 N.pl3   1  UNL1       -0.1710
     25  C         14.8630  -23.3600   -5.4320 C.3     1  UNL1        0.1180
     26  C         15.3500  -23.1710   -3.9850 C.3     1  UNL1        0.0560
     27  C         16.6170  -22.4090   -4.1630 C.2     1  UNL1       -0.0350
     28  C         17.4160  -21.8460   -3.1800 C.2     1  UNL1        0.0090
     29  C         16.9910  -22.3660   -5.5030 C.2     1  UNL1        0.0310
     30  C         18.5980  -21.2150   -3.5700 C.2     1  UNL1        0.0010
     31  C         18.9590  -21.1480   -4.9250 C.2     1  UNL1        0.0020
     32  C         18.1480  -21.7250   -5.9050 C.2     1  UNL1        0.0250
@<TRIPOS>BOND
     1    20    19    1
     2    18    19    1
     3    18    17    2
     4    12    11    1
     5    19    14    2
     6     8     7    2
     7     8     9    1
     8    17    16    1
     9     7     1    1
    10    11     9   am
    11    11    13    1
    12    14    13    1
    13    14    15    1
    14     9    10    2
    15    16    15    2
    16     1     2    2
    17     1     6    1
    18     2     3    1
    19     6     5    2
    20     3     4    2
    21     5     4    1
    22     4    21    1
    23    23    21    2
    24    21    22    2
    25    21    24    1
    26    24    29    1
    27    24    25    1
    28    32    29    1
    29    32    31    2
    30    29    27    2
    31    25    26    1
    32    31    30    1
    33    27    26    1
    34    27    28    1
    35    30    28    2
