@<TRIPOS>MOLECULE
15077_out_ligand_01.pdbqt
 36 39 0 0 0
SMALL
GASTEIGER

@<TRIPOS>ATOM
      1  C         17.6880  -23.5190   -8.5890 C.2     1  UNL1        0.0820
      2  C         19.0850  -23.6680   -8.6650 C.2     1  UNL1        0.0420
      3  C         19.7920  -23.0810   -9.7180 C.2     1  UNL1        0.0330
      4  C         19.1050  -22.3630  -10.7000 C.2     1  UNL1        0.0170
      5  C         17.7200  -22.2010  -10.6130 C.2     1  UNL1        0.0090
      6  C         16.9890  -22.7700   -9.5580 C.2     1  UNL1       -0.0390
      7  C         15.5040  -22.5360   -9.5120 C.3     1  UNL1        0.0500
      8  C         21.2680  -23.2320   -9.8470 C.2     1  UNL1        0.2560
      9  O         21.8320  -24.0230   -9.1020 O.2     1  UNL1       -0.2670
     10  N         21.8410  -22.4700  -10.8480 N.am    1  UNL1       -0.3230
     11  H         21.2130  -21.9830  -11.4740 H       1  UNL1        0.1690
     12  C         23.2120  -22.3880  -11.1740 C.2     1  UNL1        0.0370
     13  C         24.0230  -21.6070  -10.3350 C.2     1  UNL1        0.0290
     14  C         25.3920  -21.4740  -10.5840 C.2     1  UNL1        0.0050
     15  C         25.9660  -22.1200  -11.6750 C.2     1  UNL1        0.0370
     16  C         25.1620  -22.8900  -12.5150 C.2     1  UNL1        0.0780
     17  C         23.7970  -23.0430  -12.2590 C.2     1  UNL1        0.0660
     18  O         25.7030  -23.5850  -13.5720 O.2     1  UNL1       -0.3110
     19  C         25.4530  -23.0800  -14.8280 C.2     1  UNL1        0.0760
     20  C         24.8870  -23.9510  -15.7580 C.2     1  UNL1        0.0370
     21  C         24.5630  -23.4920  -17.0350 C.2     1  UNL1        0.0030
     22  C         24.7940  -22.1590  -17.3760 C.2     1  UNL1        0.0000
     23  C         25.3440  -21.2830  -16.4400 C.2     1  UNL1        0.0030
     24  C         25.6710  -21.7400  -15.1620 C.2     1  UNL1        0.0370
     25  S         16.8450  -24.3040   -7.2150 S.O2    1  UNL1        0.2480
     26  O         17.8620  -24.9620   -6.4220 O.2     1  UNL1       -0.2050
     27  O         15.7340  -25.0600   -7.7620 O.2     1  UNL1       -0.2050
     28  N         16.1940  -22.9670   -6.3550 N.pl3   1  UNL1       -0.1720
     29  C         14.8110  -23.1660   -5.8230 C.3     1  UNL1        0.1090
     30  C         14.0700  -21.8400   -5.7820 C.3     1  UNL1        0.0220
     31  C         17.1210  -22.3910   -5.4070 C.2     1  UNL1        0.0250
     32  C         18.0900  -21.5110   -5.8930 C.2     1  UNL1        0.0240
     33  C         18.9720  -20.8830   -5.0120 C.2     1  UNL1        0.0020
     34  C         18.8810  -21.1290   -3.6430 C.2     1  UNL1        0.0000
     35  C         17.9070  -21.9960   -3.1540 C.2     1  UNL1        0.0020
     36  C         17.0220  -22.6240   -4.0330 C.2     1  UNL1        0.0240
@<TRIPOS>BOND
     1    22    21    2
     2    22    23    1
     3    21    20    1
     4    23    24    2
     5    20    19    2
     6    24    19    1
     7    19    18    1
     8    18    16    1
     9    16    17    1
    10    16    15    2
    11    17    12    2
    12    15    14    1
    13    11    10    1
    14    12    10    1
    15    12    13    1
    16    10     8   am
    17     4     5    2
    18     4     3    1
    19     5     6    1
    20    14    13    2
    21     8     3    1
    22     8     9    2
    23     3     2    2
    24     6     7    1
    25     6     1    2
    26     2     1    1
    27     1    25    1
    28    27    25    2
    29    25    26    2
    30    25    28    1
    31    28    29    1
    32    28    31    1
    33    32    31    2
    34    32    33    1
    35    29    30    1
    36    31    36    1
    37    33    34    2
    38    36    35    2
    39    34    35    1
