@<TRIPOS>MOLECULE
15087_out_ligand_01.pdbqt
 37 40 0 0 0
SMALL
GASTEIGER

@<TRIPOS>ATOM
      1  C         20.7930  -22.6840   -7.6980 C.2     1  UNL1        0.0320
      2  C         21.0880  -23.8460   -8.4240 C.2     1  UNL1        0.0190
      3  C         22.2450  -23.9060   -9.2070 C.2     1  UNL1        0.0310
      4  C         23.1120  -22.8130   -9.2540 C.2     1  UNL1        0.0420
      5  C         22.8280  -21.6580   -8.5290 C.2     1  UNL1        0.0310
      6  C         21.6750  -21.5970   -7.7440 C.2     1  UNL1        0.0190
      7  N         24.2620  -22.8590  -10.0860 N.pl3   1  UNL1       -0.2810
      8  H         24.9890  -23.5320   -9.8460 H       1  UNL1        0.1790
      9  S         24.0250  -22.8110  -11.7600 S.O2    1  UNL1        0.2630
     10  O         24.6790  -23.9880  -12.2920 O.2     1  UNL1       -0.2000
     11  O         22.6330  -22.5360  -12.0450 O.2     1  UNL1       -0.2000
     12  C         25.0010  -21.4080  -12.2460 C.2     1  UNL1        0.0820
     13  C         25.9000  -20.8290  -11.3140 C.2     1  UNL1        0.0280
     14  C         26.6730  -19.7170  -11.6670 C.2     1  UNL1        0.0330
     15  C         26.5040  -19.2280  -12.9410 C.ar    1  UNL1        0.0630
     16  N         27.1200  -18.1520  -13.5680 N.ar    1  UNL1       -0.3070
     17  C         25.6080  -19.7970  -13.8490 C.ar    1  UNL1        0.0640
     18  C         26.6140  -18.0360  -14.8710 C.ar    1  UNL1        0.3250
     19  H         27.8110  -17.5310  -13.1810 H       1  UNL1        0.1700
     20  O         26.9280  -17.2030  -15.7020 O.2     1  UNL1       -0.2470
     21  N         25.6770  -19.0670  -15.0310 N.ar    1  UNL1       -0.3060
     22  H         25.1510  -19.2170  -15.8770 H       1  UNL1        0.1700
     23  C         24.8350  -20.8880  -13.5370 C.2     1  UNL1        0.0570
     24  C         19.5750  -22.5730   -6.8490 C.2     1  UNL1        0.2510
     25  O         19.3310  -21.5230   -6.2640 O.2     1  UNL1       -0.2680
     26  N         18.7560  -23.6810   -6.8010 N.am    1  UNL1       -0.3570
     27  H         18.8960  -24.4300   -7.4650 H       1  UNL1        0.1620
     28  C         17.5050  -23.6640   -6.0660 C.3     1  UNL1        0.1230
     29  C         16.3690  -23.0810   -6.9060 C.3     1  UNL1        0.0300
     30  C         16.1820  -23.7830   -8.2510 C.3     1  UNL1        0.0810
     31  S         15.4900  -22.7210   -9.5700 S.3     1  UNL1       -0.1300
     32  C         16.9800  -22.1600  -10.3720 C.2     1  UNL1        0.0000
     33  C         18.1260  -22.9600  -10.3060 C.2     1  UNL1        0.0180
     34  C         19.3090  -22.5520  -10.9250 C.2     1  UNL1        0.0010
     35  C         19.3500  -21.3470  -11.6250 C.2     1  UNL1        0.0000
     36  C         18.2080  -20.5530  -11.7090 C.2     1  UNL1        0.0010
     37  C         17.0240  -20.9610  -11.0890 C.2     1  UNL1        0.0180
@<TRIPOS>BOND
     1    22    21    1
     2    20    18    2
     3    21    18   ar
     4    21    17   ar
     5    18    16   ar
     6    17    23    1
     7    17    15   ar
     8    16    19    1
     9    16    15   ar
    10    23    12    2
    11    15    14    1
    12    10     9    2
    13    12     9    1
    14    12    13    1
    15    11     9    2
    16     9     7    1
    17    36    35    2
    18    36    37    1
    19    14    13    2
    20    35    34    1
    21    37    32    2
    22    34    33    2
    23    32    33    1
    24    32    31    1
    25     7     8    1
    26     7     4    1
    27    31    30    1
    28     4     3    2
    29     4     5    1
    30     3     2    1
    31     5     6    2
    32     2     1    2
    33    30    29    1
    34     6     1    1
    35     1    24    1
    36    27    26    1
    37    29    28    1
    38    24    26   am
    39    24    25    2
    40    26    28    1
