@<TRIPOS>MOLECULE
15083_out_ligand_01.pdbqt
 36 39 0 0 0
SMALL
GASTEIGER

@<TRIPOS>ATOM
      1  C         19.8570  -23.2730   -9.4900 C.2     1  UNL1        0.0330
      2  C         19.3130  -22.3550  -10.4000 C.2     1  UNL1        0.0170
      3  C         17.9550  -22.0250  -10.3440 C.2     1  UNL1        0.0030
      4  C         17.1310  -22.6130   -9.3850 C.2     1  UNL1        0.0250
      5  C         17.6740  -23.5380   -8.4890 C.2     1  UNL1        0.0760
      6  C         19.0290  -23.8800   -8.5400 C.2     1  UNL1        0.0410
      7  C         21.2980  -23.6530   -9.5150 C.2     1  UNL1        0.2510
      8  N         22.1510  -22.8000  -10.1850 N.am    1  UNL1       -0.3570
      9  H         21.8230  -21.8890  -10.4750 H       1  UNL1        0.1620
     10  O         21.6790  -24.6590   -8.9290 O.2     1  UNL1       -0.2680
     11  C         23.5830  -23.0430  -10.2050 C.3     1  UNL1        0.1270
     12  C         24.3490  -21.9300  -10.9240 C.3     1  UNL1        0.0580
     13  C         24.4130  -22.1650  -12.4130 C.2     1  UNL1       -0.0570
     14  C         25.1990  -23.2030  -12.9380 C.2     1  UNL1        0.0090
     15  C         25.2650  -23.4110  -14.3170 C.2     1  UNL1        0.0250
     16  C         24.5490  -22.5720  -15.1730 C.2     1  UNL1        0.0740
     17  C         23.7570  -21.5390  -14.6670 C.2     1  UNL1        0.0250
     18  C         23.6980  -21.3340  -13.2870 C.2     1  UNL1        0.0090
     19  S         24.6150  -22.8280  -16.9260 S.O2    1  UNL1        0.2390
     20  O         23.4060  -23.4960  -17.3380 O.2     1  UNL1       -0.2060
     21  O         25.9320  -23.3150  -17.2720 O.2     1  UNL1       -0.2060
     22  N         24.5610  -21.2440  -17.5000 N.3     1  UNL1       -0.2250
     23  H         25.0480  -20.6370  -16.8380 H       1  UNL1        0.1360
     24  H         23.6150  -20.9190  -17.6920 H       1  UNL1        0.1360
     25  S         16.6390  -24.3090   -7.2630 S.O2    1  UNL1        0.2480
     26  O         17.5200  -25.1000   -6.4310 O.2     1  UNL1       -0.2050
     27  O         15.5120  -24.9070   -7.9530 O.2     1  UNL1       -0.2050
     28  N         16.0620  -22.9550   -6.3930 N.pl3   1  UNL1       -0.1710
     29  C         14.8460  -23.2010   -5.5400 C.3     1  UNL1        0.1180
     30  C         15.2780  -23.0210   -4.0760 C.3     1  UNL1        0.0560
     31  C         16.5800  -22.3070   -4.2140 C.2     1  UNL1       -0.0350
     32  C         17.3470  -21.7290   -3.2140 C.2     1  UNL1        0.0090
     33  C         17.0260  -22.3350   -5.5320 C.2     1  UNL1        0.0310
     34  C         18.5710  -21.1550   -3.5660 C.2     1  UNL1        0.0010
     35  C         19.0090  -21.1700   -4.8990 C.2     1  UNL1        0.0020
     36  C         18.2310  -21.7630   -5.8970 C.2     1  UNL1        0.0250
@<TRIPOS>BOND
     1    24    22    1
     2    22    19    1
     3    22    23    1
     4    20    19    2
     5    21    19    2
     6    19    16    1
     7    16    17    2
     8    16    15    1
     9    17    18    1
    10    15    14    2
    11    18    13    2
    12    14    13    1
    13    13    12    1
    14    12    11    1
    15     9     8    1
    16     2     3    1
    17     2     1    2
    18     3     4    2
    19    11     8    1
    20     8     7   am
    21     7     1    1
    22     7    10    2
    23     1     6    1
    24     4     5    1
    25     6     5    2
    26     5    25    1
    27    27    25    2
    28    25    26    2
    29    25    28    1
    30    28    29    1
    31    28    33    1
    32    36    33    1
    33    36    35    2
    34    29    30    1
    35    33    31    2
    36    35    34    1
    37    31    30    1
    38    31    32    1
    39    34    32    2
