@<TRIPOS>MOLECULE
15080_out_ligand_01.pdbqt
 34 36 0 0 0
SMALL
GASTEIGER

@<TRIPOS>ATOM
      1  C         21.7700  -22.1890   -9.8740 C.2     1  UNL1        0.2520
      2  O         22.1240  -21.5370   -8.9030 O.2     1  UNL1       -0.2680
      3  N         22.5730  -23.0750  -10.5580 N.am    1  UNL1       -0.3570
      4  H         22.1550  -23.6850  -11.2490 H       1  UNL1        0.1620
      5  C         20.3930  -22.0680  -10.3930 C.2     1  UNL1        0.0460
      6  C         20.1970  -21.3420  -11.5800 C.2     1  UNL1        0.0180
      7  C         18.9060  -21.1290  -12.0630 C.2     1  UNL1        0.0010
      8  C         17.8070  -21.6250  -11.3620 C.2     1  UNL1        0.0010
      9  C         17.9990  -22.3480  -10.1820 C.2     1  UNL1        0.0160
     10  C         19.2930  -22.5870   -9.6970 C.2     1  UNL1        0.0300
     11  C         19.4110  -23.4270   -8.4780 C.2     1  UNL1        0.1940
     12  O         20.0080  -24.4970   -8.5470 O.2     1  UNL1       -0.2870
     13  C         18.9080  -22.9330   -7.1670 C.2     1  UNL1        0.0210
     14  C         17.9630  -23.6670   -6.4270 C.2     1  UNL1       -0.0480
     15  C         17.5380  -23.1580   -5.1920 C.2     1  UNL1        0.0080
     16  C         17.4090  -24.9780   -6.9120 C.3     1  UNL1        0.0490
     17  C         18.0320  -21.9450   -4.7050 C.2     1  UNL1        0.0070
     18  C         18.9850  -21.2230   -5.4300 C.2     1  UNL1       -0.0610
     19  C         19.5010  -19.9130   -4.9140 C.3     1  UNL1        0.0480
     20  C         19.4160  -21.7220   -6.6650 C.2     1  UNL1        0.0220
     21  C         23.9080  -23.3730  -10.0800 C.3     1  UNL1        0.1270
     22  C         24.9940  -22.5790  -10.8140 C.3     1  UNL1        0.0580
     23  C         24.9010  -22.6180  -12.3250 C.2     1  UNL1       -0.0570
     24  C         25.3610  -23.7470  -13.0220 C.2     1  UNL1        0.0090
     25  C         25.2850  -23.8040  -14.4140 C.2     1  UNL1        0.0250
     26  C         24.7590  -22.7180  -15.1190 C.2     1  UNL1        0.0740
     27  C         24.3000  -21.5860  -14.4450 C.2     1  UNL1        0.0250
     28  C         24.3830  -21.5350  -13.0520 C.2     1  UNL1        0.0090
     29  S         24.6460  -22.7990  -16.8860 S.O2    1  UNL1        0.2390
     30  O         23.3780  -23.3950  -17.2370 O.2     1  UNL1       -0.2060
     31  O         25.9030  -23.2870  -17.4020 O.2     1  UNL1       -0.2060
     32  N         24.5140  -21.1700  -17.2890 N.3     1  UNL1       -0.2250
     33  H         25.3870  -20.6550  -17.1770 H       1  UNL1        0.1360
     34  H         23.7540  -20.7570  -16.7470 H       1  UNL1        0.1360
@<TRIPOS>BOND
     1    31    29    2
     2    32    33    1
     3    32    29    1
     4    32    34    1
     5    30    29    2
     6    29    26    1
     7    26    27    2
     8    26    25    1
     9    27    28    1
    10    25    24    2
    11    28    23    2
    12    24    23    1
    13    23    22    1
    14     7     6    1
    15     7     8    2
    16     6     5    2
    17     8     9    1
    18     4     3    1
    19    22    21    1
    20     3    21    1
    21     3     1   am
    22     5     1    1
    23     5    10    1
    24     9    10    2
    25     1     2    2
    26    10    11    1
    27    12    11    2
    28    11    13    1
    29    13    20    2
    30    13    14    1
    31    16    14    1
    32    20    18    1
    33    14    15    2
    34    18    19    1
    35    18    17    2
    36    15    17    1
