@<TRIPOS>MOLECULE
15103_out_ligand_01.pdbqt
 32 34 0 0 0
SMALL
GASTEIGER

@<TRIPOS>ATOM
      1  C         19.2670  -22.7280  -10.1160 C.2     1  UNL1        0.0360
      2  C         18.9480  -21.9140  -11.2100 C.2     1  UNL1        0.0290
      3  C         19.9550  -21.3070  -11.9690 C.2     1  UNL1        0.0040
      4  C         21.2940  -21.5000  -11.6350 C.2     1  UNL1        0.0250
      5  C         21.6140  -22.2970  -10.5320 C.2     1  UNL1        0.0810
      6  C         20.6130  -22.9230   -9.7820 C.2     1  UNL1        0.0540
      7  N         18.3080  -23.3860   -9.3180 N.am    1  UNL1       -0.3240
      8  C         17.0590  -22.9210   -8.9680 C.2     1  UNL1        0.2450
      9  O         16.5410  -21.8510   -9.2510 O.2     1  UNL1       -0.2680
     10  H         18.6000  -24.2620   -8.9050 H       1  UNL1        0.1690
     11  C         16.3530  -23.8990   -8.1010 C.2     1  UNL1        0.0750
     12  C         16.4090  -23.8640   -6.7560 C.2     1  UNL1        0.0190
     13  C         17.1890  -22.9100   -5.9490 C.2     1  UNL1       -0.0030
     14  C         18.3530  -22.3930   -6.5450 C.2     1  UNL1        0.0140
     15  C         19.1720  -21.4900   -5.8580 C.2     1  UNL1        0.0010
     16  C         18.8450  -21.0850   -4.5620 C.2     1  UNL1        0.0020
     17  C         17.6940  -21.5770   -3.9490 C.2     1  UNL1        0.0370
     18  C         16.8700  -22.4810   -4.6420 C.2     1  UNL1        0.1130
     19  N         15.6600  -22.9400   -3.9600 N.pl3   1  UNL1       -0.1150
     20  O         14.7090  -22.1490   -3.8930 O.2     1  UNL1       -0.5320
     21  O         15.6420  -24.0970   -3.5080 O.2     1  UNL1       -0.5320
     22  S         23.3200  -22.5550  -10.1100 S.O2    1  UNL1        0.2590
     23  O         23.9400  -21.2600   -9.9440 O.2     1  UNL1       -0.2010
     24  O         23.3640  -23.5600   -9.0710 O.2     1  UNL1       -0.2010
     25  N         23.9400  -23.2580  -11.4880 N.3     1  UNL1       -0.3090
     26  H         23.2470  -23.5820  -12.1600 H       1  UNL1        0.1720
     27  C         25.2170  -22.7950  -12.0180 C.3     1  UNL1        0.1970
     28  C         24.9140  -21.8560  -13.1270 C.2     1  UNL1        0.0700
     29  C         23.9640  -21.8490  -14.1270 C.2     1  UNL1        0.0360
     30  C         24.1660  -20.6520  -14.8610 C.2     1  UNL1        0.0270
     31  C         25.2200  -20.0080  -14.2590 C.2     1  UNL1        0.1420
     32  O         25.6790  -20.7270  -13.2000 O.2     1  UNL1       -0.3250
@<TRIPOS>BOND
     1    30    31    2
     2    30    29    1
     3    31    32    1
     4    29    28    2
     5    32    28    1
     6    28    27    1
     7    26    25    1
     8    27    25    1
     9     3     4    2
    10     3     2    1
    11     4     5    1
    12    25    22    1
    13     2     1    2
    14     5    22    1
    15     5     6    2
    16     1     6    1
    17     1     7    1
    18    22    23    2
    19    22    24    2
    20     7     8   am
    21     7    10    1
    22     9     8    2
    23     8    11    1
    24    11    12    2
    25    12    13    1
    26    14    13    2
    27    14    15    1
    28    13    18    1
    29    15    16    2
    30    18    19    1
    31    18    17    2
    32    16    17    1
    33    19    20    2
    34    19    21    2
