@<TRIPOS>MOLECULE
15106_out_ligand_01.pdbqt
 33 35 0 0 0
SMALL
GASTEIGER

@<TRIPOS>ATOM
      1  C         22.2950  -21.8440  -10.4340 C.2     1  UNL1        0.2540
      2  O         22.7250  -21.0960   -9.5610 O.2     1  UNL1       -0.2680
      3  N         23.0860  -22.7670  -11.0780 N.am    1  UNL1       -0.3560
      4  H         22.6620  -23.4350  -11.7130 H       1  UNL1        0.1620
      5  C         20.8460  -21.8360  -10.7580 C.2     1  UNL1        0.0670
      6  C         20.4190  -20.8750  -11.6860 C.2     1  UNL1        0.0210
      7  C         19.0740  -20.7810  -12.0270 C.2     1  UNL1        0.0200
      8  C         18.1910  -21.6570  -11.4280 C.2     1  UNL1        0.1180
      9  N         18.5650  -22.6050  -10.5430 N.2     1  UNL1       -0.2530
     10  C         19.8860  -22.7010  -10.2250 C.2     1  UNL1        0.1130
     11  S         20.2460  -24.0490   -9.1090 S.3     1  UNL1       -0.0700
     12  C         19.3210  -23.5090   -7.6850 C.2     1  UNL1        0.0070
     13  C         18.2870  -24.2920   -7.1720 C.2     1  UNL1        0.0190
     14  C         17.5710  -23.8660   -6.0520 C.2     1  UNL1        0.0090
     15  C         17.8750  -22.6460   -5.4270 C.2     1  UNL1       -0.0560
     16  C         17.0890  -22.2240   -4.2170 C.3     1  UNL1        0.0490
     17  C         18.9130  -21.8470   -5.9450 C.2     1  UNL1       -0.0550
     18  C         19.6240  -22.2880   -7.0740 C.2     1  UNL1        0.0260
     19  C         19.2880  -20.5370   -5.3070 C.3     1  UNL1        0.0490
     20  C         24.4850  -22.9510  -10.7400 C.3     1  UNL1        0.1270
     21  C         25.4210  -22.0550  -11.5600 C.3     1  UNL1        0.0580
     22  C         25.2250  -22.2130  -13.0520 C.2     1  UNL1       -0.0570
     23  C         25.4970  -23.4420  -13.6730 C.2     1  UNL1        0.0090
     24  C         25.2930  -23.6020  -15.0440 C.2     1  UNL1        0.0250
     25  C         24.8220  -22.5250  -15.7980 C.2     1  UNL1        0.0740
     26  C         24.5330  -21.2990  -15.1930 C.2     1  UNL1        0.0250
     27  C         24.7380  -21.1460  -13.8210 C.2     1  UNL1        0.0090
     28  S         24.5550  -22.7150  -17.5400 S.O2    1  UNL1        0.2390
     29  O         25.7950  -23.1340  -18.1530 O.2     1  UNL1       -0.2060
     30  O         23.3120  -23.4200  -17.7390 O.2     1  UNL1       -0.2060
     31  N         24.3300  -21.1170  -18.0200 N.3     1  UNL1       -0.2250
     32  H         25.0510  -20.5380  -17.5850 H       1  UNL1        0.1360
     33  H         23.3920  -20.7680  -17.8280 H       1  UNL1        0.1360
@<TRIPOS>BOND
     1    29    28    2
     2    31    33    1
     3    31    32    1
     4    31    28    1
     5    30    28    2
     6    28    25    1
     7    25    26    2
     8    25    24    1
     9    26    27    1
    10    24    23    2
    11    27    22    2
    12    23    22    1
    13    22    21    1
    14     7     6    1
    15     7     8    2
    16     4     3    1
    17     6     5    2
    18    21    20    1
    19     8     9    1
    20     3    20    1
    21     3     1   am
    22     5     1    1
    23     5    10    1
    24     9    10    2
    25     1     2    2
    26    10    11    1
    27    11    12    1
    28    12    13    2
    29    12    18    1
    30    13    14    1
    31    18    17    2
    32    14    15    2
    33    17    15    1
    34    17    19    1
    35    15    16    1
