@<TRIPOS>MOLECULE
15115_out_ligand_01.pdbqt
 29 32 0 0 0
SMALL
GASTEIGER

@<TRIPOS>ATOM
      1  C         19.3350  -22.0110  -10.2470 C.2     1  UNL1        0.0330
      2  C         19.0370  -21.2230  -11.3860 C.2     1  UNL1        0.0180
      3  C         20.0060  -20.9870  -12.3700 C.2     1  UNL1        0.0190
      4  C         21.2550  -21.5440  -12.1740 C.2     1  UNL1        0.0480
      5  C         21.5530  -22.3010  -11.0540 C.2     1  UNL1        0.0490
      6  C         20.6190  -22.5510  -10.0690 C.2     1  UNL1        0.0350
      7  C         22.9490  -22.7220  -11.1690 C.2     1  UNL1        0.2620
      8  O         23.5220  -23.4200  -10.3560 O.2     1  UNL1       -0.2670
      9  N         23.4200  -22.1870  -12.3350 N.am    1  UNL1       -0.2740
     10  C         22.4580  -21.4810  -13.0010 C.2     1  UNL1        0.2620
     11  O         22.5090  -20.9150  -14.0750 O.2     1  UNL1       -0.2670
     12  C         18.3250  -22.2640   -9.1850 C.2     1  UNL1        0.2520
     13  O         17.1480  -22.4100   -9.4920 O.2     1  UNL1       -0.2680
     14  N         18.7900  -22.2920   -7.8860 N.am    1  UNL1       -0.3520
     15  H         19.7690  -22.1390   -7.6940 H       1  UNL1        0.1630
     16  C         17.9070  -22.6070   -6.7620 C.3     1  UNL1        0.0840
     17  C         17.7570  -24.1300   -6.6130 C.3     1  UNL1        0.0250
     18  C         16.3140  -24.6230   -6.7260 C.3     1  UNL1        0.0020
     19  C         15.2480  -23.8640   -5.9350 C.3     1  UNL1        0.0000
     20  C         15.5590  -23.6150   -4.4600 C.3     1  UNL1        0.0000
     21  C         16.2460  -22.2750   -4.1540 C.3     1  UNL1        0.0000
     22  C         17.7730  -22.3150   -4.1670 C.3     1  UNL1        0.0020
     23  C         18.4450  -21.9370   -5.4910 C.3     1  UNL1        0.0250
     24  C         24.7800  -22.3450  -12.8010 C.3     1  UNL1        0.2000
     25  C         25.5730  -21.1510  -12.4090 C.2     1  UNL1        0.0700
     26  C         26.0280  -20.6730  -11.1970 C.2     1  UNL1        0.0360
     27  C         26.7300  -19.4760  -11.4770 C.2     1  UNL1        0.0270
     28  C         26.6580  -19.2990  -12.8380 C.2     1  UNL1        0.1420
     29  O         25.9590  -20.3120  -13.4130 O.2     1  UNL1       -0.3250
@<TRIPOS>BOND
     1    11    10    2
     2    29    28    1
     3    29    25    1
     4    10     9   am
     5    10     4    1
     6    28    27    2
     7    24    25    1
     8    24     9    1
     9    25    26    2
    10     3     4    2
    11     3     2    1
    12     9     7   am
    13     4     5    1
    14    27    26    1
    15     2     1    2
    16     7     5    1
    17     7     8    2
    18     5     6    2
    19     1     6    1
    20     1    12    1
    21    13    12    2
    22    12    14   am
    23    14    15    1
    24    14    16    1
    25    16    17    1
    26    16    23    1
    27    18    17    1
    28    18    19    1
    29    19    20    1
    30    23    22    1
    31    20    21    1
    32    22    21    1
