@<TRIPOS>MOLECULE
15119_out_ligand_01.pdbqt
 32 35 0 0 0
SMALL
GASTEIGER

@<TRIPOS>ATOM
      1  C         18.1230  -21.6550  -11.2870 C.2     1  UNL1        0.2510
      2  O         17.5340  -21.0300  -12.1620 O.2     1  UNL1       -0.2680
      3  N         19.4960  -21.7530  -11.2120 N.am    1  UNL1       -0.3530
      4  H         19.9240  -22.1190  -10.3730 H       1  UNL1        0.1630
      5  C         17.3570  -22.3120  -10.1940 C.2     1  UNL1        0.0330
      6  C         16.3050  -23.1950  -10.4600 C.2     1  UNL1        0.0190
      7  C         15.5990  -23.8080   -9.4180 C.2     1  UNL1        0.0310
      8  C         15.9810  -23.5020   -8.1050 C.ar    1  UNL1        0.0430
      9  N         15.4650  -23.9460   -6.9060 N.ar    1  UNL1       -0.3580
     10  C         17.0200  -22.6160   -7.8090 C.ar    1  UNL1       -0.0000
     11  C         16.1450  -23.3710   -5.8690 C.ar    1  UNL1        0.0170
     12  H         14.6980  -24.5980   -6.8140 H       1  UNL1        0.1660
     13  C         15.8840  -23.6200   -4.4280 C.3     1  UNL1        0.0580
     14  C         17.1190  -22.5470   -6.3920 C.ar    1  UNL1       -0.0230
     15  C         16.5970  -22.5520   -3.5760 C.3     1  UNL1        0.0100
     16  C         18.0360  -22.2650   -4.0730 C.3     1  UNL1       -0.0140
     17  C         18.7340  -21.2640   -3.1530 C.3     1  UNL1        0.0100
     18  C         18.0400  -21.7460   -5.5340 C.3     1  UNL1        0.0450
     19  C         17.7130  -22.0050   -8.8710 C.2     1  UNL1        0.0310
     20  C         20.3530  -21.0540  -12.1450 C.3     1  UNL1        0.1610
     21  C         21.7540  -21.6210  -12.2530 C.2     1  UNL1       -0.0400
     22  C         22.5970  -21.3860  -13.3510 C.2     1  UNL1        0.0100
     23  C         23.8720  -21.9540  -13.4090 C.2     1  UNL1        0.0250
     24  C         24.3040  -22.7790  -12.3690 C.2     1  UNL1        0.0740
     25  C         23.4880  -23.0230  -11.2640 C.2     1  UNL1        0.0250
     26  C         22.2180  -22.4470  -11.2120 C.2     1  UNL1        0.0100
     27  S         25.9160  -23.5120  -12.4490 S.O2    1  UNL1        0.2390
     28  O         26.8800  -22.4740  -12.7270 O.2     1  UNL1       -0.2060
     29  O         25.8290  -24.7210  -13.2350 O.2     1  UNL1       -0.2060
     30  N         26.1350  -24.0060  -10.8540 N.3     1  UNL1       -0.2250
     31  H         25.2610  -24.0900  -10.3380 H       1  UNL1        0.1360
     32  H         26.6760  -24.8720  -10.8410 H       1  UNL1        0.1360
@<TRIPOS>BOND
     1    23    22    1
     2    23    24    2
     3    22    21    2
     4    29    27    2
     5    28    27    2
     6    27    24    1
     7    27    30    1
     8    24    25    1
     9    21    20    1
    10    21    26    1
    11     2     1    2
    12    20     3    1
    13     1     3   am
    14     1     5    1
    15    25    26    2
    16     3     4    1
    17    30    32    1
    18    30    31    1
    19     6     5    2
    20     6     7    1
    21     5    19    1
    22     7     8    2
    23    19    10    2
    24     8    10   ar
    25     8     9   ar
    26    10    14   ar
    27     9    12    1
    28     9    11   ar
    29    14    11   ar
    30    14    18    1
    31    11    13    1
    32    18    16    1
    33    13    15    1
    34    16    15    1
    35    16    17    1
