@<TRIPOS>MOLECULE
15124_out_ligand_01.pdbqt
 31 33 0 0 0
SMALL
GASTEIGER

@<TRIPOS>ATOM
      1  C         17.3490  -22.4610   -9.4920 C.2     1  UNL1        0.0770
      2  C         16.6240  -21.6880  -10.3990 C.2     1  UNL1        0.0250
      3  C         17.2900  -21.0950  -11.4680 C.2     1  UNL1        0.0040
      4  C         18.6720  -21.2680  -11.6220 C.2     1  UNL1        0.0290
      5  C         19.4030  -22.0240  -10.7020 C.2     1  UNL1        0.0360
      6  C         18.7350  -22.6100   -9.6230 C.2     1  UNL1        0.0540
      7  S         16.5180  -23.2570   -8.1380 S.O2    1  UNL1        0.2460
      8  O         15.8660  -24.4450   -8.6460 O.2     1  UNL1       -0.2060
      9  O         15.7670  -22.2340   -7.4380 O.2     1  UNL1       -0.2060
     10  N         17.7880  -23.7060   -7.1090 N.pl3   1  UNL1       -0.1790
     11  H         17.6760  -24.6800   -6.8230 H       1  UNL1        0.1460
     12  C         18.0820  -22.8370   -6.0070 C.2     1  UNL1        0.0560
     13  C         18.9110  -21.7310   -6.1920 C.2     1  UNL1        0.0270
     14  C         19.1490  -20.8620   -5.1300 C.2     1  UNL1        0.0020
     15  C         18.5590  -21.0990   -3.8890 C.2     1  UNL1        0.0030
     16  C         17.7220  -22.2050   -3.7030 C.2     1  UNL1        0.0380
     17  C         17.4720  -23.0770   -4.7630 C.2     1  UNL1        0.0900
     18  O         16.6690  -24.1910   -4.6980 O.2     1  UNL1       -0.3540
     19  C         15.3240  -23.9700   -4.2820 C.3     1  UNL1        0.2100
     20  N         20.7920  -22.2410  -10.7830 N.am    1  UNL1       -0.3230
     21  C         21.6510  -21.9210  -11.8150 C.2     1  UNL1        0.2590
     22  O         21.3130  -21.4110  -12.8800 O.2     1  UNL1       -0.2670
     23  H         21.2220  -22.7000   -9.9850 H       1  UNL1        0.1690
     24  C         23.1110  -22.2430  -11.6040 C.2     1  UNL1        0.0650
     25  C         23.7290  -23.0010  -12.6190 C.2     1  UNL1        0.0200
     26  C         25.0730  -23.3590  -12.5370 C.2     1  UNL1        0.0010
     27  C         25.8230  -22.9670  -11.4350 C.2     1  UNL1        0.0030
     28  C         25.2310  -22.2160  -10.4170 C.2     1  UNL1        0.0380
     29  C         23.8780  -21.8430  -10.4860 C.2     1  UNL1        0.0840
     30  O         23.2530  -21.1130   -9.5060 O.2     1  UNL1       -0.3550
     31  C         22.8180  -21.8010   -8.3350 C.3     1  UNL1        0.2100
@<TRIPOS>BOND
     1    22    21    2
     2    25    26    1
     3    25    24    2
     4    26    27    2
     5    21    24    1
     6    21    20   am
     7     4     3    2
     8     4     5    1
     9    24    29    1
    10     3     2    1
    11    27    28    1
    12    20     5    1
    13    20    23    1
    14     5     6    2
    15    29    28    2
    16    29    30    1
    17     2     1    2
    18     6     1    1
    19    30    31    1
    20     1     7    1
    21     8     7    2
    22     7     9    2
    23     7    10    1
    24    10    11    1
    25    10    12    1
    26    13    12    2
    27    13    14    1
    28    12    17    1
    29    14    15    2
    30    17    18    1
    31    17    16    2
    32    18    19    1
    33    15    16    1
