@<TRIPOS>MOLECULE
15120_out_ligand_01.pdbqt
 36 38 0 0 0
SMALL
GASTEIGER

@<TRIPOS>ATOM
      1  C         19.5760  -22.2930  -10.2510 C.2     1  UNL1        0.0580
      2  C         19.7260  -21.5620  -11.4430 C.2     1  UNL1        0.0190
      3  C         18.6150  -20.9990  -12.0670 C.2     1  UNL1        0.0010
      4  C         17.3550  -21.1470  -11.4990 C.2     1  UNL1        0.0020
      5  C         17.2020  -21.8550  -10.3030 C.2     1  UNL1        0.0300
      6  C         18.3010  -22.4360   -9.6520 C.2     1  UNL1        0.0480
      7  C         20.7770  -22.8870   -9.5940 C.2     1  UNL1        0.2530
      8  N         21.8340  -22.0370   -9.3580 N.am    1  UNL1       -0.3560
      9  H         21.7940  -21.0760   -9.6710 H       1  UNL1        0.1620
     10  O         20.7970  -24.0800   -9.3000 O.2     1  UNL1       -0.2680
     11  C         23.0250  -22.4690   -8.6510 C.3     1  UNL1        0.1270
     12  C         24.0000  -23.2550   -9.5360 C.3     1  UNL1        0.0580
     13  C         24.3560  -22.5280  -10.8140 C.2     1  UNL1       -0.0570
     14  C         23.7340  -22.8840  -12.0210 C.2     1  UNL1        0.0090
     15  C         24.0760  -22.2410  -13.2110 C.2     1  UNL1        0.0250
     16  C         25.0380  -21.2290  -13.1900 C.2     1  UNL1        0.0740
     17  C         25.6750  -20.8710  -11.9990 C.2     1  UNL1        0.0250
     18  C         25.3300  -21.5200  -10.8130 C.2     1  UNL1        0.0090
     19  S         25.4880  -20.4110  -14.6970 S.O2    1  UNL1        0.2390
     20  O         25.7090  -19.0140  -14.4090 O.2     1  UNL1       -0.2060
     21  O         26.4600  -21.2260  -15.3880 O.2     1  UNL1       -0.2060
     22  N         24.0660  -20.5430  -15.5890 N.3     1  UNL1       -0.2250
     23  H         23.2360  -20.6540  -15.0080 H       1  UNL1        0.1360
     24  H         24.1660  -21.3060  -16.2600 H       1  UNL1        0.1360
     25  N         18.1430  -23.1690   -8.4570 N.pl3   1  UNL1       -0.3550
     26  H         18.0510  -24.1760   -8.6260 H       1  UNL1        0.1660
     27  C         17.9220  -22.7910   -7.1220 C.2     1  UNL1        0.0330
     28  C         18.8990  -22.0240   -6.4730 C.2     1  UNL1        0.0290
     29  C         18.7150  -21.5770   -5.1620 C.2     1  UNL1        0.0030
     30  C         17.5420  -21.8860   -4.4790 C.2     1  UNL1        0.0160
     31  C         16.5480  -22.6520   -5.1000 C.2     1  UNL1        0.0500
     32  C         16.7480  -23.0900   -6.4240 C.2     1  UNL1        0.0450
     33  C         15.2640  -22.9910   -4.3870 C.3     1  UNL1        0.4170
     34  F         14.5140  -23.8970   -5.0740 F       1  UNL1       -0.1660
     35  F         14.4540  -21.9140   -4.1850 F       1  UNL1       -0.1660
     36  F         15.4700  -23.5350   -3.1550 F       1  UNL1       -0.1660
@<TRIPOS>BOND
     1    24    22    1
     2    22    23    1
     3    22    19    1
     4    21    19    2
     5    19    20    2
     6    19    16    1
     7    15    16    2
     8    15    14    1
     9    16    17    1
    10     3     4    2
    11     3     2    1
    12    14    13    2
    13    17    18    2
    14     4     5    1
    15     2     1    2
    16    13    18    1
    17    13    12    1
    18     5     6    2
    19     1     6    1
    20     1     7    1
    21     9     8    1
    22     6    25    1
    23     7     8   am
    24     7    10    2
    25    12    11    1
    26     8    11    1
    27    26    25    1
    28    25    27    1
    29    27    28    2
    30    27    32    1
    31    28    29    1
    32    32    31    2
    33    29    30    2
    34    31    30    1
    35    31    33    1
    36    34    33    1
    37    33    35    1
    38    33    36    1
