@<TRIPOS>MOLECULE
15136_out_ligand_01.pdbqt
 31 34 0 0 0
SMALL
GASTEIGER

@<TRIPOS>ATOM
      1  N         21.5520  -22.1760   -8.4760 N.am    1  UNL1       -0.3570
      2  C         20.7750  -23.2770   -8.7630 C.2     1  UNL1        0.2530
      3  O         21.1910  -24.4270   -8.7930 O.2     1  UNL1       -0.2680
      4  H         21.1750  -21.2560   -8.6680 H       1  UNL1        0.1620
      5  C         22.9900  -22.2900   -8.3190 C.3     1  UNL1        0.1270
      6  C         23.6200  -23.2770   -9.3090 C.3     1  UNL1        0.0580
      7  C         24.0400  -22.6130  -10.6020 C.2     1  UNL1       -0.0570
      8  C         25.1430  -21.7470  -10.6300 C.2     1  UNL1        0.0090
      9  C         25.5160  -21.1140  -11.8160 C.2     1  UNL1        0.0250
     10  C         24.7870  -21.3520  -12.9840 C.2     1  UNL1        0.0740
     11  C         23.6780  -22.2020  -12.9690 C.2     1  UNL1        0.0250
     12  C         23.3110  -22.8340  -11.7810 C.2     1  UNL1        0.0090
     13  S         25.2330  -20.5240  -14.4800 S.O2    1  UNL1        0.2390
     14  O         25.6560  -19.1780  -14.1710 O.2     1  UNL1       -0.2060
     15  O         26.0240  -21.4140  -15.2980 O.2     1  UNL1       -0.2060
     16  N         23.7520  -20.3780  -15.2560 N.3     1  UNL1       -0.2250
     17  H         23.2150  -21.2380  -15.1420 H       1  UNL1        0.1360
     18  H         23.8960  -20.1060  -16.2290 H       1  UNL1        0.1360
     19  C         19.3650  -22.9700   -9.0890 C.ar    1  UNL1        0.0520
     20  C         19.0800  -22.2390  -10.2290 C.ar    1  UNL1       -0.0170
     21  C         17.7530  -21.9950  -10.5320 C.ar    1  UNL1        0.0420
     22  C         19.9800  -21.6420  -11.2600 C.3     1  UNL1        0.0420
     23  N         16.7120  -22.4160   -9.8030 N.ar    1  UNL1       -0.2520
     24  C         17.6220  -21.2210  -11.8130 C.3     1  UNL1        0.0600
     25  C         16.9880  -23.1070   -8.6810 C.ar    1  UNL1        0.0680
     26  C         15.9200  -23.5420   -7.9090 C.2     1  UNL1        0.0320
     27  C         18.3070  -23.4170   -8.2600 C.ar    1  UNL1        0.0090
     28  C         16.1050  -24.2710   -6.7320 C.2     1  UNL1        0.0020
     29  C         17.3890  -24.5780   -6.3080 C.2     1  UNL1        0.0010
     30  C         18.4820  -24.1570   -7.0640 C.2     1  UNL1        0.0150
     31  C         19.0350  -20.6410  -11.9420 C.3     1  UNL1        0.0110
@<TRIPOS>BOND
     1    18    16    1
     2    15    13    2
     3    16    17    1
     4    16    13    1
     5    13    14    2
     6    13    10    1
     7    10    11    2
     8    10     9    1
     9    11    12    1
    10    31    24    1
    11    31    22    1
    12     9     8    2
    13    24    21    1
    14    12     7    2
    15    22    20    1
    16     8     7    1
    17     7     6    1
    18    21    20   ar
    19    21    23   ar
    20    20    19   ar
    21    23    25   ar
    22     6     5    1
    23    19     2    1
    24    19    27   ar
    25     3     2    2
    26     2     1   am
    27    25    27   ar
    28    25    26    1
    29     4     1    1
    30     1     5    1
    31    27    30    1
    32    26    28    2
    33    30    29    2
    34    28    29    1
