@<TRIPOS>MOLECULE
15145_out_ligand_01.pdbqt
 34 36 0 0 0
SMALL
GASTEIGER

@<TRIPOS>ATOM
      1  C         23.9830  -22.0480  -11.0200 C.2     1  UNL1        0.0240
      2  C         25.1510  -22.7390  -10.6480 C.2     1  UNL1        0.0240
      3  C         25.8920  -23.4680  -11.5800 C.2     1  UNL1        0.0020
      4  C         25.4700  -23.5420  -12.9010 C.2     1  UNL1        0.0010
      5  C         24.3150  -22.8700  -13.3000 C.2     1  UNL1        0.0190
      6  C         23.5750  -22.1070  -12.3780 C.2     1  UNL1        0.0530
      7  N         23.2110  -21.3940  -10.0300 N.pl3   1  UNL1       -0.2830
      8  H         23.5140  -20.4090   -9.9600 H       1  UNL1        0.1280
      9  C         23.1840  -22.0290   -8.6920 C.3     1  UNL1        0.1950
     10  C         21.8670  -22.7870   -8.4500 C.2     1  UNL1        0.2350
     11  N         21.0710  -22.1570   -7.5130 N.am    1  UNL1       -0.3260
     12  H         21.4840  -21.2870   -7.1680 H       1  UNL1        0.1690
     13  O         21.6170  -23.8320   -9.0440 O.2     1  UNL1       -0.2720
     14  C         19.8040  -22.5250   -7.0390 C.2     1  UNL1        0.0340
     15  C         19.1090  -21.5830   -6.2740 C.2     1  UNL1        0.0300
     16  C         17.8380  -21.8750   -5.7680 C.2     1  UNL1        0.0170
     17  C         17.2420  -23.1150   -6.0210 C.2     1  UNL1        0.0090
     18  C         17.9350  -24.0580   -6.7870 C.2     1  UNL1        0.0170
     19  C         19.2100  -23.7620   -7.2910 C.2     1  UNL1        0.0300
     20  C         15.8830  -23.3810   -5.4640 C.2     1  UNL1        0.1550
     21  C         14.7660  -22.4160   -5.7670 C.3     1  UNL1        0.0960
     22  O         15.6910  -24.3750   -4.7650 O.2     1  UNL1       -0.2930
     23  C         22.3670  -21.3470  -12.8400 C.2     1  UNL1        0.2530
     24  O         22.3010  -20.9270  -13.9930 O.2     1  UNL1       -0.2680
     25  N         21.3340  -21.2070  -11.9340 N.am    1  UNL1       -0.3530
     26  H         21.3210  -21.8010  -11.1180 H       1  UNL1        0.1630
     27  C         20.0600  -20.6390  -12.3220 C.3     1  UNL1        0.1610
     28  C         18.9410  -21.2740  -11.5390 C.2     1  UNL1       -0.0410
     29  C         19.0980  -22.5410  -10.9620 C.2     1  UNL1        0.0090
     30  C         18.0450  -23.1360  -10.2620 C.2     1  UNL1        0.0070
     31  C         16.8190  -22.4740  -10.1240 C.2     1  UNL1       -0.0620
     32  C         15.6800  -23.1280   -9.3990 C.3     1  UNL1        0.0480
     33  C         16.6540  -21.2170  -10.7170 C.2     1  UNL1        0.0070
     34  C         17.7070  -20.6220  -11.4150 C.2     1  UNL1        0.0090
@<TRIPOS>BOND
     1    24    23    2
     2     5     4    2
     3     5     6    1
     4     4     3    1
     5    23     6    1
     6    23    25   am
     7     6     1    2
     8    27    25    1
     9    27    28    1
    10    25    26    1
    11     3     2    2
    12    28    34    2
    13    28    29    1
    14    34    33    1
    15     1     2    1
    16     1     7    1
    17    29    30    2
    18    33    31    2
    19    30    31    1
    20    31    32    1
    21     7     8    1
    22     7     9    1
    23    13    10    2
    24     9    10    1
    25    10    11   am
    26    11    12    1
    27    11    14    1
    28    19    14    2
    29    19    18    1
    30    14    15    1
    31    18    17    2
    32    15    16    2
    33    17    16    1
    34    17    20    1
    35    21    20    1
    36    20    22    2
