@<TRIPOS>MOLECULE
15148_out_ligand_01.pdbqt
 30 32 0 0 0
SMALL
GASTEIGER

@<TRIPOS>ATOM
      1  C         19.5510  -23.0200   -8.9540 C.2     1  UNL1        0.0320
      2  C         19.8560  -22.3010  -10.1120 C.2     1  UNL1        0.0190
      3  C         21.1230  -22.4270  -10.6980 C.2     1  UNL1        0.0300
      4  C         22.0920  -23.2700  -10.1440 C.2     1  UNL1        0.0340
      5  C         21.7630  -24.0200   -9.0150 C.2     1  UNL1        0.0300
      6  C         20.4970  -23.9050   -8.4250 C.2     1  UNL1        0.0190
      7  C         18.2380  -22.8750   -8.2620 C.2     1  UNL1        0.2560
      8  N         18.2390  -23.2830   -6.9420 N.am    1  UNL1       -0.3220
      9  H         19.0690  -23.7690   -6.6180 H       1  UNL1        0.1690
     10  O         17.2710  -22.4880   -8.9080 O.2     1  UNL1       -0.2670
     11  C         17.1770  -23.2030   -6.0110 C.2     1  UNL1        0.0430
     12  C         16.0010  -23.9470   -6.1620 C.2     1  UNL1        0.0720
     13  C         14.9580  -23.8000   -5.2470 C.2     1  UNL1        0.1180
     14  C         15.0560  -22.9230   -4.1730 C.2     1  UNL1        0.0430
     15  F         13.8300  -24.5060   -5.4130 F       1  UNL1       -0.2060
     16  C         16.2230  -22.1810   -4.0050 C.2     1  UNL1        0.0120
     17  C         17.2940  -22.3150   -4.9130 C.2     1  UNL1       -0.0350
     18  C         18.5190  -21.4770   -4.6780 C.3     1  UNL1        0.0500
     19  N         23.3560  -23.2870  -10.7640 N.am    1  UNL1       -0.3270
     20  C         24.3170  -22.2810  -10.7590 C.2     1  UNL1        0.2310
     21  O         24.2620  -21.2360  -10.0990 O.2     1  UNL1       -0.2720
     22  H         23.5760  -24.1220  -11.2910 H       1  UNL1        0.1690
     23  C         25.5560  -22.5600  -11.6010 C.3     1  UNL1        0.1850
     24  S         25.4520  -21.9490  -13.3190 S.3     1  UNL1       -0.0800
     25  C         25.3360  -23.4410  -14.1860 C.ar    1  UNL1        0.1980
     26  N         25.3730  -24.6400  -13.6560 N.ar    1  UNL1       -0.1350
     27  N         25.2680  -25.5170  -14.7130 N.ar    1  UNL1        0.0180
     28  N         25.1070  -24.8690  -15.8650 N.ar    1  UNL1       -0.0030
     29  N         25.1830  -23.5630  -15.5450 N.ar    1  UNL1       -0.2590
     30  C         25.0990  -22.5510  -16.5600 C.3     1  UNL1        0.1770
@<TRIPOS>BOND
     1    30    29    1
     2    28    29   ar
     3    28    27   ar
     4    29    25   ar
     5    27    26   ar
     6    25    26   ar
     7    25    24    1
     8    24    23    1
     9    23    20    1
    10    22    19    1
    11    19    20   am
    12    19     4    1
    13    20    21    2
    14     3     4    2
    15     3     2    1
    16     4     5    1
    17     2     1    2
    18     5     6    2
    19     1     6    1
    20     1     7    1
    21    10     7    2
    22     7     8   am
    23     8     9    1
    24     8    11    1
    25    12    11    2
    26    12    13    1
    27    11    17    1
    28    15    13    1
    29    13    14    2
    30    17    18    1
    31    17    16    2
    32    14    16    1
