@<TRIPOS>MOLECULE
15151_out_ligand_01.pdbqt
 35 38 0 0 0
SMALL
GASTEIGER

@<TRIPOS>ATOM
      1  C         20.8980  -22.7060  -10.5440 C.2     1  UNL1        0.0340
      2  C         20.3870  -21.8380  -11.5170 C.2     1  UNL1        0.0170
      3  C         21.2130  -21.3800  -12.5450 C.2     1  UNL1        0.0030
      4  C         22.5450  -21.7910  -12.6050 C.2     1  UNL1        0.0240
      5  C         23.0520  -22.6680  -11.6460 C.2     1  UNL1        0.0230
      6  C         22.2290  -23.1400  -10.6230 C.2     1  UNL1        0.0410
      7  C         20.0570  -23.2220   -9.4240 C.2     1  UNL1        0.2560
      8  O         20.5090  -24.1230   -8.7300 O.2     1  UNL1       -0.2670
      9  N         18.8450  -22.5760   -9.2550 N.am    1  UNL1       -0.3230
     10  H         18.6820  -21.7500   -9.8150 H       1  UNL1        0.1690
     11  C         17.8370  -22.8780   -8.3110 C.2     1  UNL1        0.0370
     12  C         16.7520  -23.7460   -8.5790 C.2     1  UNL1        0.0320
     13  C         15.7670  -24.0160   -7.6160 C.2     1  UNL1        0.0340
     14  C         15.9040  -23.3940   -6.4020 C.ar    1  UNL1        0.0630
     15  N         15.1020  -23.4620   -5.2690 N.ar    1  UNL1       -0.3070
     16  C         16.9630  -22.5350   -6.1290 C.ar    1  UNL1        0.0650
     17  C         15.6560  -22.6430   -4.2750 C.ar    1  UNL1        0.3250
     18  H         14.2580  -23.9990   -5.1490 H       1  UNL1        0.1700
     19  O         15.2190  -22.4600   -3.1530 O.2     1  UNL1       -0.2470
     20  N         16.8140  -22.0720   -4.8250 N.ar    1  UNL1       -0.3060
     21  H         17.4120  -21.4370   -4.3240 H       1  UNL1        0.1700
     22  C         17.9410  -22.2550   -7.0560 C.2     1  UNL1        0.0610
     23  N         24.4120  -23.1230  -11.7390 N.pl3   1  UNL1       -0.1810
     24  H         24.6530  -23.3320  -12.7110 H       1  UNL1        0.1460
     25  S         25.5660  -21.9980  -11.1730 S.O2    1  UNL1        0.2470
     26  O         24.8230  -21.0670  -10.3500 O.2     1  UNL1       -0.2050
     27  O         26.7500  -22.6630  -10.6770 O.2     1  UNL1       -0.2050
     28  C         26.0120  -21.1500  -12.6640 C.2     1  UNL1        0.0980
     29  C         25.7960  -21.8070  -13.8870 C.2     1  UNL1        0.0500
     30  C         26.1200  -21.1700  -15.0820 C.2     1  UNL1        0.0350
     31 CL         25.8620  -21.9740  -16.5790 Cl      1  UNL1       -0.0840
     32  C         26.6550  -19.8840  -15.0720 C.2     1  UNL1        0.0250
     33  C         26.8640  -19.2310  -13.8550 C.2     1  UNL1        0.0270
     34  C         26.5430  -19.8570  -12.6440 C.2     1  UNL1        0.0570
     35 CL         26.8550  -18.9570  -11.2060 Cl      1  UNL1       -0.0830
@<TRIPOS>BOND
     1    31    30    1
     2    30    32    2
     3    30    29    1
     4    32    33    1
     5    29    28    2
     6    33    34    2
     7    24    23    1
     8    28    34    1
     9    28    25    1
    10    34    35    1
    11     4     3    2
    12     4     5    1
    13     3     2    1
    14    23     5    1
    15    23    25    1
    16     5     6    2
    17     2     1    2
    18    25    27    2
    19    25    26    2
    20     6     1    1
    21     1     7    1
    22    10     9    1
    23     7     9   am
    24     7     8    2
    25     9    11    1
    26    12    11    2
    27    12    13    1
    28    11    22    1
    29    13    14    2
    30    22    16    2
    31    14    16   ar
    32    14    15   ar
    33    16    20   ar
    34    15    18    1
    35    15    17   ar
    36    20    21    1
    37    20    17   ar
    38    17    19    2
