@<TRIPOS>MOLECULE
15161_out_ligand_01.pdbqt
 33 36 0 0 0
SMALL
GASTEIGER

@<TRIPOS>ATOM
      1  C         18.2900  -22.3230   -9.9230 C.2     1  UNL1        0.0770
      2  C         17.7900  -21.4290  -10.8730 C.2     1  UNL1        0.0250
      3  C         18.6430  -20.9280  -11.8520 C.2     1  UNL1        0.0040
      4  C         19.9830  -21.3230  -11.8760 C.2     1  UNL1        0.0290
      5  C         20.4870  -22.2240  -10.9260 C.2     1  UNL1        0.0360
      6  C         19.6280  -22.7360   -9.9540 C.2     1  UNL1        0.0540
      7  N         21.8510  -22.5540  -11.0260 N.am    1  UNL1       -0.3250
      8  C         22.9180  -22.0140  -10.3240 C.2     1  UNL1        0.2540
      9  O         22.8600  -21.0800   -9.5290 O.2     1  UNL1       -0.2700
     10  H         22.0950  -23.3000  -11.6690 H       1  UNL1        0.1690
     11  C         24.2670  -22.6440  -10.7230 C.3     1  UNL1        0.2450
     12  C         24.2060  -23.2470  -12.1210 C.3     1  UNL1        0.2180
     13  O         24.1380  -22.2390  -13.1360 O.2     1  UNL1       -0.3450
     14  C         25.0270  -21.2250  -12.9050 C.2     1  UNL1        0.1020
     15  C         25.2950  -20.3720  -13.9730 C.2     1  UNL1        0.0390
     16  C         25.6440  -21.0140  -11.6710 C.2     1  UNL1        0.1030
     17  C         26.2050  -19.3250  -13.8180 C.2     1  UNL1        0.0030
     18  C         26.8430  -19.1320  -12.5930 C.2     1  UNL1        0.0030
     19  C         26.5640  -19.9770  -11.5180 C.2     1  UNL1        0.0400
     20  O         25.3900  -21.7730  -10.5590 O.2     1  UNL1       -0.3310
     21  S         17.1870  -22.9920   -8.7000 S.O2    1  UNL1        0.2460
     22  O         16.4650  -21.8720   -8.1280 O.2     1  UNL1       -0.2060
     23  O         16.4770  -24.1150   -9.2710 O.2     1  UNL1       -0.2060
     24  N         18.2650  -23.5110   -7.4950 N.pl3   1  UNL1       -0.1790
     25  H         19.1730  -23.6570   -7.9400 H       1  UNL1        0.1460
     26  C         18.3450  -22.6890   -6.3240 C.2     1  UNL1        0.0560
     27  C         19.1840  -21.5750   -6.3120 C.2     1  UNL1        0.0270
     28  C         19.3130  -20.8220   -5.1460 C.2     1  UNL1        0.0020
     29  C         18.6040  -21.1810   -4.0000 C.2     1  UNL1        0.0030
     30  C         17.7670  -22.3010   -4.0080 C.2     1  UNL1        0.0380
     31  C         17.6450  -23.0700   -5.1670 C.2     1  UNL1        0.0900
     32  O         16.8390  -24.1760   -5.2840 O.2     1  UNL1       -0.3540
     33  C         15.4400  -23.9070   -5.2540 C.3     1  UNL1        0.2100
@<TRIPOS>BOND
     1    15    17    1
     2    15    14    2
     3    17    18    2
     4    13    14    1
     5    13    12    1
     6    14    16    1
     7    18    19    1
     8    12    11    1
     9     4     3    2
    10     4     5    1
    11     3     2    1
    12    16    19    2
    13    16    20    1
    14    10     7    1
    15     7     5    1
    16     7     8   am
    17     5     6    2
    18     2     1    2
    19    11    20    1
    20    11     8    1
    21     8     9    2
    22     6     1    1
    23     1    21    1
    24    23    21    2
    25    21    22    2
    26    21    24    1
    27    25    24    1
    28    24    26    1
    29    26    27    2
    30    26    31    1
    31    27    28    1
    32    32    33    1
    33    32    31    1
    34    31    30    2
    35    28    29    2
    36    30    29    1
