@<TRIPOS>MOLECULE
15167_out_ligand_01.pdbqt
 34 37 0 0 0
SMALL
GASTEIGER

@<TRIPOS>ATOM
      1  C         22.4630  -22.3020  -10.7840 C.2     1  UNL1        0.0800
      2  C         23.6040  -22.3490  -11.5650 C.2     1  UNL1        0.1380
      3  N         23.2440  -21.9910  -12.8420 N.pl3   1  UNL1       -0.2440
      4  N         21.9190  -21.7400  -12.9230 N.2     1  UNL1       -0.1660
      5  C         21.4280  -21.9270  -11.6890 C.2     1  UNL1        0.1060
      6  C         22.3880  -22.5520   -9.3560 C.2     1  UNL1        0.2550
      7  N         21.4160  -21.8200   -8.7070 N.am    1  UNL1       -0.3530
      8  H         20.9910  -21.0550   -9.2090 H       1  UNL1        0.1630
      9  O         23.1440  -23.3240   -8.7780 O.2     1  UNL1       -0.2680
     10  C         21.3520  -21.7870   -7.2650 C.3     1  UNL1        0.1610
     11  C         19.9460  -22.0460   -6.7830 C.2     1  UNL1       -0.0400
     12  C         19.3700  -21.2440   -5.7860 C.2     1  UNL1        0.0100
     13  C         18.0820  -21.5120   -5.3190 C.2     1  UNL1        0.0250
     14  C         17.3650  -22.5860   -5.8510 C.2     1  UNL1        0.0740
     15  C         17.9280  -23.4040   -6.8310 C.2     1  UNL1        0.0250
     16  C         19.2170  -23.1320   -7.2920 C.2     1  UNL1        0.0100
     17  S         15.7410  -22.9270   -5.2440 S.O2    1  UNL1        0.2390
     18  O         15.6570  -24.3280   -4.9010 O.2     1  UNL1       -0.2060
     19  O         14.7640  -22.2700   -6.0830 O.2     1  UNL1       -0.2060
     20  N         15.7180  -22.0820   -3.7920 N.3     1  UNL1       -0.2250
     21  H         16.4040  -22.4820   -3.1510 H       1  UNL1        0.1360
     22  H         14.7670  -22.0680   -3.4190 H       1  UNL1        0.1360
     23  C         19.9920  -21.7700  -11.4540 C.2     1  UNL1        0.0130
     24  C         19.2110  -22.7760  -10.8750 C.2     1  UNL1        0.0170
     25  C         17.8430  -22.5740  -10.6890 C.2     1  UNL1        0.0200
     26  C         17.2920  -21.3700  -11.0980 C.2     1  UNL1        0.1160
     27  N         18.0020  -20.3780  -11.6740 N.2     1  UNL1       -0.2720
     28  C         19.3320  -20.6050  -11.8410 C.2     1  UNL1        0.1300
     29  C         24.0780  -21.8770  -13.9900 C.2     1  UNL1        0.0580
     30  C         24.0810  -20.7170  -14.7780 C.2     1  UNL1        0.0310
     31  C         24.9170  -20.6350  -15.8960 C.2     1  UNL1        0.0020
     32  C         25.7480  -21.7010  -16.2350 C.2     1  UNL1        0.0000
     33  C         25.7470  -22.8570  -15.4570 C.2     1  UNL1        0.0020
     34  C         24.9170  -22.9460  -14.3390 C.2     1  UNL1        0.0310
@<TRIPOS>BOND
     1    32    31    2
     2    32    33    1
     3    31    30    1
     4    33    34    2
     5    30    29    2
     6    34    29    1
     7    29     3    1
     8     4     3    1
     9     4     5    2
    10     3     2    1
    11    28    27    1
    12    28    23    2
    13     5    23    1
    14     5     1    1
    15    27    26    2
    16     2     1    2
    17    23    24    1
    18    26    25    1
    19    24    25    2
    20     1     6    1
    21     6     9    2
    22     6     7   am
    23     8     7    1
    24     7    10    1
    25    16    15    1
    26    16    11    2
    27    10    11    1
    28    15    14    2
    29    11    12    1
    30    19    17    2
    31    14    13    1
    32    14    17    1
    33    12    13    2
    34    17    18    2
    35    17    20    1
    36    20    22    1
    37    20    21    1
