@<TRIPOS>MOLECULE
15170_out_ligand_01.pdbqt
 34 37 0 0 0
SMALL
GASTEIGER

@<TRIPOS>ATOM
      1  C         22.0970  -23.4180   -8.8010 C.2     1  UNL1        0.0320
      2  C         21.0850  -24.3680   -8.9290 C.2     1  UNL1        0.0190
      3  C         19.8270  -24.1430   -8.3480 C.2     1  UNL1        0.0310
      4  C         19.5410  -22.9760   -7.6170 C.2     1  UNL1        0.0460
      5  C         20.5840  -22.0450   -7.4870 C.2     1  UNL1        0.0310
      6  C         21.8440  -22.2610   -8.0660 C.2     1  UNL1        0.0190
      7  C         23.4490  -23.6060   -9.3980 C.2     1  UNL1        0.2510
      8  N         23.6340  -23.0960  -10.6650 N.am    1  UNL1       -0.3530
      9  H         22.9500  -22.4530  -11.0370 H       1  UNL1        0.1630
     10  O         24.3330  -24.1600   -8.7530 O.2     1  UNL1       -0.2680
     11  C         24.9370  -23.0990  -11.2930 C.3     1  UNL1        0.1610
     12  C         24.8090  -23.0250  -12.7940 C.2     1  UNL1       -0.0400
     13  C         24.2110  -21.9140  -13.4080 C.2     1  UNL1        0.0100
     14  C         24.1170  -21.8390  -14.8000 C.2     1  UNL1        0.0250
     15  C         24.6230  -22.8820  -15.5790 C.2     1  UNL1        0.0740
     16  C         25.2390  -23.9860  -14.9860 C.2     1  UNL1        0.0250
     17  C         25.3270  -24.0560  -13.5960 C.2     1  UNL1        0.0100
     18  S         24.5160  -22.7990  -17.3470 S.O2    1  UNL1        0.2390
     19  O         23.2870  -23.4300  -17.7610 O.2     1  UNL1       -0.2060
     20  O         25.8020  -23.1570  -17.9030 O.2     1  UNL1       -0.2060
     21  N         24.3650  -21.1400  -17.5980 N.3     1  UNL1       -0.2250
     22  H         23.6650  -20.7710  -16.9520 H       1  UNL1        0.1360
     23  H         24.1590  -20.8970  -18.5650 H       1  UNL1        0.1360
     24  N         18.2540  -22.7530   -7.0310 N.am    1  UNL1       -0.2440
     25  C         17.9870  -22.7610   -5.6750 C.2     1  UNL1        0.2660
     26  O         18.6960  -22.9450   -4.7010 O.2     1  UNL1       -0.2670
     27  C         16.5630  -22.4900   -5.5100 C.2     1  UNL1        0.0480
     28  C         15.7960  -22.3930   -4.3630 C.2     1  UNL1        0.0180
     29  C         16.0200  -22.3260   -6.7630 C.2     1  UNL1        0.0480
     30  C         14.4340  -22.1190   -4.5220 C.2     1  UNL1        0.0010
     31  C         13.8790  -21.9500   -5.8060 C.2     1  UNL1        0.0010
     32  C         14.6770  -22.0540   -6.9490 C.2     1  UNL1        0.0180
     33  C         17.0940  -22.4900   -7.7360 C.2     1  UNL1        0.2660
     34  O         16.8690  -22.3830   -8.9290 O.2     1  UNL1       -0.2670
@<TRIPOS>BOND
     1    23    21    1
     2    20    18    2
     3    19    18    2
     4    21    18    1
     5    21    22    1
     6    18    15    1
     7    15    16    2
     8    15    14    1
     9    16    17    1
    10    14    13    2
    11    17    12    2
    12    13    12    1
    13    12    11    1
    14    11     8    1
    15     9     8    1
    16     8     7   am
    17     7     1    1
    18     7    10    2
    19    34    33    2
    20     2     1    2
    21     2     3    1
    22     1     6    1
    23     3     4    2
    24     6     5    2
    25    33    24   am
    26    33    29    1
    27     4     5    1
    28     4    24    1
    29    24    25   am
    30    32    29    1
    31    32    31    2
    32    29    27    2
    33    31    30    1
    34    25    27    1
    35    25    26    2
    36    27    28    1
    37    30    28    2
