@<TRIPOS>MOLECULE
15175_out_ligand_01.pdbqt
 34 37 0 0 0
SMALL
GASTEIGER

@<TRIPOS>ATOM
      1  C         23.0090  -22.6460  -11.8360 C.2     1  UNL1        0.0240
      2  C         24.1630  -23.0640  -12.5200 C.2     1  UNL1        0.0240
      3  C         24.5560  -22.4700  -13.7260 C.2     1  UNL1        0.0020
      4  C         23.7880  -21.4620  -14.2970 C.2     1  UNL1        0.0010
      5  C         22.6050  -21.0680  -13.6780 C.2     1  UNL1        0.0190
      6  C         22.1980  -21.6750  -12.4760 C.2     1  UNL1        0.0530
      7  N         22.5830  -23.2640  -10.6440 N.pl3   1  UNL1       -0.2830
      8  H         21.5670  -23.1060  -10.5430 H       1  UNL1        0.1280
      9  C         23.2490  -22.9600   -9.3720 C.3     1  UNL1        0.1950
     10  C         22.2920  -22.3240   -8.3480 C.2     1  UNL1        0.2350
     11  O         22.6030  -21.2990   -7.7440 O.2     1  UNL1       -0.2720
     12  N         21.0980  -23.0200   -8.2180 N.am    1  UNL1       -0.3260
     13  H         20.9710  -23.8280   -8.8090 H       1  UNL1        0.1690
     14  C         20.0320  -22.7410   -7.3360 C.2     1  UNL1        0.0370
     15  C         19.9000  -21.5500   -6.6170 C.2     1  UNL1        0.0320
     16  C         18.8150  -21.3570   -5.7530 C.2     1  UNL1        0.0420
     17  C         17.8550  -22.3520   -5.6040 C.2     1  UNL1        0.1020
     18  C         17.9630  -23.5330   -6.3390 C.2     1  UNL1        0.1040
     19  O         16.8300  -22.0990   -4.7300 O.2     1  UNL1       -0.3460
     20  C         19.0540  -23.7350   -7.1860 C.2     1  UNL1        0.0690
     21  O         17.0370  -24.5460   -6.2770 O.2     1  UNL1       -0.3460
     22  C         15.8140  -24.0920   -5.6850 C.3     1  UNL1        0.2020
     23  C         16.0930  -23.2900   -4.4240 C.3     1  UNL1        0.2020
     24  C         20.9030  -21.2520  -11.8630 C.2     1  UNL1        0.2580
     25  O         20.7650  -20.0820  -11.5210 O.2     1  UNL1       -0.2670
     26  N         19.9820  -22.2750  -11.7030 N.am    1  UNL1       -0.3230
     27  H         20.3040  -23.2130  -11.9130 H       1  UNL1        0.1690
     28  C         18.6710  -22.1750  -11.1930 C.2     1  UNL1        0.0350
     29  C         17.8320  -21.0790  -11.4100 C.2     1  UNL1        0.0320
     30  C         16.5390  -21.0600  -10.8750 C.2     1  UNL1        0.0440
     31  C         16.0890  -22.1370  -10.1220 C.2     1  UNL1        0.1160
     32  F         14.8510  -22.1160   -9.6090 F       1  UNL1       -0.2060
     33  C         16.9050  -23.2360   -9.8970 C.2     1  UNL1        0.0440
     34  C         18.1940  -23.2560  -10.4360 C.2     1  UNL1        0.0320
@<TRIPOS>BOND
     1     4     3    2
     2     4     5    1
     3     3     2    1
     4     5     6    2
     5     2     1    2
     6     6    24    1
     7     6     1    1
     8    27    26    1
     9    24    26   am
    10    24    25    2
    11     1     7    1
    12    26    28    1
    13    29    28    2
    14    29    30    1
    15    28    34    1
    16    30    31    2
    17     7     8    1
    18     7     9    1
    19    34    33    2
    20    31    33    1
    21    31    32    1
    22     9    10    1
    23    13    12    1
    24    10    12   am
    25    10    11    2
    26    12    14    1
    27    14    20    2
    28    14    15    1
    29    20    18    1
    30    15    16    2
    31    18    21    1
    32    18    17    2
    33    21    22    1
    34    16    17    1
    35    22    23    1
    36    17    19    1
    37    19    23    1
