@<TRIPOS>MOLECULE
15180_out_ligand_01.pdbqt
 30 32 0 0 0
SMALL
GASTEIGER

@<TRIPOS>ATOM
      1  C         17.7640  -22.8660   -9.5520 C.2     1  UNL1        0.0800
      2  C         17.2890  -21.8930  -10.4380 C.2     1  UNL1        0.0250
      3  C         18.1700  -21.2860  -11.3320 C.2     1  UNL1        0.0030
      4  C         19.5240  -21.6360  -11.3260 C.2     1  UNL1        0.0170
      5  C         20.0030  -22.5860  -10.4130 C.2     1  UNL1        0.0330
      6  C         19.1190  -23.2060   -9.5230 C.2     1  UNL1        0.0420
      7  S         16.6460  -23.6520   -8.4140 S.O2    1  UNL1        0.2630
      8  O         17.3990  -24.6260   -7.6540 O.2     1  UNL1       -0.2000
      9  O         15.4690  -24.0380   -9.1640 O.2     1  UNL1       -0.2000
     10  N         16.1740  -22.3850   -7.3990 N.pl3   1  UNL1       -0.2790
     11  H         15.8670  -21.5750   -7.9400 H       1  UNL1        0.1790
     12  C         16.9590  -22.0990   -6.2360 C.2     1  UNL1        0.0600
     13  C         16.5190  -22.4840   -4.9610 C.2     1  UNL1        0.0380
     14  C         17.2720  -22.1630   -3.8310 C.2     1  UNL1        0.0220
     15 BR         14.9000  -23.4420   -4.7180 Br      1  UNL1       -0.0490
     16  C         18.4730  -21.4650   -3.9680 C.2     1  UNL1        0.0080
     17  C         18.9400  -21.0990   -5.2360 C.2     1  UNL1       -0.0600
     18  C         20.2190  -20.3300   -5.3850 C.3     1  UNL1        0.0480
     19  C         18.1690  -21.4130   -6.3660 C.2     1  UNL1        0.0380
     20  C         21.4350  -22.9930  -10.3860 C.2     1  UNL1        0.2560
     21  O         21.7910  -23.7890   -9.5250 O.2     1  UNL1       -0.2670
     22  N         22.2310  -22.3950  -11.3400 N.am    1  UNL1       -0.3200
     23  H         21.8240  -21.6640  -11.9130 H       1  UNL1        0.1690
     24  C         23.6080  -22.6100  -11.5670 C.2     1  UNL1        0.0730
     25  C         24.1260  -23.4110  -12.5860 C.2     1  UNL1        0.0330
     26  C         25.5110  -23.5590  -12.7310 C.2     1  UNL1        0.0020
     27  C         26.3890  -22.9060  -11.8640 C.2     1  UNL1        0.0030
     28  C         25.8840  -22.1010  -10.8470 C.2     1  UNL1        0.0440
     29  C         24.5070  -21.9610  -10.7090 C.2     1  UNL1        0.1430
     30  F         24.0290  -21.1780   -9.7270 F       1  UNL1       -0.2040
@<TRIPOS>BOND
     1    26    25    1
     2    26    27    2
     3    25    24    2
     4    23    22    1
     5    27    28    1
     6    24    22    1
     7    24    29    1
     8    22    20   am
     9     3     4    2
    10     3     2    1
    11     4     5    1
    12    28    29    2
    13    29    30    1
    14     2     1    2
    15     5    20    1
    16     5     6    2
    17    20    21    2
    18     1     6    1
    19     1     7    1
    20     9     7    2
    21     7     8    2
    22     7    10    1
    23    11    10    1
    24    10    12    1
    25    19    12    2
    26    19    17    1
    27    12    13    1
    28    18    17    1
    29    17    16    2
    30    13    15    1
    31    13    14    2
    32    16    14    1
