@<TRIPOS>MOLECULE
15182_out_ligand_01.pdbqt
 35 39 0 0 0
SMALL
GASTEIGER

@<TRIPOS>ATOM
      1  C         19.5730  -21.7370  -10.9540 C.2     1  UNL1        0.0530
      2  C         18.8840  -20.6220  -11.4670 C.2     1  UNL1        0.0190
      3  C         17.4960  -20.5600  -11.3840 C.2     1  UNL1        0.0010
      4  C         16.7970  -21.6090  -10.7980 C.2     1  UNL1        0.0020
      5  C         17.4830  -22.7110  -10.2720 C.2     1  UNL1        0.0240
      6  C         18.8850  -22.7840  -10.2950 C.2     1  UNL1        0.0240
      7  N         19.5890  -23.9090   -9.8210 N.pl3   1  UNL1       -0.2830
      8  H         20.5240  -23.9080  -10.2620 H       1  UNL1        0.1280
      9  C         19.7140  -24.1600   -8.3770 C.3     1  UNL1        0.1950
     10  C         18.4140  -23.8560   -7.6010 C.2     1  UNL1        0.2370
     11  O         17.3450  -24.3390   -7.9840 O.2     1  UNL1       -0.2720
     12  N         18.5460  -23.0100   -6.4840 N.am    1  UNL1       -0.3170
     13  C         19.6600  -22.0600   -6.4030 C.3     1  UNL1        0.1320
     14  C         17.6200  -23.0310   -5.3780 C.2     1  UNL1        0.0430
     15  C         19.2610  -20.7350   -5.7810 C.3     1  UNL1        0.0250
     16  C         18.7550  -20.9770   -4.3750 C.3     1  UNL1        0.0420
     17  C         17.7120  -22.0610   -4.3550 C.2     1  UNL1       -0.0310
     18  C         16.8400  -22.1080   -3.2490 C.2     1  UNL1        0.0090
     19  C         15.8680  -23.0970   -3.1530 C.2     1  UNL1        0.0010
     20  C         15.7680  -24.0550   -4.1510 C.2     1  UNL1        0.0020
     21  C         16.6390  -24.0250   -5.2460 C.2     1  UNL1        0.0300
     22  C         21.0590  -21.7800  -11.0950 C.2     1  UNL1        0.2580
     23  O         21.7480  -21.8170  -10.0820 O.2     1  UNL1       -0.2670
     24  N         21.5050  -21.8090  -12.4060 N.am    1  UNL1       -0.3230
     25  H         20.7960  -21.9130  -13.1200 H       1  UNL1        0.1690
     26  C         22.8400  -21.8130  -12.8580 C.2     1  UNL1        0.0370
     27  C         23.7370  -22.6580  -12.1860 C.2     1  UNL1        0.0320
     28  C         25.0770  -22.7340  -12.5750 C.2     1  UNL1        0.0420
     29  C         25.5300  -21.9690  -13.6430 C.2     1  UNL1        0.1020
     30  C         24.6520  -21.1070  -14.3040 C.2     1  UNL1        0.1040
     31  O         26.8510  -22.1090  -13.9860 O.2     1  UNL1       -0.3460
     32  C         23.3090  -21.0410  -13.9230 C.2     1  UNL1        0.0690
     33  O         25.0370  -20.3010  -15.3470 O.2     1  UNL1       -0.3460
     34  C         26.4610  -20.1850  -15.4160 C.3     1  UNL1        0.2020
     35  C         27.1160  -21.5490  -15.2770 C.3     1  UNL1        0.2020
@<TRIPOS>BOND
     1    34    33    1
     2    34    35    1
     3    33    30    1
     4    35    31    1
     5    30    32    1
     6    30    29    2
     7    31    29    1
     8    32    26    2
     9    29    28    1
    10    25    24    1
    11    26    24    1
    12    26    27    1
    13    28    27    2
    14    24    22   am
    15     2     3    1
    16     2     1    2
    17     3     4    2
    18    22     1    1
    19    22    23    2
    20     1     6    1
    21     4     5    1
    22     6     5    2
    23     6     7    1
    24     8     7    1
    25     7     9    1
    26     9    10    1
    27    11    10    2
    28    10    12   am
    29    12    13    1
    30    12    14    1
    31    13    15    1
    32    15    16    1
    33    14    21    2
    34    14    17    1
    35    21    20    1
    36    16    17    1
    37    17    18    2
    38    20    19    2
    39    18    19    1
