@<TRIPOS>MOLECULE
15184_out_ligand_01.pdbqt
 34 37 0 0 0
SMALL
GASTEIGER

@<TRIPOS>ATOM
      1  C         20.1410  -22.2990  -10.2280 C.2     1  UNL1        0.0240
      2  C         20.0430  -21.6000  -11.4420 C.2     1  UNL1        0.0240
      3  C         18.8180  -21.1120  -11.9110 C.2     1  UNL1        0.0020
      4  C         17.6590  -21.2910  -11.1640 C.2     1  UNL1        0.0010
      5  C         17.7290  -21.9360   -9.9320 C.2     1  UNL1        0.0190
      6  C         18.9620  -22.4120   -9.4470 C.2     1  UNL1        0.0530
      7  N         21.3800  -22.7400   -9.7210 N.pl3   1  UNL1       -0.2830
      8  H         21.7350  -23.4870  -10.3410 H       1  UNL1        0.1280
      9  C         22.4510  -21.7830   -9.4270 C.3     1  UNL1        0.1950
     10  C         23.5480  -21.7610  -10.5070 C.2     1  UNL1        0.2350
     11  O         24.5740  -21.1020  -10.3650 O.2     1  UNL1       -0.2720
     12  N         23.2130  -22.5150  -11.6260 N.am    1  UNL1       -0.3260
     13  H         22.2840  -22.9140  -11.6490 H       1  UNL1        0.1690
     14  C         24.0030  -22.7450  -12.7710 C.2     1  UNL1        0.0370
     15  C         24.9550  -23.7620  -12.8720 C.2     1  UNL1        0.0320
     16  C         25.6910  -23.9350  -14.0520 C.2     1  UNL1        0.0420
     17  C         25.4790  -23.0880  -15.1350 C.2     1  UNL1        0.1020
     18  C         24.5480  -22.0520  -15.0340 C.2     1  UNL1        0.1040
     19  O         26.2230  -23.3250  -16.2620 O.2     1  UNL1       -0.3460
     20  C         23.7970  -21.8960  -13.8670 C.2     1  UNL1        0.0690
     21  O         24.3150  -21.1500  -16.0410 O.2     1  UNL1       -0.3460
     22  C         25.3770  -21.1690  -17.0030 C.3     1  UNL1        0.2020
     23  C         25.7180  -22.6000  -17.3900 C.3     1  UNL1        0.2020
     24  C         19.0030  -23.0680   -8.1040 C.2     1  UNL1        0.2530
     25  O         19.8480  -22.7410   -7.2740 O.2     1  UNL1       -0.2680
     26  N         18.0240  -24.0120   -7.8640 N.am    1  UNL1       -0.3530
     27  H         17.2300  -24.0460   -8.4880 H       1  UNL1        0.1630
     28  C         17.8300  -24.5760   -6.5450 C.3     1  UNL1        0.1610
     29  C         16.8120  -23.7760   -5.7710 C.2     1  UNL1       -0.0410
     30  C         17.0780  -23.3900   -4.4480 C.2     1  UNL1        0.0090
     31  C         16.1540  -22.6250   -3.7360 C.2     1  UNL1        0.0010
     32  C         14.9550  -22.2400   -4.3350 C.2     1  UNL1        0.0000
     33  C         14.6820  -22.6170   -5.6500 C.2     1  UNL1        0.0010
     34  C         15.6070  -23.3790   -6.3660 C.2     1  UNL1        0.0090
@<TRIPOS>BOND
     1    23    22    1
     2    23    19    1
     3    22    21    1
     4    19    17    1
     5    21    18    1
     6    17    18    2
     7    17    16    1
     8    18    20    1
     9    16    15    2
    10    20    14    2
    11    15    14    1
    12    14    12    1
    13     3     2    1
    14     3     4    2
    15    13    12    1
    16    12    10   am
    17     2     1    2
    18     4     5    1
    19    10    11    2
    20    10     9    1
    21     8     7    1
    22     1     7    1
    23     1     6    1
    24     5     6    2
    25     7     9    1
    26     6    24    1
    27    27    26    1
    28    24    26   am
    29    24    25    2
    30    26    28    1
    31    28    29    1
    32    34    29    2
    33    34    33    1
    34    29    30    1
    35    33    32    2
    36    30    31    2
    37    32    31    1
