@<TRIPOS>MOLECULE
15190_out_ligand_01.pdbqt
 37 40 0 0 0
SMALL
GASTEIGER

@<TRIPOS>ATOM
      1  C         21.6200  -22.9220   -8.4330 C.3     1  UNL1        0.1950
      2  C         22.7310  -22.2160   -9.2290 C.2     1  UNL1        0.2350
      3  O         22.9970  -21.0330   -9.0310 O.2     1  UNL1       -0.2720
      4  N         23.3580  -23.0550  -10.1450 N.am    1  UNL1       -0.3260
      5  H         23.0100  -24.0040  -10.2050 H       1  UNL1        0.1690
      6  C         24.3870  -22.7300  -11.0510 C.2     1  UNL1        0.0360
      7  C         25.7210  -23.1120  -10.8950 C.2     1  UNL1        0.0290
      8  C         26.6870  -22.7270  -11.8310 C.2     1  UNL1        0.0040
      9  C         26.3250  -21.9720  -12.9440 C.2     1  UNL1        0.0250
     10  C         24.9880  -21.6140  -13.1210 C.2     1  UNL1        0.0810
     11  C         24.0250  -21.9660  -12.1680 C.2     1  UNL1        0.0540
     12  S         24.5160  -20.6130  -14.5160 S.O2    1  UNL1        0.2600
     13  O         25.3530  -19.4310  -14.5070 O.2     1  UNL1       -0.2000
     14  O         23.0700  -20.5110  -14.5010 O.2     1  UNL1       -0.2000
     15  N         24.9530  -21.5470  -15.8440 N.3     1  UNL1       -0.3070
     16  C         25.1190  -20.9250  -17.1710 C.3     1  UNL1        0.1350
     17  C         24.5760  -21.9580  -18.1520 C.3     1  UNL1        0.0220
     18  C         24.7710  -23.2760  -17.4270 C.3     1  UNL1        0.0220
     19  C         24.4220  -22.9130  -15.9890 C.3     1  UNL1        0.1350
     20  N         20.5670  -23.4540   -9.3010 N.pl3   1  UNL1       -0.2830
     21  H         20.0700  -24.2320   -8.8400 H       1  UNL1        0.1280
     22  C         19.6390  -22.6240   -9.9530 C.2     1  UNL1        0.0240
     23  C         19.9550  -21.8890  -11.1080 C.2     1  UNL1        0.0240
     24  C         18.9950  -21.1160  -11.7780 C.2     1  UNL1        0.0020
     25  C         17.6770  -21.0890  -11.3330 C.2     1  UNL1        0.0010
     26  C         17.3120  -21.8570  -10.2310 C.2     1  UNL1        0.0190
     27  C         18.2780  -22.6300   -9.5630 C.2     1  UNL1        0.0530
     28  C         17.8200  -23.4840   -8.4350 C.2     1  UNL1        0.2530
     29  O         18.5930  -24.2400   -7.8600 O.2     1  UNL1       -0.2680
     30  N         16.4760  -23.3830   -8.1490 N.am    1  UNL1       -0.3510
     31  H         15.8890  -23.0250   -8.8860 H       1  UNL1        0.1630
     32  C         15.8670  -24.3310   -7.2460 C.3     1  UNL1        0.1870
     33  C         15.6980  -23.6730   -5.9300 C.2     1  UNL1        0.0700
     34  C         14.9480  -22.5960   -5.4930 C.2     1  UNL1        0.0360
     35  C         15.2020  -22.4690   -4.1050 C.2     1  UNL1        0.0270
     36  C         16.0870  -23.4730   -3.7860 C.2     1  UNL1        0.1420
     37  O         16.3910  -24.2140   -4.8840 O.2     1  UNL1       -0.3250
@<TRIPOS>BOND
     1    17    18    1
     2    17    16    1
     3    18    19    1
     4    16    15    1
     5    19    15    1
     6    15    12    1
     7    12    13    2
     8    12    14    2
     9    12    10    1
    10    10     9    2
    11    10    11    1
    12     9     8    1
    13    11     6    2
    14     8     7    2
    15    24    25    2
    16    24    23    1
    17    25    26    1
    18    23    22    2
    19     6     7    1
    20     6     4    1
    21    26    27    2
    22     5     4    1
    23     4     2   am
    24    22    27    1
    25    22    20    1
    26    27    28    1
    27    20    21    1
    28    20     1    1
    29     2     3    2
    30     2     1    1
    31    31    30    1
    32    28    30   am
    33    28    29    2
    34    30    32    1
    35    32    33    1
    36    33    34    2
    37    33    37    1
    38    34    35    1
    39    37    36    1
    40    35    36    2
