@<TRIPOS>MOLECULE
15199_out_ligand_01.pdbqt
 34 36 0 0 0
SMALL
GASTEIGER

@<TRIPOS>ATOM
      1  N         20.0860  -22.1430   -8.8490 N.am    1  UNL1       -0.3530
      2  C         19.5710  -22.5280  -10.0550 C.2     1  UNL1        0.2410
      3  O         19.2290  -23.6710  -10.3320 O.2     1  UNL1       -0.2690
      4  H         20.2010  -21.1580   -8.6590 H       1  UNL1        0.1630
      5  C         19.3440  -21.4310  -11.0300 C.2     1  UNL1        0.0750
      6  C         20.1760  -20.9790  -11.9830 C.2     1  UNL1        0.0170
      7  C         21.5040  -21.5040  -12.3070 C.2     1  UNL1       -0.0360
      8  C         22.1170  -21.1320  -13.5100 C.2     1  UNL1        0.0130
      9  C         23.3890  -21.6140  -13.8290 C.2     1  UNL1        0.0250
     10  C         24.0420  -22.4740  -12.9420 C.2     1  UNL1        0.0740
     11  C         23.4290  -22.8760  -11.7530 C.2     1  UNL1        0.0250
     12  C         22.1610  -22.3850  -11.4370 C.2     1  UNL1        0.0130
     13  S         25.6580  -23.0780  -13.3610 S.O2    1  UNL1        0.2430
     14  O         25.9610  -24.2180  -12.5230 O.2     1  UNL1       -0.2060
     15  O         25.7270  -23.1580  -14.8040 O.2     1  UNL1       -0.2060
     16  N         26.6670  -21.7970  -12.8550 N.3     1  UNL1       -0.2020
     17  C         27.0840  -20.8320  -13.9250 C.3     1  UNL1        0.1340
     18  C         26.3330  -19.5030  -13.7960 C.3     1  UNL1        0.1830
     19  O         26.5870  -18.8370  -12.5500 O.3     1  UNL1       -0.3890
     20  C         26.8370  -19.7390  -11.4620 C.3     1  UNL1        0.1830
     21  C         26.1440  -21.0940  -11.6340 C.3     1  UNL1        0.1340
     22  C         20.2370  -23.0640   -7.7490 C.3     1  UNL1        0.1610
     23  C         18.9670  -23.1440   -6.9410 C.2     1  UNL1       -0.0400
     24  C         18.1270  -24.2660   -7.0310 C.2     1  UNL1        0.0100
     25  C         16.9640  -24.3430   -6.2630 C.2     1  UNL1        0.0250
     26  C         16.6440  -23.2980   -5.3920 C.2     1  UNL1        0.0740
     27  C         17.4650  -22.1720   -5.2930 C.2     1  UNL1        0.0250
     28  C         18.6290  -22.1040   -6.0590 C.2     1  UNL1        0.0100
     29  S         15.1670  -23.3840   -4.4140 S.O2    1  UNL1        0.2390
     30  O         14.9370  -22.0880   -3.8210 O.2     1  UNL1       -0.2060
     31  O         14.1550  -24.0910   -5.1650 O.2     1  UNL1       -0.2060
     32  N         15.6580  -24.3890   -3.1530 N.3     1  UNL1       -0.2250
     33  H         16.5920  -24.1020   -2.8500 H       1  UNL1        0.1360
     34  H         15.6200  -25.3790   -3.3910 H       1  UNL1        0.1360
@<TRIPOS>BOND
     1    15    13    2
     2    17    18    1
     3    17    16    1
     4     9     8    1
     5     9    10    2
     6    18    19    1
     7     8     7    2
     8    13    10    1
     9    13    16    1
    10    13    14    2
    11    10    11    1
    12    16    21    1
    13    19    20    1
    14     7     6    1
    15     7    12    1
    16     6     5    2
    17    11    12    2
    18    21    20    1
    19     5     2    1
    20     3     2    2
    21     2     1   am
    22     1     4    1
    23     1    22    1
    24    22    23    1
    25    24    23    2
    26    24    25    1
    27    23    28    1
    28    25    26    2
    29    28    27    2
    30    26    27    1
    31    26    29    1
    32    31    29    2
    33    29    30    2
    34    29    32    1
    35    34    32    1
    36    32    33    1
