@<TRIPOS>MOLECULE
15193_out_ligand_01.pdbqt
 32 35 0 0 0
SMALL
GASTEIGER

@<TRIPOS>ATOM
      1  C         19.9960  -21.7100  -11.0400 C.2     1  UNL1        0.0530
      2  C         19.2080  -20.6950  -11.6130 C.2     1  UNL1        0.0190
      3  C         17.8240  -20.7190  -11.4700 C.2     1  UNL1        0.0010
      4  C         17.2280  -21.7460  -10.7480 C.2     1  UNL1        0.0020
      5  C         18.0090  -22.7660  -10.1910 C.2     1  UNL1        0.0240
      6  C         19.4020  -22.8010  -10.3600 C.2     1  UNL1        0.0240
      7  N         20.2090  -23.7870   -9.7590 N.pl3   1  UNL1       -0.2830
      8  H         20.3050  -24.5700  -10.4280 H       1  UNL1        0.1280
      9  C         19.8820  -24.3090   -8.4240 C.3     1  UNL1        0.1950
     10  C         19.3160  -23.2250   -7.4800 C.2     1  UNL1        0.2370
     11  O         19.9450  -22.1780   -7.3060 O.2     1  UNL1       -0.2720
     12  N         18.0770  -23.5150   -6.8800 N.am    1  UNL1       -0.3170
     13  C         17.1520  -24.4620   -7.5100 C.3     1  UNL1        0.1320
     14  C         17.6580  -22.9190   -5.6340 C.2     1  UNL1        0.0430
     15  C         15.6990  -24.0500   -7.3670 C.3     1  UNL1        0.0250
     16  C         15.3470  -23.9690   -5.8970 C.3     1  UNL1        0.0420
     17  C         16.3480  -23.1320   -5.1480 C.2     1  UNL1       -0.0310
     18  C         15.9510  -22.5910   -3.9110 C.2     1  UNL1        0.0090
     19  C         16.8320  -21.8280   -3.1530 C.2     1  UNL1        0.0010
     20  C         18.1220  -21.6130   -3.6180 C.2     1  UNL1        0.0020
     21  C         18.5300  -22.1580   -4.8400 C.2     1  UNL1        0.0300
     22  C         21.4790  -21.6270  -11.1900 C.2     1  UNL1        0.2580
     23  O         22.1650  -21.4120  -10.1960 O.2     1  UNL1       -0.2670
     24  N         21.9300  -21.7740  -12.4910 N.am    1  UNL1       -0.3230
     25  H         21.2190  -21.8010  -13.2120 H       1  UNL1        0.1690
     26  C         23.2660  -21.7890  -12.9390 C.2     1  UNL1        0.0350
     27  C         23.6020  -20.9060  -13.9760 C.2     1  UNL1        0.0320
     28  C         24.9040  -20.8640  -14.4810 C.2     1  UNL1        0.0440
     29  C         25.8700  -21.7090  -13.9500 C.2     1  UNL1        0.1160
     30  F         27.1190  -21.6700  -14.4340 F       1  UNL1       -0.2060
     31  C         25.5560  -22.5920  -12.9260 C.2     1  UNL1        0.0440
     32  C         24.2520  -22.6320  -12.4210 C.2     1  UNL1        0.0320
@<TRIPOS>BOND
     1    28    27    1
     2    28    29    2
     3    30    29    1
     4    27    26    2
     5    29    31    1
     6    25    24    1
     7    26    24    1
     8    26    32    1
     9    31    32    2
    10    24    22   am
    11     2     3    1
    12     2     1    2
    13     3     4    2
    14    22     1    1
    15    22    23    2
    16     1     6    1
    17     4     5    1
    18     8     7    1
    19     6     5    2
    20     6     7    1
    21     7     9    1
    22     9    10    1
    23    13    15    1
    24    13    12    1
    25    10    11    2
    26    10    12   am
    27    15    16    1
    28    12    14    1
    29    16    17    1
    30    14    17    2
    31    14    21    1
    32    17    18    1
    33    21    20    2
    34    18    19    2
    35    20    19    1
