@<TRIPOS>MOLECULE
1520_out_ligand_01.pdbqt
 36 40 0 0 0
SMALL
GASTEIGER

@<TRIPOS>ATOM
      1  S         16.4980  -23.2580   -9.6920 S.3     1  UNL1       -0.0870
      2  C         16.3410  -23.1550   -7.9680 C.ar    1  UNL1        0.1700
      3  N         17.2090  -23.7590   -7.0900 N.ar    1  UNL1       -0.3190
      4  C         16.7670  -23.4630   -5.8150 C.ar    1  UNL1        0.0830
      5  C         17.2290  -23.7640   -4.5420 C.2     1  UNL1        0.1480
      6  C         15.6150  -22.7040   -6.0120 C.ar    1  UNL1        0.0890
      7  N         16.5320  -23.3100   -3.4730 N.2     1  UNL1       -0.2710
      8  C         15.4080  -22.5780   -3.6720 C.2     1  UNL1        0.1180
      9  C         14.8940  -22.2390   -4.9120 C.2     1  UNL1        0.0530
     10  N         15.3730  -22.5200   -7.3460 N.ar    1  UNL1       -0.2220
     11  C         18.4330  -24.4820   -7.4110 C.3     1  UNL1        0.1700
     12  C         19.6380  -23.5850   -7.5580 C.2     1  UNL1       -0.0390
     13  C         19.6650  -22.2940   -7.0150 C.2     1  UNL1        0.0090
     14  C         20.7780  -21.4710   -7.1970 C.2     1  UNL1        0.0010
     15  C         21.8750  -21.9230   -7.9300 C.2     1  UNL1        0.0070
     16  C         21.8640  -23.2020   -8.4960 C.2     1  UNL1       -0.0610
     17  C         23.0460  -23.7080   -9.2700 C.3     1  UNL1        0.0480
     18  C         20.7470  -24.0270   -8.3000 C.2     1  UNL1        0.0150
     19  C         17.1110  -21.6060  -10.0980 C.3     1  UNL1        0.1210
     20  C         18.4120  -21.5590  -10.8660 C.2     1  UNL1       -0.0480
     21  C         19.2530  -22.6770  -10.9420 C.2     1  UNL1        0.0090
     22  C         20.4870  -22.5980  -11.6000 C.2     1  UNL1        0.0170
     23  C         20.8910  -21.3950  -12.1890 C.2     1  UNL1        0.0320
     24  C         20.0370  -20.2880  -12.1580 C.2     1  UNL1        0.0170
     25  C         18.8100  -20.3680  -11.4950 C.2     1  UNL1        0.0090
     26  C         22.2090  -21.2580  -12.8660 C.2     1  UNL1        0.2520
     27  O         22.2770  -20.8360  -14.0140 O.2     1  UNL1       -0.2680
     28  N         23.3090  -21.5870  -12.1010 N.am    1  UNL1       -0.3520
     29  H         23.1760  -21.6750  -11.1020 H       1  UNL1        0.1630
     30  C         24.6720  -21.3930  -12.5920 C.3     1  UNL1        0.0880
     31  C         25.0880  -22.5940  -13.4490 C.3     1  UNL1        0.0250
     32  C         25.2810  -23.8750  -12.6370 C.3     1  UNL1        0.0020
     33  C         25.8950  -23.6370  -11.2580 C.3     1  UNL1        0.0010
     34  C         26.6260  -22.3040  -11.1790 C.3     1  UNL1        0.0060
     35  C         25.6610  -21.1300  -11.4210 C.3     1  UNL1        0.0040
     36  C         26.4610  -19.8480  -11.6540 C.3     1  UNL1        0.0120
@<TRIPOS>BOND
     1    27    26    2
     2    31    32    1
     3    31    30    1
     4    26    23    1
     5    26    28   am
     6    32    33    1
     7    30    28    1
     8    30    35    1
     9    23    24    2
    10    23    22    1
    11    24    25    1
    12    28    29    1
    13    36    35    1
    14    22    21    2
    15    25    20    2
    16    35    34    1
    17    33    34    1
    18    21    20    1
    19    20    19    1
    20    19     1    1
    21     1     2    1
    22    17    16    1
    23    16    18    1
    24    16    15    2
    25    18    12    2
    26     2    10   ar
    27     2     3   ar
    28    15    14    1
    29    12    11    1
    30    12    13    1
    31    11     3    1
    32    10     6   ar
    33    14    13    2
    34     3     4   ar
    35     6     4   ar
    36     6     9    1
    37     4     5    1
    38     9     8    2
    39     5     7    2
    40     8     7    1
