@<TRIPOS>MOLECULE
15207_out_ligand_01.pdbqt
 35 38 0 0 0
SMALL
GASTEIGER

@<TRIPOS>ATOM
      1  N         23.9350  -22.1550  -11.1690 N.pl3   1  UNL1       -0.2830
      2  H         24.3700  -21.2580  -10.9110 H       1  UNL1        0.1280
      3  C         23.8200  -23.0280  -10.0000 C.3     1  UNL1        0.1950
      4  C         22.7270  -22.5640   -9.0230 C.2     1  UNL1        0.2350
      5  O         22.7910  -21.4600   -8.4840 O.2     1  UNL1       -0.2720
      6  N         21.7130  -23.4990   -8.8650 N.am    1  UNL1       -0.3260
      7  H         21.8190  -24.3790   -9.3530 H       1  UNL1        0.1690
      8  C         20.5320  -23.3640   -8.1090 C.2     1  UNL1        0.0340
      9  C         19.5140  -24.3090   -8.0680 C.2     1  UNL1        0.0320
     10  C         18.3810  -24.1000   -7.2630 C.2     1  UNL1        0.0310
     11  C         18.2200  -22.9510   -6.4730 C.2     1  UNL1        0.0300
     12  C         19.2570  -22.0100   -6.5420 C.2     1  UNL1        0.0310
     13  C         20.3930  -22.2090   -7.3400 C.2     1  UNL1        0.0320
     14  N         17.1050  -22.7530   -5.6790 N.pl3   1  UNL1       -0.3770
     15  C         15.7470  -23.1080   -6.1290 C.3     1  UNL1        0.1490
     16  C         14.7110  -22.1700   -5.4860 C.3     1  UNL1        0.1870
     17  O         14.7150  -22.1870   -4.0500 O.3     1  UNL1       -0.3880
     18  C         15.9970  -22.4990   -3.4900 C.3     1  UNL1        0.1870
     19  C         17.1850  -22.0830   -4.3720 C.3     1  UNL1        0.1490
     20  C         24.4440  -22.5920  -12.3960 C.2     1  UNL1        0.0240
     21  C         25.4280  -23.5850  -12.5040 C.2     1  UNL1        0.0240
     22  C         25.8630  -24.0600  -13.7490 C.2     1  UNL1        0.0020
     23  C         25.2940  -23.5820  -14.9250 C.2     1  UNL1        0.0010
     24  C         24.2770  -22.6390  -14.8540 C.2     1  UNL1        0.0190
     25  C         23.8500  -22.1620  -13.6030 C.2     1  UNL1        0.0530
     26  C         22.7290  -21.1910  -13.5910 C.2     1  UNL1        0.2530
     27  O         22.7300  -20.2220  -14.3400 O.2     1  UNL1       -0.2680
     28  N         21.7460  -21.4580  -12.6650 N.am    1  UNL1       -0.3510
     29  H         22.0150  -22.0480  -11.8860 H       1  UNL1        0.1630
     30  C         20.7190  -20.4770  -12.4110 C.3     1  UNL1        0.1870
     31  C         19.5470  -21.1710  -11.8250 C.2     1  UNL1        0.0700
     32  C         19.3750  -22.3760  -11.1700 C.2     1  UNL1        0.0360
     33  C         18.0020  -22.4530  -10.8290 C.2     1  UNL1        0.0270
     34  C         17.4260  -21.2960  -11.2980 C.2     1  UNL1        0.1420
     35  O         18.3560  -20.5080  -11.8960 O.2     1  UNL1       -0.3250
@<TRIPOS>BOND
     1    23    24    2
     2    23    22    1
     3    24    25    1
     4    27    26    2
     5    22    21    2
     6    25    26    1
     7    25    20    2
     8    26    28   am
     9    28    30    1
    10    28    29    1
    11    21    20    1
    12    30    31    1
    13    20     1    1
    14    35    31    1
    15    35    34    1
    16    31    32    2
    17    34    33    2
    18    32    33    1
    19     1     2    1
    20     1     3    1
    21     3     4    1
    22     7     6    1
    23     4     6   am
    24     4     5    2
    25     6     8    1
    26     8     9    2
    27     8    13    1
    28     9    10    1
    29    13    12    2
    30    10    11    2
    31    12    11    1
    32    11    14    1
    33    15    14    1
    34    15    16    1
    35    14    19    1
    36    16    17    1
    37    19    18    1
    38    17    18    1
