@<TRIPOS>MOLECULE
15205_out_ligand_01.pdbqt
 37 40 0 0 0
SMALL
GASTEIGER

@<TRIPOS>ATOM
      1  N         18.0590  -22.0920   -6.1840 N.pl3   1  UNL1       -0.2830
      2  H         18.5170  -22.7640   -6.8200 H       1  UNL1        0.1280
      3  C         17.0890  -22.7570   -5.4020 C.2     1  UNL1        0.0240
      4  C         17.1190  -22.6350   -4.0010 C.2     1  UNL1        0.0240
      5  C         16.1200  -23.1900   -3.1990 C.2     1  UNL1        0.0020
      6  C         15.0500  -23.8540   -3.7820 C.2     1  UNL1        0.0010
      7  C         14.9830  -23.9780   -5.1700 C.2     1  UNL1        0.0190
      8  C         16.0010  -23.4520   -5.9900 C.2     1  UNL1        0.0530
      9  C         15.9220  -23.6220   -7.4810 C.2     1  UNL1        0.2530
     10  N         16.0010  -22.4810   -8.2550 N.am    1  UNL1       -0.3530
     11  H         15.8770  -21.5750   -7.8270 H       1  UNL1        0.1630
     12  O         15.7580  -24.7370   -7.9720 O.2     1  UNL1       -0.2680
     13  C         15.8870  -22.5260   -9.6970 C.3     1  UNL1        0.1610
     14  C         17.1940  -22.1770  -10.3570 C.2     1  UNL1       -0.0410
     15  C         17.3160  -21.0250  -11.1460 C.2     1  UNL1        0.0090
     16  C         18.5330  -20.7060  -11.7530 C.2     1  UNL1        0.0070
     17  C         19.6460  -21.5390  -11.5940 C.2     1  UNL1       -0.0620
     18  C         20.9660  -21.1780  -12.2060 C.3     1  UNL1        0.0480
     19  C         19.5280  -22.6880  -10.8050 C.2     1  UNL1        0.0070
     20  C         18.3110  -23.0070  -10.1960 C.2     1  UNL1        0.0090
     21  C         19.0550  -21.2520   -5.4800 C.3     1  UNL1        0.1950
     22  C         20.3700  -21.1470   -6.2720 C.2     1  UNL1        0.2350
     23  O         21.2080  -20.2940   -5.9960 O.2     1  UNL1       -0.2720
     24  N         20.4610  -22.1140   -7.2540 N.am    1  UNL1       -0.3260
     25  H         19.6240  -22.6980   -7.3140 H       1  UNL1        0.1690
     26  C         21.5200  -22.3820   -8.1340 C.2     1  UNL1        0.0340
     27  C         22.3230  -21.3060   -8.5180 C.2     1  UNL1        0.0310
     28  C         23.3860  -21.4870   -9.4160 C.2     1  UNL1        0.0260
     29  C         23.6740  -22.7430   -9.9650 C.2     1  UNL1        0.0100
     30  C         22.8700  -23.8150   -9.5420 C.2     1  UNL1        0.0260
     31  C         21.8060  -23.6420   -8.6460 C.2     1  UNL1        0.0310
     32  N         24.7190  -22.9760  -10.8730 N.pl3   1  UNL1       -0.2790
     33  C         24.2540  -23.2910  -12.2470 C.3     1  UNL1        0.1220
     34  C         25.4380  -23.7770  -13.0990 C.3     1  UNL1        0.1820
     35  O         26.4980  -22.8080  -13.1310 O.3     1  UNL1       -0.3890
     36  C         26.9730  -22.5610  -11.7970 C.3     1  UNL1        0.1820
     37  C         25.8520  -22.0240  -10.8920 C.3     1  UNL1        0.1220
@<TRIPOS>BOND
     1    35    34    1
     2    35    36    1
     3    34    33    1
     4    33    32    1
     5    18    17    1
     6    36    37    1
     7    16    17    2
     8    16    15    1
     9    17    19    1
    10    15    14    2
    11    37    32    1
    12    32    29    1
    13    19    20    2
    14    14    20    1
    15    14    13    1
    16    29    30    2
    17    29    28    1
    18    13    10    1
    19    30    31    1
    20    28    27    2
    21    31    26    2
    22    27    26    1
    23    10    11    1
    24    10     9   am
    25    26    24    1
    26    12     9    2
    27     9     8    1
    28    25    24    1
    29    24    22   am
    30     2     1    1
    31    22    23    2
    32    22    21    1
    33     1    21    1
    34     1     3    1
    35     8     3    2
    36     8     7    1
    37     3     4    1
    38     7     6    2
    39     4     5    2
    40     6     5    1
