@<TRIPOS>MOLECULE
15208_out_ligand_01.pdbqt
 33 36 0 0 0
SMALL
GASTEIGER

@<TRIPOS>ATOM
      1  C         20.4240  -22.1300   -7.2890 C.2     1  UNL1        0.0360
      2  C         20.5370  -21.0770   -6.3690 C.2     1  UNL1        0.0290
      3  C         19.5070  -20.8010   -5.4660 C.2     1  UNL1        0.0040
      4  C         18.3490  -21.5730   -5.4720 C.2     1  UNL1        0.0250
      5  C         18.2300  -22.6160   -6.3930 C.2     1  UNL1        0.0810
      6  C         19.2520  -22.8870   -7.3100 C.2     1  UNL1        0.0540
      7  N         21.5180  -22.3560   -8.1480 N.am    1  UNL1       -0.3230
      8  C         21.8100  -23.5160   -8.8390 C.2     1  UNL1        0.2570
      9  O         21.1900  -24.5720   -8.8250 O.2     1  UNL1       -0.2670
     10  H         22.1690  -21.5860   -8.2540 H       1  UNL1        0.1690
     11  C         23.0360  -23.3770   -9.6690 C.2     1  UNL1        0.0500
     12  C         24.1490  -23.9040   -9.1320 C.2     1  UNL1        0.0920
     13  C         25.4280  -23.8900   -9.8700 C.2     1  UNL1        0.2460
     14  O         26.4400  -24.3820   -9.3850 O.2     1  UNL1       -0.2680
     15  N         25.4170  -23.3210  -11.1120 N.am    1  UNL1       -0.3230
     16  C         24.2830  -22.7450  -11.6990 C.2     1  UNL1        0.0460
     17  H         26.3030  -23.3170  -11.6000 H       1  UNL1        0.1690
     18  C         24.3850  -22.1680  -12.9650 C.2     1  UNL1        0.0300
     19  C         23.0690  -22.7430  -10.9970 C.2     1  UNL1        0.0060
     20  C         23.2670  -21.5620  -13.5380 C.2     1  UNL1        0.0020
     21  C         22.0580  -21.5300  -12.8430 C.2     1  UNL1        0.0010
     22  C         21.9580  -22.1170  -11.5780 C.2     1  UNL1        0.0150
     23  S         16.7400  -23.5840   -6.4390 S.O2    1  UNL1        0.2590
     24  O         17.0020  -24.8250   -5.7420 O.2     1  UNL1       -0.2010
     25  O         15.6240  -22.7370   -6.0850 O.2     1  UNL1       -0.2010
     26  N         16.6320  -23.9740   -8.0590 N.3     1  UNL1       -0.3090
     27  H         16.5040  -24.9720   -8.2230 H       1  UNL1        0.1720
     28  C         15.8690  -23.0770   -8.9230 C.3     1  UNL1        0.1970
     29  C         16.8110  -22.5140   -9.9240 C.2     1  UNL1        0.0700
     30  C         18.0060  -22.9570  -10.4550 C.2     1  UNL1        0.0360
     31  C         18.4280  -21.9670  -11.3740 C.2     1  UNL1        0.0270
     32  C         17.4640  -20.9840  -11.3460 C.2     1  UNL1        0.1420
     33  O         16.4720  -21.3120  -10.4760 O.2     1  UNL1       -0.3250
@<TRIPOS>BOND
     1    20    18    1
     2    20    21    2
     3    18    16    2
     4    21    22    1
     5    16    15    1
     6    16    19    1
     7    17    15    1
     8    22    19    2
     9    31    32    2
    10    31    30    1
    11    32    33    1
    12    15    13   am
    13    19    11    1
    14    33    29    1
    15    30    29    2
    16    29    28    1
    17    13    14    2
    18    13    12    1
    19    11    12    2
    20    11     8    1
    21    28    26    1
    22     8     9    2
    23     8     7   am
    24    10     7    1
    25    27    26    1
    26     7     1    1
    27    26    23    1
    28     6     1    2
    29     6     5    1
    30     1     2    1
    31    23     5    1
    32    23    25    2
    33    23    24    2
    34     5     4    2
    35     2     3    2
    36     4     3    1
