@<TRIPOS>MOLECULE
15209_out_ligand_01.pdbqt
 25 28 0 0 0
SMALL
GASTEIGER

@<TRIPOS>ATOM
      1  C         19.3970  -22.9120   -9.8940 C.2     1  UNL1        0.2080
      2  N         18.2480  -22.2560  -10.1980 N.2     1  UNL1       -0.2150
      3  C         18.2590  -21.4200  -11.2550 C.2     1  UNL1        0.2360
      4  N         19.2880  -21.1280  -12.0710 N.2     1  UNL1       -0.2380
      5  C         20.4270  -21.7840  -11.7430 C.ar    1  UNL1        0.1090
      6  C         20.5070  -22.6640  -10.6770 C.ar    1  UNL1        0.1590
      7  O         21.7610  -23.1810  -10.5670 O.2     1  UNL1       -0.3030
      8  C         22.4960  -22.6280  -11.5760 C.ar    1  UNL1        0.0890
      9  C         23.8410  -22.8880  -11.8280 C.2     1  UNL1        0.0380
     10  C         24.4150  -22.2190  -12.9140 C.2     1  UNL1        0.0030
     11  C         23.6680  -21.3360  -13.6990 C.2     1  UNL1        0.0010
     12  C         22.3150  -21.0920  -13.4210 C.2     1  UNL1        0.0170
     13  C         21.7180  -21.7550  -12.3330 C.ar    1  UNL1        0.0290
     14  O         19.4740  -23.7770   -8.8120 O.2     1  UNL1       -0.2900
     15  C         19.0020  -23.2960   -7.6160 C.2     1  UNL1        0.0780
     16  C         18.0970  -24.0410   -6.8580 C.2     1  UNL1        0.0380
     17  C         17.6720  -23.5540   -5.6200 C.2     1  UNL1        0.0200
     18  C         18.1550  -22.3280   -5.1400 C.2     1  UNL1        0.0320
     19  C         19.0920  -21.6070   -5.8930 C.2     1  UNL1        0.0200
     20  C         19.5180  -22.0960   -7.1310 C.2     1  UNL1        0.0380
     21  C         17.6690  -21.8510   -3.8180 C.2     1  UNL1        0.2490
     22  N         18.4430  -20.9390   -3.1540 N.am    1  UNL1       -0.3660
     23  H         19.1500  -20.3950   -3.6270 H       1  UNL1        0.1590
     24  H         18.0240  -20.5320   -2.3260 H       1  UNL1        0.1590
     25  O         16.6020  -22.2250   -3.3480 O.2     1  UNL1       -0.2680
@<TRIPOS>BOND
     1    11    12    2
     2    11    10    1
     3    12    13    1
     4    10     9    2
     5    13     5   ar
     6    13     8   ar
     7     4     5    1
     8     4     3    2
     9     9     8    1
    10     5     6   ar
    11     8     7   ar
    12     3     2    1
    13     6     7   ar
    14     6     1    1
    15     2     1    2
    16     1    14    1
    17    14    15    1
    18    15    20    2
    19    15    16    1
    20    20    19    1
    21    16    17    2
    22    19    18    2
    23    17    18    1
    24    18    21    1
    25    21    25    2
    26    21    22   am
    27    23    22    1
    28    22    24    1
