@<TRIPOS>MOLECULE
15206_out_ligand_01.pdbqt
 31 34 0 0 0
SMALL
GASTEIGER

@<TRIPOS>ATOM
      1  C         20.7110  -21.8370  -10.8550 C.2     1  UNL1        0.0530
      2  C         20.1610  -20.7790  -11.6030 C.2     1  UNL1        0.0190
      3  C         18.7880  -20.7140  -11.8160 C.2     1  UNL1        0.0010
      4  C         17.9630  -21.6970  -11.2790 C.2     1  UNL1        0.0020
      5  C         18.5110  -22.7590  -10.5490 C.2     1  UNL1        0.0240
      6  C         19.8970  -22.8830  -10.3570 C.2     1  UNL1        0.0240
      7  N         20.4590  -23.9130   -9.5790 N.pl3   1  UNL1       -0.2830
      8  H         20.7180  -24.6860  -10.2140 H       1  UNL1        0.1280
      9  C         19.7430  -24.4440   -8.4100 C.3     1  UNL1        0.1950
     10  C         19.2430  -23.3330   -7.4600 C.2     1  UNL1        0.2370
     11  O         19.9440  -22.3390   -7.2580 O.2     1  UNL1       -0.2720
     12  N         17.9730  -23.5370   -6.8870 N.am    1  UNL1       -0.3170
     13  C         16.9900  -24.3960   -7.5530 C.3     1  UNL1        0.1320
     14  C         17.5770  -22.9310   -5.6390 C.2     1  UNL1        0.0430
     15  C         15.5710  -23.8710   -7.4310 C.3     1  UNL1        0.0250
     16  C         15.1950  -23.7860   -5.9670 C.3     1  UNL1        0.0420
     17  C         16.2450  -23.0460   -5.1820 C.2     1  UNL1       -0.0310
     18  C         15.8680  -22.4960   -3.9430 C.2     1  UNL1        0.0090
     19  C         16.7920  -21.8210   -3.1530 C.2     1  UNL1        0.0010
     20  C         18.1040  -21.7030   -3.5880 C.2     1  UNL1        0.0020
     21  C         18.4920  -22.2580   -4.8140 C.2     1  UNL1        0.0300
     22  C         22.1870  -21.8510  -10.6230 C.2     1  UNL1        0.2580
     23  O         22.6060  -21.7090   -9.4790 O.2     1  UNL1       -0.2670
     24  N         22.9420  -21.9930  -11.7740 N.am    1  UNL1       -0.3230
     25  H         22.4400  -21.9560  -12.6520 H       1  UNL1        0.1690
     26  C         24.3450  -22.0860  -11.8730 C.2     1  UNL1        0.0350
     27  C         25.2280  -21.1230  -11.3830 C.2     1  UNL1        0.0290
     28  C         26.6090  -21.2940  -11.5150 C.2     1  UNL1        0.0020
     29  C         27.1210  -22.4310  -12.1370 C.2     1  UNL1        0.0000
     30  C         26.2500  -23.4000  -12.6260 C.2     1  UNL1        0.0020
     31  C         24.8700  -23.2290  -12.4940 C.2     1  UNL1        0.0290
@<TRIPOS>BOND
     1    25    24    1
     2    30    31    1
     3    30    29    2
     4    31    26    2
     5    29    28    1
     6    26    24    1
     7    26    27    1
     8     3     2    1
     9     3     4    2
    10    24    22   am
    11     2     1    2
    12    28    27    2
    13     4     5    1
    14     1    22    1
    15     1     6    1
    16    22    23    2
    17     5     6    2
    18     6     7    1
    19     8     7    1
    20     7     9    1
    21     9    10    1
    22    13    15    1
    23    13    12    1
    24    10    11    2
    25    10    12   am
    26    15    16    1
    27    12    14    1
    28    16    17    1
    29    14    17    2
    30    14    21    1
    31    17    18    1
    32    21    20    2
    33    18    19    2
    34    20    19    1
