@<TRIPOS>MOLECULE
15219_out_ligand_01.pdbqt
 33 36 0 0 0
SMALL
GASTEIGER

@<TRIPOS>ATOM
      1  N         22.7800  -22.2530  -10.0930 N.pl3   1  UNL1       -0.2830
      2  H         21.9220  -21.7460   -9.8200 H       1  UNL1        0.1280
      3  C         22.7050  -23.6710   -9.6610 C.3     1  UNL1        0.1950
      4  C         21.4570  -23.9350   -8.8010 C.2     1  UNL1        0.2350
      5  O         20.9370  -25.0470   -8.7640 O.2     1  UNL1       -0.2720
      6  N         21.0340  -22.7970   -8.1370 N.am    1  UNL1       -0.3260
      7  H         21.6420  -21.9950   -8.3040 H       1  UNL1        0.1690
      8  C         19.9470  -22.6370   -7.2640 C.2     1  UNL1        0.0350
      9  C         19.9490  -21.5020   -6.4490 C.2     1  UNL1        0.0300
     10  C         18.9040  -21.2680   -5.5510 C.2     1  UNL1        0.0140
     11  C         17.8340  -22.1670   -5.4520 C.2     1  UNL1       -0.0260
     12  C         16.7730  -21.9490   -4.5560 C.2     1  UNL1        0.0120
     13  C         17.8220  -23.3160   -6.2740 C.2     1  UNL1       -0.0240
     14  C         15.7140  -22.8540   -4.4730 C.2     1  UNL1        0.0010
     15  C         15.7020  -23.9850   -5.2820 C.2     1  UNL1        0.0010
     16  C         16.7490  -24.2160   -6.1760 C.2     1  UNL1        0.0120
     17  C         18.8830  -23.5360   -7.1730 C.2     1  UNL1        0.0420
     18  C         23.0090  -22.0590  -11.4770 C.2     1  UNL1        0.0240
     19  C         24.2400  -22.4460  -12.0340 C.2     1  UNL1        0.0240
     20  C         24.5280  -22.2230  -13.3820 C.2     1  UNL1        0.0020
     21  C         23.5950  -21.5960  -14.2010 C.2     1  UNL1        0.0010
     22  C         22.3620  -21.2070  -13.6770 C.2     1  UNL1        0.0190
     23  C         22.0500  -21.4550  -12.3280 C.2     1  UNL1        0.0530
     24  C         20.6960  -21.0840  -11.8030 C.2     1  UNL1        0.2580
     25  O         20.4440  -19.8980  -11.6160 O.2     1  UNL1       -0.2670
     26  N         19.8680  -22.1530  -11.5030 N.am    1  UNL1       -0.3230
     27  H         20.2780  -23.0770  -11.5380 H       1  UNL1        0.1690
     28  C         18.5360  -22.1010  -11.0410 C.2     1  UNL1        0.0350
     29  C         18.0710  -23.2010  -10.3090 C.2     1  UNL1        0.0290
     30  C         16.7620  -23.2320   -9.8200 C.2     1  UNL1        0.0020
     31  C         15.9040  -22.1630  -10.0620 C.2     1  UNL1        0.0000
     32  C         16.3550  -21.0680  -10.7940 C.2     1  UNL1        0.0020
     33  C         17.6660  -21.0370  -11.2840 C.2     1  UNL1        0.0290
@<TRIPOS>BOND
     1    21    22    2
     2    21    20    1
     3    22    23    1
     4    20    19    2
     5    23    24    1
     6    23    18    2
     7    19    18    1
     8    24    25    2
     9    24    26   am
    10    27    26    1
    11    26    28    1
    12    18     1    1
    13    33    28    2
    14    33    32    1
    15    28    29    1
    16    32    31    2
    17    29    30    2
    18     1     2    1
    19     1     3    1
    20    31    30    1
    21     3     4    1
    22     4     5    2
    23     4     6   am
    24     7     6    1
    25     6     8    1
    26     8    17    2
    27     8     9    1
    28    17    13    1
    29     9    10    2
    30    13    16    1
    31    13    11    2
    32    16    15    2
    33    10    11    1
    34    11    12    1
    35    15    14    1
    36    12    14    2
