@<TRIPOS>MOLECULE
15217_out_ligand_01.pdbqt
 35 38 0 0 0
SMALL
GASTEIGER

@<TRIPOS>ATOM
      1  C         16.9250  -22.7380   -9.0730 C.2     1  UNL1        0.0770
      2  C         16.1300  -21.9710   -9.9250 C.2     1  UNL1        0.0250
      3  C         16.7080  -21.3890  -11.0490 C.2     1  UNL1        0.0040
      4  C         18.0710  -21.5680  -11.3150 C.2     1  UNL1        0.0290
      5  C         18.8740  -22.3200  -10.4520 C.2     1  UNL1        0.0360
      6  C         18.2950  -22.8930   -9.3170 C.2     1  UNL1        0.0540
      7  N         20.2510  -22.5430  -10.6500 N.am    1  UNL1       -0.3230
      8  C         21.1640  -21.6880  -11.2330 C.2     1  UNL1        0.2570
      9  O         20.9420  -20.5980  -11.7440 O.2     1  UNL1       -0.2670
     10  H         20.5990  -23.4500  -10.3610 H       1  UNL1        0.1690
     11  C         22.5370  -22.2650  -11.2570 C.2     1  UNL1        0.0500
     12  C         22.8940  -22.9080  -10.1330 C.2     1  UNL1        0.0920
     13  C         24.2540  -23.4580   -9.9680 C.2     1  UNL1        0.2460
     14  O         24.5780  -24.0330   -8.9370 O.2     1  UNL1       -0.2680
     15  N         25.1270  -23.2670  -11.0030 N.am    1  UNL1       -0.3230
     16  C         24.7870  -22.6300  -12.2030 C.2     1  UNL1        0.0460
     17  H         26.0540  -23.6510  -10.8720 H       1  UNL1        0.1690
     18  C         25.7410  -22.5220  -13.2140 C.2     1  UNL1        0.0300
     19  C         23.4870  -22.1270  -12.3740 C.2     1  UNL1        0.0060
     20  C         25.3990  -21.9200  -14.4230 C.2     1  UNL1        0.0020
     21  C         24.1060  -21.4370  -14.6210 C.2     1  UNL1        0.0010
     22  C         23.1510  -21.5450  -13.6040 C.2     1  UNL1        0.0150
     23  S         16.2000  -23.5050   -7.6410 S.O2    1  UNL1        0.2460
     24  O         15.3610  -22.5200   -6.9940 O.2     1  UNL1       -0.2060
     25  O         15.6620  -24.7820   -8.0630 O.2     1  UNL1       -0.2060
     26  N         17.5380  -23.8440   -6.6580 N.pl3   1  UNL1       -0.1790
     27  H         18.3370  -24.1110   -7.2380 H       1  UNL1        0.1460
     28  C         17.8820  -22.8780   -5.6560 C.2     1  UNL1        0.0560
     29  C         18.6690  -21.7750   -5.9910 C.2     1  UNL1        0.0270
     30  C         19.0500  -20.8710   -5.0010 C.2     1  UNL1        0.0020
     31  C         18.6470  -21.0720   -3.6820 C.2     1  UNL1        0.0030
     32  C         17.8600  -22.1780   -3.3430 C.2     1  UNL1        0.0380
     33  C         17.4780  -23.0940   -4.3260 C.2     1  UNL1        0.0900
     34  O         16.7160  -24.2160   -4.1120 O.2     1  UNL1       -0.3540
     35  C         15.3500  -23.9990   -3.7800 C.3     1  UNL1        0.2100
@<TRIPOS>BOND
     1    21    20    2
     2    21    22    1
     3    20    18    1
     4    22    19    2
     5    18    16    2
     6    19    16    1
     7    19    11    1
     8    16    15    1
     9     9     8    2
    10     4     3    2
    11     4     5    1
    12    11     8    1
    13    11    12    2
    14     8     7   am
    15     3     2    1
    16    15    17    1
    17    15    13   am
    18     7     5    1
    19     7    10    1
    20     5     6    2
    21    12    13    1
    22    13    14    2
    23     2     1    2
    24     6     1    1
    25     1    23    1
    26    25    23    2
    27    23    24    2
    28    23    26    1
    29    27    26    1
    30    26    28    1
    31    29    28    2
    32    29    30    1
    33    28    33    1
    34    30    31    2
    35    33    34    1
    36    33    32    2
    37    34    35    1
    38    31    32    1
