@<TRIPOS>MOLECULE
15229_out_ligand_01.pdbqt
 33 35 0 0 0
SMALL
GASTEIGER

@<TRIPOS>ATOM
      1  C         19.0830  -22.3460  -10.4030 C.2     1  UNL1        0.0330
      2  C         18.3320  -21.5400  -11.2710 C.2     1  UNL1        0.0170
      3  C         16.9700  -21.3360  -11.0360 C.2     1  UNL1        0.0030
      4  C         16.3500  -21.9440   -9.9430 C.2     1  UNL1        0.0250
      5  C         17.0970  -22.7700   -9.0970 C.2     1  UNL1        0.0800
      6  C         18.4640  -22.9700   -9.3150 C.2     1  UNL1        0.0420
      7  C         20.5330  -22.5950  -10.6300 C.2     1  UNL1        0.2560
      8  N         21.1510  -21.7090  -11.4930 N.am    1  UNL1       -0.3230
      9  H         20.6060  -20.9140  -11.8010 H       1  UNL1        0.1690
     10  O         21.0580  -23.5210  -10.0250 O.2     1  UNL1       -0.2670
     11  C         22.4990  -21.7300  -11.9080 C.2     1  UNL1        0.0410
     12  C         22.7530  -21.7120  -13.2750 C.2     1  UNL1        0.0740
     13  C         24.0680  -21.7390  -13.7610 C.2     1  UNL1        0.1480
     14  C         25.2020  -21.7910  -12.9240 C.2     1  UNL1        0.1070
     15  F         24.1930  -21.7310  -15.0980 F       1  UNL1       -0.2030
     16  C         24.8950  -21.8090  -11.5450 C.2     1  UNL1        0.1480
     17  C         23.5850  -21.7840  -11.0440 C.2     1  UNL1        0.0740
     18  F         25.8720  -21.8640  -10.6230 F       1  UNL1       -0.2030
     19  N         26.5180  -21.8000  -13.4160 N.pl3   1  UNL1       -0.3850
     20  C         27.1210  -20.5730  -13.9220 C.3     1  UNL1        0.1490
     21  C         27.1210  -23.0540  -13.8590 C.3     1  UNL1        0.1490
     22  S         16.3200  -23.5490   -7.7010 S.O2    1  UNL1        0.2630
     23  O         15.5110  -22.5430   -7.0470 O.2     1  UNL1       -0.2000
     24  O         15.7440  -24.7980   -8.1530 O.2     1  UNL1       -0.2000
     25  N         17.6180  -23.8770   -6.6710 N.pl3   1  UNL1       -0.2780
     26  H         17.5830  -24.8410   -6.3350 H       1  UNL1        0.1790
     27  C         17.9720  -22.8990   -5.6890 C.2     1  UNL1        0.0810
     28  C         18.7660  -21.8020   -6.0130 C.2     1  UNL1        0.0330
     29  C         19.0650  -20.8470   -5.0360 C.2     1  UNL1        0.0020
     30  C         18.5720  -20.9910   -3.7370 C.2     1  UNL1        0.0030
     31  C         17.7800  -22.0920   -3.4090 C.2     1  UNL1        0.0440
     32  C         17.4880  -23.0370   -4.3860 C.2     1  UNL1        0.1430
     33  F         16.7230  -24.0930   -4.0710 F       1  UNL1       -0.2040
@<TRIPOS>BOND
     1    15    13    1
     2    20    19    1
     3    21    19    1
     4    13    12    1
     5    13    14    2
     6    19    14    1
     7    12    11    2
     8    14    16    1
     9    11     8    1
    10    11    17    1
    11     9     8    1
    12    16    17    2
    13    16    18    1
    14     8     7   am
    15     2     3    1
    16     2     1    2
    17     3     4    2
    18     7     1    1
    19     7    10    2
    20     1     6    1
    21     4     5    1
    22     6     5    2
    23     5    22    1
    24    24    22    2
    25    22    23    2
    26    22    25    1
    27    25    26    1
    28    25    27    1
    29    28    27    2
    30    28    29    1
    31    27    32    1
    32    29    30    2
    33    32    33    1
    34    32    31    2
    35    30    31    1
