@<TRIPOS>MOLECULE
15227_out_ligand_01.pdbqt
 30 33 0 0 0
SMALL
GASTEIGER

@<TRIPOS>ATOM
      1  C         18.6210  -23.6150   -7.3400 C.2     1  UNL1        0.0410
      2  C         17.5150  -24.4750   -7.4550 C.2     1  UNL1        0.0230
      3  C         16.3160  -24.2020   -6.7860 C.2     1  UNL1        0.0260
      4  C         16.2070  -23.0560   -5.9950 C.2     1  UNL1        0.0760
      5  C         17.2930  -22.1930   -5.8410 C.2     1  UNL1        0.0620
      6  C         18.4890  -22.4850   -6.5140 C.2     1  UNL1        0.1210
      7  S         20.0820  -24.0490   -8.2810 S.3     1  UNL1       -0.0480
      8  C         19.8620  -22.9700   -9.6220 C.ar    1  UNL1        0.2010
      9  N         18.6800  -22.5080   -9.9680 N.ar    1  UNL1       -0.1220
     10  N         18.8200  -21.8050  -11.1280 N.ar    1  UNL1       -0.1290
     11  C         20.0890  -21.8450  -11.4710 C.ar    1  UNL1        0.1590
     12  C         20.7300  -21.3140  -12.6100 C.2     1  UNL1        0.0600
     13  N         20.8270  -22.5320  -10.5150 N.ar    1  UNL1       -0.2710
     14  C         22.0570  -21.4370  -12.7870 C.2     1  UNL1       -0.0460
     15  C         22.7180  -20.8740  -14.0140 C.3     1  UNL1        0.0490
     16  C         22.8680  -22.1240  -11.7480 C.2     1  UNL1       -0.0030
     17  C         24.2630  -22.2430  -11.8750 C.2     1  UNL1        0.0140
     18  C         22.2440  -22.6600  -10.5950 C.2     1  UNL1        0.0540
     19  C         25.0250  -22.8580  -10.8830 C.2     1  UNL1        0.0010
     20  C         24.4060  -23.3530   -9.7430 C.2     1  UNL1        0.0020
     21  C         23.0210  -23.2540   -9.5920 C.2     1  UNL1        0.0310
     22  N         19.5980  -21.5680   -6.3130 N.pl3   1  UNL1       -0.1140
     23  O         19.4150  -20.6230   -5.5340 O.2     1  UNL1       -0.5320
     24  O         20.6590  -21.8100   -6.9060 O.2     1  UNL1       -0.5320
     25  S         14.7000  -22.7160   -5.1330 S.O2    1  UNL1        0.2390
     26  O         14.0810  -23.9710   -4.7810 O.2     1  UNL1       -0.2060
     27  O         13.9900  -21.6630   -5.8190 O.2     1  UNL1       -0.2060
     28  N         15.2660  -22.0480   -3.7060 N.3     1  UNL1       -0.2250
     29  H         14.9660  -22.6090   -2.9080 H       1  UNL1        0.1360
     30  H         16.2770  -21.9090   -3.7540 H       1  UNL1        0.1360
@<TRIPOS>BOND
     1    15    14    1
     2    14    12    2
     3    14    16    1
     4    12    11    1
     5    17    16    2
     6    17    19    1
     7    16    18    1
     8    11    10   ar
     9    11    13   ar
    10    10     9   ar
    11    19    20    2
    12    18    13    1
    13    18    21    2
    14    13     8   ar
    15     9     8   ar
    16    20    21    1
    17     8     7    1
    18     7     1    1
    19     2     1    2
    20     2     3    1
    21     1     6    1
    22    24    22    2
    23     3     4    2
    24     6    22    1
    25     6     5    2
    26    22    23    2
    27     4     5    1
    28     4    25    1
    29    27    25    2
    30    25    26    2
    31    25    28    1
    32    30    28    1
    33    28    29    1
