@<TRIPOS>MOLECULE
15221_out_ligand_01.pdbqt
 35 39 0 0 0
SMALL
GASTEIGER

@<TRIPOS>ATOM
      1  C         19.4240  -22.0650  -10.2870 C.2     1  UNL1        0.0410
      2  C         19.9110  -22.9740   -9.3330 C.2     1  UNL1        0.0230
      3  C         19.0370  -23.6650   -8.4880 C.2     1  UNL1        0.0270
      4  C         17.6600  -23.4460   -8.5900 C.2     1  UNL1        0.0820
      5  C         17.1400  -22.5930   -9.5640 C.2     1  UNL1        0.0620
      6  C         18.0320  -21.9120  -10.4030 C.2     1  UNL1        0.1210
      7  S         20.6390  -21.1230  -11.2080 S.3     1  UNL1       -0.0480
      8  C         22.0760  -21.8130  -10.5190 C.ar    1  UNL1        0.2010
      9  N         22.1750  -22.1000   -9.2360 N.ar    1  UNL1       -0.1220
     10  N         23.3880  -22.6820   -9.0200 N.ar    1  UNL1       -0.1290
     11  C         24.0140  -22.7450  -10.1750 C.ar    1  UNL1        0.1590
     12  C         25.2810  -23.2850  -10.4790 C.2     1  UNL1        0.0600
     13  N         23.2390  -22.1770  -11.1800 N.ar    1  UNL1       -0.2710
     14  C         25.7710  -23.2590  -11.7300 C.2     1  UNL1       -0.0460
     15  C         27.1210  -23.8460  -12.0330 C.3     1  UNL1        0.0490
     16  C         24.9680  -22.6330  -12.8120 C.2     1  UNL1       -0.0030
     17  C         25.4520  -22.5700  -14.1300 C.2     1  UNL1        0.0140
     18  C         23.6950  -22.0770  -12.5290 C.2     1  UNL1        0.0540
     19  C         24.7070  -21.9640  -15.1410 C.2     1  UNL1        0.0010
     20  C         23.4690  -21.4060  -14.8480 C.2     1  UNL1        0.0020
     21  C         22.9630  -21.4580  -13.5480 C.2     1  UNL1        0.0310
     22  N         17.4590  -21.0180  -11.3940 N.pl3   1  UNL1       -0.1140
     23  O         17.4270  -21.4170  -12.5650 O.2     1  UNL1       -0.5320
     24  O         17.0690  -19.9090  -11.0030 O.2     1  UNL1       -0.5320
     25  S         16.5620  -24.2380   -7.4420 S.O2    1  UNL1        0.2630
     26  O         15.4580  -24.8110   -8.1800 O.2     1  UNL1       -0.2000
     27  O         17.3730  -25.0550   -6.5650 O.2     1  UNL1       -0.2000
     28  N         16.0110  -22.9360   -6.5150 N.pl3   1  UNL1       -0.2810
     29  H         15.5460  -22.2410   -7.0980 H       1  UNL1        0.1790
     30  C         16.8670  -22.4470   -5.4880 C.2     1  UNL1        0.0420
     31  C         16.5670  -22.6820   -4.1480 C.2     1  UNL1        0.0300
     32  C         17.3880  -22.1480   -3.1530 C.2     1  UNL1        0.0020
     33  C         18.4990  -21.3790   -3.5010 C.2     1  UNL1        0.0000
     34  C         18.7960  -21.1450   -4.8430 C.2     1  UNL1        0.0020
     35  C         17.9800  -21.6810   -5.8390 C.2     1  UNL1        0.0300
@<TRIPOS>BOND
     1    19    20    2
     2    19    17    1
     3    20    21    1
     4    17    16    2
     5    21    18    2
     6    16    18    1
     7    16    14    1
     8    23    22    2
     9    18    13    1
    10    15    14    1
    11    14    12    2
    12    22    24    2
    13    22     6    1
    14     7     8    1
    15     7     1    1
    16    13     8   ar
    17    13    11   ar
    18     8     9   ar
    19    12    11    1
    20     6     1    2
    21     6     5    1
    22     1     2    1
    23    11    10   ar
    24     5     4    2
    25     2     3    2
    26     9    10   ar
    27     4     3    1
    28     4    25    1
    29    26    25    2
    30    25    27    2
    31    25    28    1
    32    29    28    1
    33    28    30    1
    34    35    30    2
    35    35    34    1
    36    30    31    1
    37    34    33    2
    38    31    32    2
    39    33    32    1
