@<TRIPOS>MOLECULE
15233_out_ligand_01.pdbqt
 33 36 0 0 0
SMALL
GASTEIGER

@<TRIPOS>ATOM
      1  N         23.0500  -21.1700   -9.5850 N.pl3   1  UNL1       -0.2830
      2  H         22.1110  -20.9120   -9.9390 H       1  UNL1        0.1280
      3  C         22.9130  -21.7580   -8.2460 C.3     1  UNL1        0.1950
      4  C         21.6630  -22.6470   -8.1180 C.2     1  UNL1        0.2350
      5  O         21.5680  -23.7010   -8.7440 O.2     1  UNL1       -0.2720
      6  N         20.7110  -22.1220   -7.2560 N.am    1  UNL1       -0.3260
      7  H         20.9380  -21.2430   -6.8100 H       1  UNL1        0.1690
      8  C         19.4600  -22.6730   -6.9120 C.2     1  UNL1        0.0370
      9  C         18.9520  -23.8610   -7.4470 C.2     1  UNL1        0.0320
     10  C         17.6890  -24.3300   -7.0650 C.2     1  UNL1        0.0420
     11  C         16.9270  -23.6140   -6.1490 C.2     1  UNL1        0.1020
     12  C         17.4400  -22.4450   -5.5810 C.2     1  UNL1        0.1040
     13  O         15.6880  -24.1150   -5.8440 O.2     1  UNL1       -0.3460
     14  C         18.6920  -21.9700   -5.9720 C.2     1  UNL1        0.0690
     15  O         16.7650  -21.7030   -4.6430 O.2     1  UNL1       -0.3460
     16  C         15.6650  -22.4360   -4.0910 C.3     1  UNL1        0.2020
     17  C         14.8770  -23.1320   -5.1880 C.3     1  UNL1        0.2020
     18  C         23.7280  -21.8760  -10.5990 C.2     1  UNL1        0.0240
     19  C         25.0920  -22.1930  -10.4900 C.2     1  UNL1        0.0240
     20  C         25.7760  -22.8610  -11.5130 C.2     1  UNL1        0.0020
     21  C         25.1170  -23.2040  -12.6870 C.2     1  UNL1        0.0010
     22  C         23.7810  -22.8470  -12.8550 C.2     1  UNL1        0.0190
     23  C         23.0970  -22.1530  -11.8390 C.2     1  UNL1        0.0530
     24  C         21.6790  -21.7370  -12.0770 C.2     1  UNL1        0.2580
     25  O         21.4140  -21.1140  -13.0990 O.2     1  UNL1       -0.2670
     26  N         20.7830  -22.1530  -11.1050 N.am    1  UNL1       -0.3230
     27  H         21.1410  -22.7720  -10.3890 H       1  UNL1        0.1690
     28  C         19.3970  -21.8960  -11.0490 C.2     1  UNL1        0.0350
     29  C         18.8040  -20.7090  -11.4870 C.2     1  UNL1        0.0290
     30  C         17.4200  -20.5340  -11.3970 C.2     1  UNL1        0.0020
     31  C         16.6160  -21.5390  -10.8650 C.2     1  UNL1        0.0000
     32  C         17.1970  -22.7230  -10.4180 C.2     1  UNL1        0.0020
     33  C         18.5810  -22.8990  -10.5100 C.2     1  UNL1        0.0290
@<TRIPOS>BOND
     1    25    24    2
     2    22    21    2
     3    22    23    1
     4    21    20    1
     5    24    23    1
     6    24    26   am
     7    23    18    2
     8    20    19    2
     9    29    30    1
    10    29    28    2
    11    30    31    2
    12    26    28    1
    13    26    27    1
    14    28    33    1
    15    31    32    1
    16    18    19    1
    17    18     1    1
    18    33    32    2
    19     2     1    1
    20     1     3    1
    21     5     4    2
    22     3     4    1
    23     4     6   am
    24     9    10    1
    25     9     8    2
    26     6     8    1
    27     6     7    1
    28    10    11    2
    29     8    14    1
    30    11    13    1
    31    11    12    1
    32    14    12    2
    33    13    17    1
    34    12    15    1
    35    17    16    1
    36    15    16    1
