@<TRIPOS>MOLECULE
15245_out_ligand_01.pdbqt
 29 32 0 0 0
SMALL
GASTEIGER

@<TRIPOS>ATOM
      1  S         19.7250  -24.1720   -7.9670 S.3     1  UNL1       -0.0480
      2  C         19.4590  -23.3540   -9.4750 C.ar    1  UNL1        0.2010
      3  N         18.2500  -23.0640   -9.9090 N.ar    1  UNL1       -0.1220
      4  N         18.3730  -22.3500  -11.0650 N.ar    1  UNL1       -0.1290
      5  C         19.6570  -22.2100  -11.3170 C.ar    1  UNL1        0.1590
      6  C         20.2940  -21.5260  -12.3720 C.2     1  UNL1        0.0600
      7  N         20.4160  -22.8590  -10.3480 N.ar    1  UNL1       -0.2710
      8  C         21.6320  -21.4870  -12.4740 C.2     1  UNL1       -0.0460
      9  C         22.2900  -20.7450  -13.6030 C.3     1  UNL1        0.0490
     10  C         22.4590  -22.1950  -11.4620 C.2     1  UNL1       -0.0030
     11  C         23.8620  -22.1960  -11.5430 C.2     1  UNL1        0.0140
     12  C         21.8400  -22.8970  -10.3980 C.2     1  UNL1        0.0540
     13  C         24.6360  -22.8800  -10.6060 C.2     1  UNL1        0.0010
     14  C         24.0190  -23.5800   -9.5790 C.2     1  UNL1        0.0020
     15  C         22.6260  -23.5930   -9.4720 C.2     1  UNL1        0.0310
     16  C         18.3090  -23.5350   -7.0800 C.2     1  UNL1        0.0410
     17  C         17.1050  -24.2510   -7.1530 C.2     1  UNL1        0.0220
     18  C         15.9540  -23.7990   -6.4930 C.2     1  UNL1        0.0180
     19  C         15.9850  -22.6130   -5.7490 C.2     1  UNL1        0.0340
     20  C         17.1660  -21.8670   -5.6860 C.2     1  UNL1        0.0540
     21  C         18.3090  -22.3420   -6.3430 C.2     1  UNL1        0.1210
     22  C         14.7890  -22.0960   -5.0350 C.2     1  UNL1        0.2490
     23  N         13.7350  -21.6690   -5.7910 N.am    1  UNL1       -0.3660
     24  H         13.6250  -21.9300   -6.7610 H       1  UNL1        0.1590
     25  H         12.8910  -21.4440   -5.2800 H       1  UNL1        0.1590
     26  O         14.7360  -22.0850   -3.8120 O.2     1  UNL1       -0.2680
     27  N         19.5100  -21.5410   -6.2440 N.pl3   1  UNL1       -0.1140
     28  O         19.4750  -20.5720   -5.4760 O.2     1  UNL1       -0.5320
     29  O         20.4830  -21.8900   -6.9250 O.2     1  UNL1       -0.5320
@<TRIPOS>BOND
     1     9     8    1
     2     8     6    2
     3     8    10    1
     4     6     5    1
     5    11    10    2
     6    11    13    1
     7    10    12    1
     8     5     4   ar
     9     5     7   ar
    10     4     3   ar
    11    13    14    2
    12    12     7    1
    13    12    15    2
    14     7     2   ar
    15     3     2   ar
    16    14    15    1
    17     2     1    1
    18     1    16    1
    19    17    16    2
    20    17    18    1
    21    16    21    1
    22    29    27    2
    23    24    23    1
    24    18    19    2
    25    21    27    1
    26    21    20    2
    27    27    28    2
    28    23    25    1
    29    23    22   am
    30    19    20    1
    31    19    22    1
    32    22    26    2
