@<TRIPOS>MOLECULE
15255_out_ligand_01.pdbqt
 30 33 0 0 0
SMALL
GASTEIGER

@<TRIPOS>ATOM
      1  C         19.3250  -22.8270   -9.5650 C.2     1  UNL1        0.2540
      2  O         18.4850  -22.9910  -10.4450 O.2     1  UNL1       -0.2670
      3  N         20.6620  -22.5200   -9.8050 N.am    1  UNL1       -0.3380
      4  C         21.6410  -22.1590   -8.7520 C.3     1  UNL1        0.1320
      5  C         22.9920  -22.8790   -8.9210 C.3     1  UNL1        0.0610
      6  C         23.4200  -22.8280  -10.3420 C.ar    1  UNL1       -0.0190
      7  C         22.5160  -22.5740  -11.3530 C.ar    1  UNL1        0.0400
      8  N         23.1900  -22.6370  -12.5440 N.ar    1  UNL1       -0.3570
      9  C         24.5230  -22.9030  -12.3160 C.ar    1  UNL1        0.0430
     10  C         25.5800  -23.0480  -13.2240 C.2     1  UNL1        0.0300
     11  C         26.8460  -23.3280  -12.7040 C.2     1  UNL1        0.0020
     12  C         27.0470  -23.4600  -11.3320 C.2     1  UNL1        0.0010
     13  C         25.9810  -23.3150  -10.4370 C.2     1  UNL1        0.0140
     14  C         24.6940  -23.0300  -10.9350 C.ar    1  UNL1       -0.0010
     15  C         21.0510  -22.2910  -11.2130 C.3     1  UNL1        0.1340
     16  C         20.7150  -20.8620  -11.6480 C.3     1  UNL1        0.0390
     17  H         22.7810  -22.5070  -13.4590 H       1  UNL1        0.1660
     18  C         18.8800  -22.9800   -8.1710 C.2     1  UNL1        0.0320
     19  C         18.3150  -24.1940   -7.7670 C.2     1  UNL1        0.0180
     20  C         17.8820  -24.3420   -6.4490 C.2     1  UNL1        0.0260
     21  C         18.0230  -23.2740   -5.5530 C.2     1  UNL1        0.0790
     22  C         18.5680  -22.0510   -5.9680 C.2     1  UNL1        0.0260
     23  C         18.9980  -21.9020   -7.2860 C.2     1  UNL1        0.0180
     24  S         17.4550  -23.4470   -3.8790 S.O2    1  UNL1        0.2580
     25  O         17.7430  -22.2310   -3.1540 O.2     1  UNL1       -0.2010
     26  O         17.8840  -24.7430   -3.4010 O.2     1  UNL1       -0.2010
     27  N         15.7910  -23.5550   -4.0920 N.3     1  UNL1       -0.3160
     28  H         15.3820  -24.2900   -3.5150 H       1  UNL1        0.1720
     29  C         15.0320  -22.3170   -4.2740 C.3     1  UNL1        0.1280
     30  C         14.4940  -22.2730   -5.6930 C.3     1  UNL1        0.0270
@<TRIPOS>BOND
     1    17     8    1
     2    10    11    1
     3    10     9    2
     4    11    12    2
     5     8     9   ar
     6     8     7   ar
     7     9    14   ar
     8    16    15    1
     9     7    15    1
    10     7     6   ar
    11    12    13    1
    12    15     3    1
    13    14    13    2
    14    14     6   ar
    15     2     1    2
    16     6     5    1
    17     3     1   am
    18     3     4    1
    19     1    18    1
    20     5     4    1
    21    18    19    2
    22    18    23    1
    23    19    20    1
    24    23    22    2
    25    20    21    2
    26    22    21    1
    27    30    29    1
    28    21    24    1
    29    29    27    1
    30    27    24    1
    31    27    28    1
    32    24    26    2
    33    24    25    2
