@<TRIPOS>MOLECULE
15257_out_ligand_01.pdbqt
 29 31 0 0 0
SMALL
GASTEIGER

@<TRIPOS>ATOM
      1  C         19.0720  -22.0180   -9.6670 C.2     1  UNL1        0.2420
      2  O         18.4120  -21.4420  -10.5390 O.2     1  UNL1       -0.2710
      3  N         20.3720  -22.4640   -9.8590 N.am    1  UNL1       -0.3110
      4  C         21.1660  -22.1810  -10.9930 C.2     1  UNL1        0.0440
      5  C         20.8210  -21.5340  -12.1700 C.2     1  UNL1        0.0320
      6  C         21.7990  -21.3610  -13.1550 C.2     1  UNL1        0.0270
      7  C         23.1050  -21.8360  -12.9440 C.2     1  UNL1        0.0750
      8  C         23.4620  -22.4630  -11.7480 C.2     1  UNL1        0.0340
      9  C         22.4750  -22.6310  -10.7870 C.2     1  UNL1       -0.0280
     10  C         22.6420  -23.1850   -9.4080 C.3     1  UNL1        0.0660
     11  C         21.1750  -23.3230   -8.9480 C.3     1  UNL1        0.0930
     12  C         20.7200  -24.7840   -9.0390 C.3     1  UNL1        0.0330
     13  C         18.4480  -22.2100   -8.2710 C.3     1  UNL1        0.2250
     14  N         17.2150  -23.0280   -8.2970 N.pl3   1  UNL1       -0.3760
     15  C         16.5100  -23.1090   -9.5700 C.3     1  UNL1        0.1500
     16  C         16.4960  -23.0760   -7.1020 C.2     1  UNL1        0.0360
     17  C         16.7810  -23.9060   -5.9990 C.2     1  UNL1       -0.0350
     18  C         15.9550  -23.8460   -4.8580 C.2     1  UNL1        0.0090
     19  C         17.9320  -24.8750   -5.9570 C.3     1  UNL1        0.0500
     20  C         14.8520  -22.9960   -4.8000 C.2     1  UNL1        0.0070
     21  C         14.5520  -22.1710   -5.8800 C.2     1  UNL1       -0.0600
     22  C         13.3670  -21.2550   -5.8250 C.3     1  UNL1        0.0480
     23  C         15.3720  -22.2250   -7.0130 C.2     1  UNL1        0.0360
     24  S         24.3240  -21.5880  -14.2080 S.O2    1  UNL1        0.2390
     25  O         25.6140  -21.9580  -13.6780 O.2     1  UNL1       -0.2060
     26  O         23.8120  -22.1160  -15.4520 O.2     1  UNL1       -0.2060
     27  N         24.2910  -19.9140  -14.3860 N.3     1  UNL1       -0.2250
     28  H         25.0860  -19.4450  -13.9510 H       1  UNL1        0.1360
     29  H         23.4000  -19.5610  -14.0340 H       1  UNL1        0.1360
@<TRIPOS>BOND
     1    26    24    2
     2    27    24    1
     3    27    29    1
     4    27    28    1
     5    24    25    2
     6    24     7    1
     7     6     7    2
     8     6     5    1
     9     7     8    1
    10     5     4    2
    11     8     9    2
    12     4     9    1
    13     4     3    1
    14     9    10    1
    15     2     1    2
    16     3     1   am
    17     3    11    1
    18     1    13    1
    19    15    14    1
    20    10    11    1
    21    12    11    1
    22    14    13    1
    23    14    16    1
    24    16    23    2
    25    16    17    1
    26    23    21    1
    27    17    19    1
    28    17    18    2
    29    21    22    1
    30    21    20    2
    31    18    20    1
