@<TRIPOS>MOLECULE
15256_out_ligand_01.pdbqt
 33 35 0 0 0
SMALL
GASTEIGER

@<TRIPOS>ATOM
      1  N         14.9910  -22.4410   -3.9470 N.1     1  UNL1       -0.1910
      2  C         15.9960  -22.3610   -4.5210 C.1     1  UNL1        0.1010
      3  C         17.2510  -22.2230   -5.2000 C.2     1  UNL1        0.0660
      4  C         18.1180  -21.1950   -4.8120 C.2     1  UNL1        0.0260
      5  C         19.3520  -21.0340   -5.4520 C.2     1  UNL1        0.0310
      6  C         19.7360  -21.8940   -6.4860 C.2     1  UNL1        0.0360
      7  C         18.8700  -22.9190   -6.8730 C.2     1  UNL1        0.0540
      8  C         17.6340  -23.0840   -6.2340 C.2     1  UNL1        0.0570
      9 CL         16.6160  -24.3760   -6.7680 Cl      1  UNL1       -0.0830
     10  N         20.9870  -21.6640   -7.0740 N.am    1  UNL1       -0.3260
     11  C         21.6920  -22.4590   -7.9610 C.2     1  UNL1        0.2350
     12  O         21.3330  -23.5420   -8.4150 O.2     1  UNL1       -0.2720
     13  H         21.5000  -20.8170   -6.8170 H       1  UNL1        0.1690
     14  C         23.0330  -21.8260   -8.3670 C.3     1  UNL1        0.1950
     15  N         22.9260  -21.1220   -9.6660 N.pl3   1  UNL1       -0.2830
     16  H         21.9410  -20.9070   -9.8920 H       1  UNL1        0.1280
     17  C         23.5400  -21.7520  -10.7730 C.2     1  UNL1        0.0240
     18  C         24.9030  -22.0930  -10.7100 C.2     1  UNL1        0.0240
     19  C         25.5620  -22.6490  -11.8080 C.2     1  UNL1        0.0020
     20  C         24.8790  -22.8610  -13.0000 C.2     1  UNL1        0.0010
     21  C         23.5270  -22.5340  -13.0910 C.2     1  UNL1        0.0190
     22  C         22.8450  -22.0020  -11.9810 C.2     1  UNL1        0.0530
     23  C         21.3780  -21.7100  -12.0870 C.2     1  UNL1        0.2580
     24  O         20.9730  -21.0730  -13.0550 O.2     1  UNL1       -0.2670
     25  N         20.6110  -22.1360  -11.0150 N.am    1  UNL1       -0.3230
     26  H         21.1060  -22.4860  -10.2050 H       1  UNL1        0.1690
     27  C         19.2110  -22.0360  -10.8710 C.2     1  UNL1        0.0350
     28  C         18.4520  -20.9590  -11.3390 C.2     1  UNL1        0.0320
     29  C         17.0650  -20.9390  -11.1620 C.2     1  UNL1        0.0440
     30  C         16.4380  -21.9980  -10.5190 C.2     1  UNL1        0.1160
     31  F         15.1090  -21.9780  -10.3510 F       1  UNL1       -0.2060
     32  C         17.1710  -23.0800  -10.0520 C.2     1  UNL1        0.0440
     33  C         18.5570  -23.1000  -10.2290 C.2     1  UNL1        0.0320
@<TRIPOS>BOND
     1    21    20    2
     2    21    22    1
     3    24    23    2
     4    20    19    1
     5    23    22    1
     6    23    25   am
     7    22    17    2
     8    19    18    2
     9    28    29    1
    10    28    27    2
    11    29    30    2
    12    25    27    1
    13    25    26    1
    14    27    33    1
    15    17    18    1
    16    17    15    1
    17    30    31    1
    18    30    32    1
    19    33    32    2
    20    16    15    1
    21    15    14    1
    22    12    11    2
    23    14    11    1
    24    11    10   am
    25    10    13    1
    26    10     6    1
    27     7     6    2
    28     7     8    1
    29     9     8    1
    30     6     5    1
    31     8     3    2
    32     5     4    2
    33     3     4    1
    34     3     2    1
    35     2     1    3
