@<TRIPOS>MOLECULE
15251_out_ligand_01.pdbqt
 34 37 0 0 0
SMALL
GASTEIGER

@<TRIPOS>ATOM
      1  C         19.0570  -22.1860  -10.3270 C.2     1  UNL1        0.1300
      2  C         17.9620  -22.6020   -9.5470 C.2     1  UNL1        0.0630
      3  C         18.1750  -23.5180   -8.5200 C.2     1  UNL1        0.0820
      4  C         19.4440  -24.0530   -8.3050 C.2     1  UNL1        0.0280
      5  C         20.5220  -23.6300   -9.0930 C.2     1  UNL1        0.0330
      6  C         20.3740  -22.6580  -10.0990 C.2     1  UNL1        0.0610
      7  N         21.4550  -22.2940  -10.9160 N.pl3   1  UNL1       -0.3880
      8  H         21.5250  -21.2770  -11.0380 H       1  UNL1        0.1590
      9  C         22.7820  -22.8980  -10.7540 C.3     1  UNL1        0.1240
     10  C         23.8830  -22.0150  -11.3540 C.3     1  UNL1        0.0580
     11  C         24.2760  -22.4700  -12.7380 C.2     1  UNL1       -0.0540
     12  C         24.9120  -23.7050  -12.9300 C.2     1  UNL1        0.0100
     13  C         25.2860  -24.1160  -14.2110 C.2     1  UNL1        0.0400
     14  C         25.0310  -23.2970  -15.3070 C.2     1  UNL1        0.1020
     15  C         24.4260  -22.0500  -15.1220 C.2     1  UNL1        0.1020
     16  O         25.4080  -23.7750  -16.5360 O.2     1  UNL1       -0.3460
     17  C         24.0380  -21.6440  -13.8460 C.2     1  UNL1        0.0460
     18  O         24.1760  -21.1760  -16.1490 O.2     1  UNL1       -0.3460
     19  C         24.9100  -21.5340  -17.3270 C.3     1  UNL1        0.2020
     20  C         24.8010  -23.0260  -17.5950 C.3     1  UNL1        0.2020
     21  N         18.7840  -21.2030  -11.3810 N.pl3   1  UNL1       -0.1130
     22  O         17.7710  -21.3680  -12.0790 O.2     1  UNL1       -0.5320
     23  O         19.6010  -20.2840  -11.5320 O.2     1  UNL1       -0.5320
     24  S         16.8090  -24.0410   -7.5060 S.O2    1  UNL1        0.2630
     25  O         15.7170  -24.3710   -8.3970 O.2     1  UNL1       -0.2000
     26  O         17.3080  -24.9960   -6.5410 O.2     1  UNL1       -0.2000
     27  N         16.3600  -22.6190   -6.7180 N.pl3   1  UNL1       -0.2810
     28  H         16.0310  -21.9020   -7.3620 H       1  UNL1        0.1790
     29  C         17.0620  -22.2070   -5.5510 C.2     1  UNL1        0.0420
     30  C         18.2110  -21.4280   -5.6960 C.2     1  UNL1        0.0300
     31  C         18.9440  -21.0510   -4.5700 C.2     1  UNL1        0.0020
     32  C         18.5250  -21.4480   -3.3000 C.2     1  UNL1        0.0000
     33  C         17.3720  -22.2190   -3.1560 C.2     1  UNL1        0.0020
     34  C         16.6380  -22.5970   -4.2810 C.2     1  UNL1        0.0300
@<TRIPOS>BOND
     1    20    19    1
     2    20    16    1
     3    19    18    1
     4    16    14    1
     5    18    15    1
     6    14    15    2
     7    14    13    1
     8    15    17    1
     9    13    12    2
    10    17    11    2
    11    12    11    1
    12    11    10    1
    13    22    21    2
    14    23    21    2
    15    21     1    1
    16    10     9    1
    17     8     7    1
    18     7     9    1
    19     7     6    1
    20     1     6    2
    21     1     2    1
    22     6     5    1
    23     2     3    2
    24     5     4    2
    25     3     4    1
    26     3    24    1
    27    25    24    2
    28    24    27    1
    29    24    26    2
    30    28    27    1
    31    27    29    1
    32    30    29    2
    33    30    31    1
    34    29    34    1
    35    31    32    2
    36    34    33    2
    37    32    33    1
