@<TRIPOS>MOLECULE
15261_out_ligand_01.pdbqt
 34 37 0 0 0
SMALL
GASTEIGER

@<TRIPOS>ATOM
      1  C         25.0730  -22.4790  -12.9400 C.2     1  UNL1        0.0240
      2  C         26.0360  -23.4880  -13.1150 C.2     1  UNL1        0.0240
      3  C         26.0720  -24.2640  -14.2750 C.2     1  UNL1        0.0020
      4  C         25.1550  -24.0350  -15.2940 C.2     1  UNL1        0.0010
      5  C         24.1890  -23.0390  -15.1490 C.2     1  UNL1        0.0190
      6  C         24.1250  -22.2690  -13.9720 C.2     1  UNL1        0.0530
      7  N         25.1090  -21.6770  -11.7720 N.pl3   1  UNL1       -0.2830
      8  H         24.3910  -20.9390  -11.8510 H       1  UNL1        0.1280
      9  C         24.9580  -22.4110  -10.4920 C.3     1  UNL1        0.1950
     10  C         23.6080  -22.1100   -9.8210 C.2     1  UNL1        0.2350
     11  O         23.1870  -20.9610   -9.7260 O.2     1  UNL1       -0.2720
     12  N         22.9950  -23.2590   -9.3520 N.am    1  UNL1       -0.3260
     13  H         23.5260  -24.1040   -9.5680 H       1  UNL1        0.1690
     14  C         21.7620  -23.3970   -8.6950 C.2     1  UNL1        0.0350
     15  C         21.0880  -24.6110   -8.8590 C.2     1  UNL1        0.0300
     16  C         19.8540  -24.8290   -8.2420 C.2     1  UNL1        0.0140
     17  C         19.2660  -23.8330   -7.4490 C.2     1  UNL1       -0.0260
     18  C         18.0250  -24.0320   -6.8230 C.2     1  UNL1        0.0120
     19  C         19.9410  -22.6040   -7.2780 C.2     1  UNL1       -0.0240
     20  C         17.4540  -23.0300   -6.0370 C.2     1  UNL1        0.0010
     21  C         18.1160  -21.8180   -5.8670 C.2     1  UNL1        0.0010
     22  C         19.3510  -21.6070   -6.4830 C.2     1  UNL1        0.0120
     23  C         21.1850  -22.4030   -7.9040 C.2     1  UNL1        0.0420
     24  C         23.0470  -21.2370  -13.8160 C.2     1  UNL1        0.2530
     25  O         23.0520  -20.2260  -14.5130 O.2     1  UNL1       -0.2680
     26  N         22.1110  -21.4620  -12.8280 N.am    1  UNL1       -0.3530
     27  H         22.3100  -22.1480  -12.1150 H       1  UNL1        0.1630
     28  C         21.1080  -20.4730  -12.4950 C.3     1  UNL1        0.1610
     29  C         19.9090  -21.1240  -11.8560 C.2     1  UNL1       -0.0410
     30  C         18.7210  -20.4040  -11.6620 C.2     1  UNL1        0.0090
     31  C         17.6070  -21.0200  -11.0880 C.2     1  UNL1        0.0010
     32  C         17.6670  -22.3600  -10.7080 C.2     1  UNL1        0.0000
     33  C         18.8400  -23.0870  -10.9040 C.2     1  UNL1        0.0010
     34  C         19.9550  -22.4740  -11.4780 C.2     1  UNL1        0.0090
@<TRIPOS>BOND
     1     4     5    2
     2     4     3    1
     3     5     6    1
     4    25    24    2
     5     3     2    2
     6     6    24    1
     7     6     1    2
     8    24    26   am
     9     2     1    1
    10     1     7    1
    11    26    28    1
    12    26    27    1
    13    28    29    1
    14    29    30    2
    15    29    34    1
    16     8     7    1
    17     7     9    1
    18    30    31    1
    19    34    33    2
    20    31    32    2
    21    33    32    1
    22     9    10    1
    23    10    11    2
    24    10    12   am
    25    13    12    1
    26    12    14    1
    27    15    14    2
    28    15    16    1
    29    14    23    1
    30    16    17    2
    31    23    19    2
    32    17    19    1
    33    17    18    1
    34    19    22    1
    35    18    20    2
    36    22    21    2
    37    20    21    1
