@<TRIPOS>MOLECULE
15279_out_ligand_01.pdbqt
 28 31 0 0 0
SMALL
GASTEIGER

@<TRIPOS>ATOM
      1  N         21.3430  -22.0180  -10.1910 N.am    1  UNL1       -0.3230
      2  C         21.2100  -23.0420   -9.2620 C.2     1  UNL1        0.2630
      3  O         21.7840  -24.1230   -9.3520 O.2     1  UNL1       -0.2670
      4  H         20.7280  -21.2260  -10.0810 H       1  UNL1        0.1690
      5  C         20.2930  -22.7240   -8.1640 C.2     1  UNL1        0.0740
      6  C         20.4070  -21.8040   -7.1320 C.2     1  UNL1        0.0350
      7  C         19.2710  -21.8160   -6.2670 C.2     1  UNL1       -0.0150
      8  C         18.3360  -22.7440   -6.6620 C.2     1  UNL1        0.0270
      9  C         19.0060  -20.9670   -5.0690 C.2     1  UNL1        0.2150
     10  S         18.8130  -23.5960   -8.0450 S.3     1  UNL1       -0.0830
     11  C         17.1070  -22.9410   -5.9070 C.2     1  UNL1        0.0150
     12  C         16.0420  -23.7470   -6.3270 C.3     1  UNL1        0.0150
     13  C         17.0160  -22.2710   -4.6710 C.2     1  UNL1        0.0800
     14  C         14.9080  -23.8890   -5.5230 C.2     1  UNL1        0.0010
     15  C         14.8330  -23.2360   -4.2930 C.2     1  UNL1        0.0030
     16  C         15.8870  -22.4310   -3.8650 C.2     1  UNL1        0.0370
     17  O         18.0130  -21.4780   -4.1500 O.2     1  UNL1       -0.3460
     18  C         22.1770  -21.9820  -11.3280 C.2     1  UNL1        0.0350
     19  C         21.6480  -21.4000  -12.4870 C.2     1  UNL1        0.0300
     20  C         22.4090  -21.3200  -13.6580 C.2     1  UNL1        0.0190
     21  C         23.7120  -21.8260  -13.6900 C.2     1  UNL1        0.0320
     22  C         24.2520  -22.3900  -12.5300 C.2     1  UNL1        0.0190
     23  C         23.4860  -22.4680  -11.3590 C.2     1  UNL1        0.0300
     24  C         24.4810  -21.7180  -14.9590 C.2     1  UNL1        0.2490
     25  N         24.1680  -20.6900  -15.8050 N.am    1  UNL1       -0.3660
     26  H         24.7860  -20.5680  -16.5980 H       1  UNL1        0.1590
     27  H         23.6360  -19.8860  -15.5060 H       1  UNL1        0.1590
     28  O         25.3870  -22.4960  -15.2280 O.2     1  UNL1       -0.2680
@<TRIPOS>BOND
     1    26    25    1
     2    25    27    1
     3    25    24   am
     4    28    24    2
     5    24    21    1
     6    21    20    2
     7    21    22    1
     8    20    19    1
     9    22    23    2
    10    19    18    2
    11    23    18    1
    12    18     1    1
    13     1     4    1
    14     1     2   am
    15     3     2    2
    16     2     5    1
    17     5    10    1
    18     5     6    2
    19    10     8    1
    20     6     7    1
    21     8     7    1
    22     8    11    2
    23    12    11    1
    24    12    14    1
    25     7     9    2
    26    11    13    1
    27    14    15    2
    28     9    17    1
    29    13    17    1
    30    13    16    2
    31    15    16    1
