@<TRIPOS>MOLECULE
15288_out_ligand_01.pdbqt
 33 36 0 0 0
SMALL
GASTEIGER

@<TRIPOS>ATOM
      1  C         22.6440  -23.2470   -9.4250 C.ar    1  UNL1        0.1510
      2  O         23.8000  -23.9540   -9.2370 O.2     1  UNL1       -0.3040
      3  C         24.7840  -23.3380   -9.9350 C.ar    1  UNL1        0.0870
      4  C         26.1090  -23.7610  -10.0040 C.2     1  UNL1        0.0380
      5  C         26.9750  -22.9800  -10.7740 C.2     1  UNL1        0.0030
      6  C         26.5210  -21.8340  -11.4320 C.2     1  UNL1        0.0010
      7  C         25.1790  -21.4350  -11.3410 C.2     1  UNL1        0.0150
      8  C         24.2870  -22.2120  -10.5760 C.ar    1  UNL1        0.0080
      9  C         22.8930  -22.1410  -10.2400 C.ar    1  UNL1        0.0040
     10  C         21.4580  -23.7530   -8.7500 C.2     1  UNL1        0.2800
     11  N         20.7050  -22.7600   -8.1390 N.am    1  UNL1       -0.3210
     12  H         20.9530  -21.8080   -8.3730 H       1  UNL1        0.1690
     13  O         21.1540  -24.9420   -8.7690 O.2     1  UNL1       -0.2650
     14  C         19.5960  -22.9220   -7.2870 C.2     1  UNL1        0.0350
     15  C         18.7930  -24.0640   -7.2610 C.2     1  UNL1        0.0300
     16  C         17.7350  -24.1770   -6.3480 C.2     1  UNL1        0.0190
     17  C         17.4570  -23.1370   -5.4570 C.2     1  UNL1        0.0320
     18  C         18.2640  -21.9930   -5.4770 C.2     1  UNL1        0.0190
     19  C         19.3240  -21.8870   -6.3860 C.2     1  UNL1        0.0300
     20  C         16.3530  -23.2020   -4.4600 C.2     1  UNL1        0.2490
     21  N         16.0410  -22.0620   -3.7770 N.am    1  UNL1       -0.3660
     22  H         15.3650  -22.1640   -3.0290 H       1  UNL1        0.1590
     23  H         16.6590  -21.2640   -3.7300 H       1  UNL1        0.1590
     24  O         15.7540  -24.2460   -4.2370 O.2     1  UNL1       -0.2680
     25  C         21.9560  -21.0610  -10.6670 C.3     1  UNL1        0.1220
     26  S         21.0610  -21.4940  -12.1940 S.3     1  UNL1       -0.1250
     27  C         19.4190  -21.7070  -11.5370 C.2     1  UNL1        0.0010
     28  C         19.0540  -22.9280  -10.9600 C.2     1  UNL1        0.0200
     29  C         17.7660  -23.1060  -10.4500 C.2     1  UNL1        0.0250
     30  C         16.8470  -22.0580  -10.5030 C.2     1  UNL1        0.0340
     31 CL         15.2560  -22.2790   -9.8880 Cl      1  UNL1       -0.0840
     32  C         17.2090  -20.8330  -11.0600 C.2     1  UNL1        0.0250
     33  C         18.4950  -20.6570  -11.5760 C.2     1  UNL1        0.0200
@<TRIPOS>BOND
     1    26    27    1
     2    26    25    1
     3    33    27    2
     4    33    32    1
     5    27    28    1
     6     6     7    2
     7     6     5    1
     8     7     8    1
     9    32    30    2
    10    28    29    2
    11     5     4    2
    12    25     9    1
    13     8     9   ar
    14     8     3   ar
    15    30    29    1
    16    30    31    1
    17     9     1   ar
    18     4     3    1
    19     3     2   ar
    20     1     2   ar
    21     1    10    1
    22    13    10    2
    23    10    11   am
    24    12    11    1
    25    11    14    1
    26    14    15    2
    27    14    19    1
    28    15    16    1
    29    19    18    2
    30    16    17    2
    31    18    17    1
    32    17    20    1
    33    20    24    2
    34    20    21   am
    35    21    23    1
    36    21    22    1
