@<TRIPOS>MOLECULE
15297_out_ligand_01.pdbqt
 29 32 0 0 0
SMALL
GASTEIGER

@<TRIPOS>ATOM
      1  C         19.9280  -23.2110   -9.1330 C.2     1  UNL1        0.2800
      2  O         19.8450  -24.4020   -8.8530 O.2     1  UNL1       -0.2650
      3  N         19.2960  -22.1840   -8.4510 N.am    1  UNL1       -0.3210
      4  H         19.4740  -21.2600   -8.8290 H       1  UNL1        0.1690
      5  C         20.7220  -22.7260  -10.2520 C.ar    1  UNL1        0.1500
      6  C         20.3730  -22.0000  -11.3840 C.ar    1  UNL1       -0.0090
      7  C         19.0130  -21.5180  -11.7370 C.3     1  UNL1        0.0520
      8  C         21.5790  -21.8170  -12.1260 C.ar    1  UNL1        0.0070
      9  C         22.5840  -22.4430  -11.3990 C.ar    1  UNL1        0.0980
     10  C         21.9260  -21.1860  -13.3370 C.2     1  UNL1        0.0160
     11  O         22.0670  -22.9930  -10.2650 O.2     1  UNL1       -0.3030
     12  C         23.9360  -22.4860  -11.8010 C.2     1  UNL1        0.0090
     13  C         24.9200  -23.1340  -11.0300 C.2     1  UNL1        0.0150
     14  C         24.2650  -21.8480  -13.0180 C.2     1  UNL1       -0.0230
     15  C         26.2410  -23.1470  -11.4740 C.2     1  UNL1        0.0010
     16  C         26.5810  -22.5220  -12.6740 C.2     1  UNL1        0.0010
     17  C         25.6030  -21.8790  -13.4400 C.2     1  UNL1        0.0120
     18  C         23.2630  -21.2110  -13.7670 C.2     1  UNL1        0.0130
     19  C         18.4570  -22.2650   -7.3250 C.2     1  UNL1        0.0350
     20  C         17.1390  -22.6850   -7.5430 C.2     1  UNL1        0.0300
     21  C         16.2390  -22.7940   -6.4770 C.2     1  UNL1        0.0190
     22  C         16.6480  -22.4900   -5.1750 C.2     1  UNL1        0.0320
     23  C         17.9590  -22.0560   -4.9550 C.2     1  UNL1        0.0190
     24  C         18.8570  -21.9480   -6.0260 C.2     1  UNL1        0.0300
     25  C         15.6560  -22.6220   -4.0740 C.2     1  UNL1        0.2490
     26  N         15.8580  -23.6120   -3.1530 N.am    1  UNL1       -0.3660
     27  H         16.4800  -24.3890   -3.3240 H       1  UNL1        0.1590
     28  H         15.1040  -23.7570   -2.4930 H       1  UNL1        0.1590
     29  O         14.6720  -21.8960   -4.0060 O.2     1  UNL1       -0.2680
@<TRIPOS>BOND
     1    18    10    1
     2    18    14    2
     3    17    14    1
     4    17    16    2
     5    10     8    2
     6    14    12    1
     7    16    15    1
     8     8     9   ar
     9     8     6   ar
    10    12     9    2
    11    12    13    1
    12     7     6    1
    13    15    13    2
    14     9    11   ar
    15     6     5   ar
    16    11     5   ar
    17     5     1    1
    18     1     2    2
    19     1     3   am
    20     4     3    1
    21     3    19    1
    22    20    19    2
    23    20    21    1
    24    19    24    1
    25    21    22    2
    26    24    23    2
    27    22    23    1
    28    22    25    1
    29    25    29    2
    30    25    26   am
    31    27    26    1
    32    26    28    1
