@<TRIPOS>MOLECULE
15291_out_ligand_01.pdbqt
 30 32 0 0 0
SMALL
GASTEIGER

@<TRIPOS>ATOM
      1  C         17.2920  -22.5440   -9.3960 C.2     1  UNL1        0.0770
      2  C         16.5830  -21.7150  -10.2660 C.2     1  UNL1        0.0250
      3  C         17.2540  -21.1200  -11.3300 C.2     1  UNL1        0.0040
      4  C         18.6220  -21.3500  -11.5180 C.2     1  UNL1        0.0290
      5  C         19.3380  -22.1670  -10.6380 C.2     1  UNL1        0.0360
      6  C         18.6660  -22.7510   -9.5600 C.2     1  UNL1        0.0540
      7  S         16.4460  -23.3220   -8.0380 S.O2    1  UNL1        0.2460
      8  O         15.5900  -22.3280   -7.4250 O.2     1  UNL1       -0.2060
      9  O         15.9050  -24.5740   -8.5270 O.2     1  UNL1       -0.2060
     10  N         17.7020  -23.7230   -6.9710 N.pl3   1  UNL1       -0.1790
     11  H         18.5450  -23.9520   -7.5020 H       1  UNL1        0.1460
     12  C         17.9570  -22.8210   -5.8880 C.2     1  UNL1        0.0560
     13  C         18.7980  -21.7240   -6.0770 C.2     1  UNL1        0.0270
     14  C         19.0900  -20.8830   -5.0050 C.2     1  UNL1        0.0020
     15  C         18.5440  -21.1420   -3.7480 C.2     1  UNL1        0.0030
     16  C         17.7050  -22.2440   -3.5540 C.2     1  UNL1        0.0380
     17  C         17.4110  -23.0950   -4.6210 C.2     1  UNL1        0.0900
     18  O         16.6060  -24.2050   -4.5490 O.2     1  UNL1       -0.3540
     19  C         15.2210  -23.9680   -4.3130 C.3     1  UNL1        0.2100
     20  N         20.7160  -22.4390  -10.7590 N.am    1  UNL1       -0.3230
     21  C         21.5790  -21.9680  -11.7330 C.2     1  UNL1        0.2560
     22  O         21.2780  -21.3040  -12.7180 O.2     1  UNL1       -0.2670
     23  H         21.0870  -23.1130  -10.1000 H       1  UNL1        0.1690
     24  C         23.0040  -22.3720  -11.5640 C.2     1  UNL1        0.0350
     25  C         23.4440  -22.7570  -10.2880 C.2     1  UNL1        0.0170
     26  C         24.7700  -23.1460  -10.0870 C.2     1  UNL1        0.0040
     27  C         25.6580  -23.1600  -11.1620 C.2     1  UNL1        0.0420
     28  C         25.2090  -22.7960  -12.4270 C.2     1  UNL1        0.1170
     29  F         26.0620  -22.8250  -13.4600 F       1  UNL1       -0.2060
     30  C         23.8930  -22.4060  -12.6440 C.2     1  UNL1        0.0590
@<TRIPOS>BOND
     1    29    28    1
     2    22    21    2
     3    30    28    1
     4    30    24    2
     5    28    27    2
     6    21    24    1
     7    21    20   am
     8    24    25    1
     9     4     3    2
    10     4     5    1
    11     3     2    1
    12    27    26    1
    13    20     5    1
    14    20    23    1
    15     5     6    2
    16    25    26    2
    17     2     1    2
    18     6     1    1
    19     1     7    1
    20     9     7    2
    21     7     8    2
    22     7    10    1
    23    11    10    1
    24    10    12    1
    25    13    12    2
    26    13    14    1
    27    12    17    1
    28    14    15    2
    29    17    18    1
    30    17    16    2
    31    18    19    1
    32    15    16    1
