@<TRIPOS>MOLECULE
15307_out_ligand_01.pdbqt
 29 32 0 0 0
SMALL
GASTEIGER

@<TRIPOS>ATOM
      1  N         21.4760  -21.9350   -9.9350 N.am    1  UNL1       -0.3230
      2  C         21.1000  -23.0220   -9.1570 C.2     1  UNL1        0.2630
      3  O         21.4630  -24.1760   -9.3680 O.2     1  UNL1       -0.2670
      4  H         21.2250  -21.0220   -9.5840 H       1  UNL1        0.1690
      5  C         20.2400  -22.6630   -8.0290 C.2     1  UNL1        0.0740
      6  C         20.3760  -21.6630   -7.0820 C.2     1  UNL1        0.0340
      7  C         19.3030  -21.6460   -6.1310 C.2     1  UNL1       -0.0290
      8  C         18.3720  -22.6360   -6.3940 C.2     1  UNL1        0.0240
      9  C         19.1570  -20.6730   -5.0050 C.3     1  UNL1        0.1190
     10  S         18.7980  -23.5520   -7.7690 S.3     1  UNL1       -0.0830
     11  C         17.1740  -22.9080   -5.5790 C.2     1  UNL1        0.0010
     12  C         16.0860  -23.6490   -6.0650 C.2     1  UNL1        0.0560
     13  C         17.1130  -22.4010   -4.2580 C.2     1  UNL1        0.0120
     14  C         14.9820  -23.8880   -5.2520 C.2     1  UNL1        0.1170
     15  F         13.9530  -24.5980   -5.7330 F       1  UNL1       -0.2060
     16  C         14.9280  -23.4080   -3.9510 C.2     1  UNL1        0.0430
     17  C         15.9950  -22.6650   -3.4520 C.2     1  UNL1        0.0220
     18  S         18.4500  -21.4500   -3.5160 S.3     1  UNL1       -0.1240
     19  C         22.2510  -21.9410  -11.1140 C.2     1  UNL1        0.0350
     20  C         23.5720  -22.3880  -11.1840 C.2     1  UNL1        0.0300
     21  C         24.2710  -22.3670  -12.3990 C.2     1  UNL1        0.0190
     22  C         23.6550  -21.8900  -13.5590 C.2     1  UNL1        0.0320
     23  C         22.3270  -21.4600  -13.4980 C.2     1  UNL1        0.0190
     24  C         21.6320  -21.4830  -12.2850 C.2     1  UNL1        0.0300
     25  C         24.3520  -21.8470  -14.8730 C.2     1  UNL1        0.2490
     26  N         24.1850  -20.7280  -15.6420 N.am    1  UNL1       -0.3660
     27  H         23.4390  -20.0680  -15.4810 H       1  UNL1        0.1590
     28  H         24.5660  -20.7770  -16.5790 H       1  UNL1        0.1590
     29  O         25.0240  -22.7880  -15.2740 O.2     1  UNL1       -0.2680
@<TRIPOS>BOND
     1    28    26    1
     2    26    27    1
     3    26    25   am
     4    29    25    2
     5    25    22    1
     6    22    23    2
     7    22    21    1
     8    23    24    1
     9    21    20    2
    10    24    19    2
    11    20    19    1
    12    19     1    1
    13     1     4    1
    14     1     2   am
    15     3     2    2
    16     2     5    1
    17     5    10    1
    18     5     6    2
    19    10     8    1
    20     6     7    1
    21     8     7    2
    22     8    11    1
    23     7     9    1
    24    12    11    2
    25    12    14    1
    26    15    14    1
    27    11    13    1
    28    14    16    2
    29     9    18    1
    30    13    18    1
    31    13    17    2
    32    16    17    1
