@<TRIPOS>MOLECULE
15309_out_ligand_01.pdbqt
 37 40 0 0 0
SMALL
GASTEIGER

@<TRIPOS>ATOM
      1  C         22.7550  -22.9160   -9.2420 C.2     1  UNL1        0.0750
      2  C         22.0100  -24.0940   -9.2830 C.2     1  UNL1        0.0270
      3  C         20.8670  -24.2100   -8.4880 C.2     1  UNL1        0.0310
      4  C         20.4570  -23.1530   -7.6650 C.2     1  UNL1        0.0350
      5  C         21.2280  -21.9890   -7.6160 C.2     1  UNL1        0.0310
      6  C         22.3800  -21.8670   -8.4000 C.2     1  UNL1        0.0270
      7  N         19.2560  -23.3280   -6.9480 N.am    1  UNL1       -0.3230
      8  C         18.5830  -22.3790   -6.2060 C.2     1  UNL1        0.2560
      9  O         18.9160  -21.2280   -5.9630 O.2     1  UNL1       -0.2670
     10  H         18.7910  -24.2210   -7.0710 H       1  UNL1        0.1690
     11  C         17.2660  -22.8490   -5.7180 C.2     1  UNL1        0.0400
     12  C         17.1950  -23.4030   -4.4310 C.2     1  UNL1        0.0170
     13  C         15.9760  -23.8710   -3.9460 C.2     1  UNL1        0.0010
     14  C         14.8340  -23.7810   -4.7400 C.2     1  UNL1        0.0010
     15  C         14.9050  -23.2180   -6.0170 C.2     1  UNL1        0.0100
     16  C         16.1250  -22.7510   -6.5350 C.2     1  UNL1       -0.0180
     17  C         16.1750  -22.1150   -7.9110 C.3     1  UNL1        0.2150
     18  O         16.7650  -22.9800   -8.8890 O.2     1  UNL1       -0.3470
     19  C         17.4920  -22.4260   -9.9070 C.2     1  UNL1        0.0690
     20  C         18.7120  -22.8860  -10.4060 C.2     1  UNL1        0.0370
     21  C         19.3370  -22.2170  -11.4650 C.2     1  UNL1        0.0030
     22  C         18.7500  -21.0840  -12.0260 C.2     1  UNL1        0.0000
     23  C         17.5330  -20.6180  -11.5310 C.2     1  UNL1        0.0030
     24  C         16.9090  -21.2900  -10.4780 C.2     1  UNL1        0.0370
     25  S         24.1590  -22.7240  -10.3110 S.O2    1  UNL1        0.2480
     26  O         25.2430  -23.5500   -9.8210 O.2     1  UNL1       -0.2050
     27  O         24.3480  -21.2970  -10.4780 O.2     1  UNL1       -0.2050
     28  N         23.6540  -23.3040  -11.7840 N.pl3   1  UNL1       -0.1480
     29  H         22.7120  -23.0210  -12.0240 H       1  UNL1        0.1490
     30  C         24.5360  -23.1740  -12.8520 C.cat   1  UNL1        0.2160
     31  N         24.2480  -22.1420  -13.6490 N.2     1  UNL1       -0.2230
     32  C         24.9460  -22.0760  -14.8010 C.2     1  UNL1        0.0360
     33  C         25.8610  -23.0470  -15.1690 C.2     1  UNL1        0.0530
     34  C         24.6800  -20.9100  -15.7060 C.3     1  UNL1        0.0700
     35  C         26.0400  -24.0970  -14.2880 C.2     1  UNL1        0.0360
     36  C         26.9920  -25.2080  -14.6150 C.3     1  UNL1        0.0700
     37  N         25.3650  -24.1820  -13.1260 N.2     1  UNL1       -0.2230
@<TRIPOS>BOND
     1    34    32    1
     2    33    32    2
     3    33    35    1
     4    32    31    1
     5    36    35    1
     6    35    37    2
     7    31    30    2
     8    37    30    1
     9    30    28    1
    10    22    23    2
    11    22    21    1
    12    29    28    1
    13    28    25    1
    14    23    24    1
    15    21    20    2
    16    27    25    2
    17    24    19    2
    18    20    19    1
    19    25    26    2
    20    25     1    1
    21    19    18    1
    22     2     1    2
    23     2     3    1
    24     1     6    1
    25    18    17    1
    26     3     4    2
    27     6     5    2
    28    17    16    1
    29     4     5    1
    30     4     7    1
    31    10     7    1
    32     7     8   am
    33    16    15    1
    34    16    11    2
    35     8     9    2
    36     8    11    1
    37    15    14    2
    38    11    12    1
    39    14    13    1
    40    12    13    2
