@<TRIPOS>MOLECULE
15311_out_ligand_01.pdbqt
 28 31 0 0 0
SMALL
GASTEIGER

@<TRIPOS>ATOM
      1  N         21.4670  -21.9360  -10.1020 N.am    1  UNL1       -0.3230
      2  C         21.2500  -22.9980   -9.2330 C.2     1  UNL1        0.2630
      3  O         21.7800  -24.0990   -9.3540 O.2     1  UNL1       -0.2670
      4  H         21.0510  -21.0520   -9.8470 H       1  UNL1        0.1690
      5  C         20.3340  -22.6800   -8.1350 C.2     1  UNL1        0.0740
      6  C         20.4330  -21.7340   -7.1260 C.2     1  UNL1        0.0330
      7  C         19.3100  -21.7580   -6.2460 C.2     1  UNL1       -0.0380
      8  C         18.3790  -22.7100   -6.6170 C.2     1  UNL1        0.0230
      9  C         19.0600  -20.8750   -5.0610 C.3     1  UNL1        0.0440
     10  S         18.8610  -23.5570   -8.0080 S.3     1  UNL1       -0.0840
     11  C         17.1350  -22.9500   -5.8710 C.2     1  UNL1       -0.0120
     12  C         16.0620  -23.7020   -6.3670 C.2     1  UNL1        0.0130
     13  C         17.0290  -22.3600   -4.5870 C.2     1  UNL1       -0.0460
     14  C         14.9080  -23.8780   -5.6010 C.2     1  UNL1        0.0010
     15  C         14.8130  -23.3070   -4.3330 C.2     1  UNL1        0.0010
     16  C         15.8700  -22.5550   -3.8230 C.2     1  UNL1        0.0080
     17  C         18.2010  -21.5910   -4.0010 C.3     1  UNL1        0.0440
     18  C         22.2580  -21.9170  -11.2700 C.2     1  UNL1        0.0350
     19  C         21.6540  -21.4410  -12.4400 C.2     1  UNL1        0.0300
     20  C         22.3640  -21.3930  -13.6440 C.2     1  UNL1        0.0190
     21  C         23.6920  -21.8270  -13.6990 C.2     1  UNL1        0.0320
     22  C         24.3050  -22.2920  -12.5320 C.2     1  UNL1        0.0190
     23  C         23.5890  -22.3400  -11.3280 C.2     1  UNL1        0.0300
     24  C         24.4040  -21.7560  -15.0040 C.2     1  UNL1        0.2490
     25  N         24.1230  -20.7010  -15.8250 N.am    1  UNL1       -0.3660
     26  H         23.6570  -19.8670  -15.4980 H       1  UNL1        0.1590
     27  H         24.7050  -20.6140  -16.6480 H       1  UNL1        0.1590
     28  O         25.2410  -22.5910  -15.3240 O.2     1  UNL1       -0.2680
@<TRIPOS>BOND
     1    27    25    1
     2    25    26    1
     3    25    24   am
     4    28    24    2
     5    24    21    1
     6    21    20    2
     7    21    22    1
     8    20    19    1
     9    22    23    2
    10    19    18    2
    11    23    18    1
    12    18     1    1
    13     1     4    1
    14     1     2   am
    15     3     2    2
    16     2     5    1
    17     5    10    1
    18     5     6    2
    19    10     8    1
    20     6     7    1
    21     8     7    2
    22     8    11    1
    23    12    11    2
    24    12    14    1
    25     7     9    1
    26    11    13    1
    27    14    15    2
    28     9    17    1
    29    13    17    1
    30    13    16    2
    31    15    16    1
