@<TRIPOS>MOLECULE
1531_out_ligand_01.pdbqt
 34 38 0 0 0
SMALL
GASTEIGER

@<TRIPOS>ATOM
      1  C         16.1270  -23.2720   -7.8150 C.ar    1  UNL1        0.1700
      2  N         15.2720  -22.5730   -7.1060 N.ar    1  UNL1       -0.2220
      3  C         15.6980  -22.6900   -5.8080 C.ar    1  UNL1        0.0890
      4  C         15.1560  -22.1340   -4.6500 C.2     1  UNL1        0.0530
      5  C         15.8260  -22.4250   -3.4750 C.2     1  UNL1        0.1180
      6  N         16.9380  -23.1920   -3.3900 N.2     1  UNL1       -0.2710
      7  C         17.4620  -23.7340   -4.5140 C.2     1  UNL1        0.1480
      8  C         16.8390  -23.4820   -5.7280 C.ar    1  UNL1        0.0830
      9  N         17.0920  -23.8590   -7.0330 N.ar    1  UNL1       -0.3180
     10  S         16.0460  -23.4450   -9.5390 S.3     1  UNL1       -0.0870
     11  C         16.4390  -21.7470  -10.0570 C.3     1  UNL1        0.1210
     12  C         17.8230  -21.6580  -10.6560 C.2     1  UNL1       -0.0480
     13  C         18.3450  -20.4240  -11.0730 C.2     1  UNL1        0.0090
     14  C         19.6260  -20.3480  -11.6290 C.2     1  UNL1        0.0170
     15  C         20.3960  -21.5070  -11.7710 C.2     1  UNL1        0.0320
     16  C         19.8810  -22.7410  -11.3650 C.2     1  UNL1        0.0170
     17  C         18.6060  -22.8150  -10.8000 C.2     1  UNL1        0.0090
     18  C         21.7480  -21.4740  -12.3830 C.2     1  UNL1        0.2520
     19  O         21.8880  -21.0940  -13.5390 O.2     1  UNL1       -0.2680
     20  N         22.7800  -21.9140  -11.5820 N.am    1  UNL1       -0.3520
     21  H         22.5830  -22.2240  -10.6400 H       1  UNL1        0.1630
     22  C         24.1550  -21.8540  -12.0240 C.3     1  UNL1        0.0840
     23  C         24.7040  -23.2150  -12.4340 C.3     1  UNL1        0.0250
     24  C         26.2090  -22.9940  -12.4360 C.3     1  UNL1        0.0020
     25  C         26.4720  -21.9740  -11.3320 C.3     1  UNL1        0.0020
     26  C         25.1080  -21.4290  -10.9090 C.3     1  UNL1        0.0250
     27  C         18.2310  -24.6580   -7.4660 C.3     1  UNL1        0.1730
     28  C         19.4630  -23.8220   -7.6990 C.2     1  UNL1       -0.0010
     29  C         19.5680  -22.5130   -7.2070 C.2     1  UNL1        0.0120
     30  C         20.7230  -21.7590   -7.4370 C.2     1  UNL1        0.0010
     31  C         21.7880  -22.3040   -8.1530 C.2     1  UNL1        0.0030
     32  C         21.7000  -23.6050   -8.6380 C.2     1  UNL1        0.0430
     33  C         20.5460  -24.3480   -8.4080 C.2     1  UNL1        0.1240
     34  F         20.4840  -25.5990   -8.8840 F       1  UNL1       -0.2050
@<TRIPOS>BOND
     1    19    18    2
     2    24    23    1
     3    24    25    1
     4    23    22    1
     5    18    15    1
     6    18    20   am
     7    22    20    1
     8    22    26    1
     9    15    14    2
    10    15    16    1
    11    14    13    1
    12    20    21    1
    13    16    17    2
    14    25    26    1
    15    13    12    2
    16    17    12    1
    17    12    11    1
    18    11    10    1
    19    10     1    1
    20    34    33    1
    21    32    33    1
    22    32    31    2
    23    33    28    2
    24    31    30    1
    25     1     2   ar
    26     1     9   ar
    27    28    27    1
    28    28    29    1
    29    27     9    1
    30    30    29    2
    31     2     3   ar
    32     9     8   ar
    33     3     8   ar
    34     3     4    1
    35     8     7    1
    36     4     5    2
    37     7     6    2
    38     5     6    1
