@<TRIPOS>MOLECULE
15310_out_ligand_01.pdbqt
 29 31 0 0 0
SMALL
GASTEIGER

@<TRIPOS>ATOM
      1  C         22.3750  -22.0840   -9.5950 C.2     1  UNL1        0.2260
      2  O         23.0000  -21.0560   -9.3520 O.2     1  UNL1       -0.2730
      3  N         22.3520  -22.7710  -10.8000 N.am    1  UNL1       -0.3270
      4  H         21.7280  -23.5700  -10.8520 H       1  UNL1        0.1690
      5  C         21.5410  -22.7570   -8.5120 C.3     1  UNL1        0.1440
      6  C         20.0830  -22.7590   -8.8220 C.2     1  UNL1       -0.0140
      7  C         19.4960  -22.8560  -10.0720 C.2     1  UNL1        0.1510
      8  O         18.1430  -22.8260   -9.9760 O.2     1  UNL1       -0.3210
      9  C         17.8390  -22.6880   -8.6540 C.2     1  UNL1        0.0860
     10  C         16.5550  -22.5990   -8.1230 C.2     1  UNL1        0.0450
     11  C         18.9980  -22.6400   -7.8960 C.2     1  UNL1        0.0070
     12  C         16.4300  -22.4390   -6.7240 C.2     1  UNL1       -0.0530
     13  C         15.0380  -22.3070   -6.1580 C.3     1  UNL1        0.0490
     14  C         17.5840  -22.3760   -5.9040 C.2     1  UNL1       -0.0480
     15  C         18.8690  -22.4880   -6.5000 C.2     1  UNL1        0.0230
     16  C         17.4890  -22.1830   -4.3910 C.3     1  UNL1        0.0110
     17  C         18.5210  -21.1720   -3.8810 C.3     1  UNL1        0.0150
     18  C         17.6100  -23.5180   -3.6520 C.3     1  UNL1        0.0150
     19  C         23.0430  -22.4480  -11.9870 C.2     1  UNL1        0.0340
     20  C         22.4270  -21.5340  -12.8560 C.2     1  UNL1        0.0300
     21  C         23.0370  -21.1650  -14.0630 C.2     1  UNL1        0.0190
     22  C         24.2790  -21.7070  -14.4130 C.2     1  UNL1        0.0320
     23  C         24.8900  -22.6280  -13.5530 C.2     1  UNL1        0.0190
     24  C         24.2770  -22.9910  -12.3470 C.2     1  UNL1        0.0300
     25  C         24.9650  -21.3650  -15.6880 C.2     1  UNL1        0.2490
     26  N         24.3130  -20.5360  -16.5610 N.am    1  UNL1       -0.3660
     27  H         23.5400  -19.9520  -16.2770 H       1  UNL1        0.1590
     28  H         24.8580  -20.2270  -17.3560 H       1  UNL1        0.1590
     29  O         26.0870  -21.7810  -15.9480 O.2     1  UNL1       -0.2680
@<TRIPOS>BOND
     1    28    26    1
     2    26    27    1
     3    26    25   am
     4    29    25    2
     5    25    22    1
     6    22    21    2
     7    22    23    1
     8    21    20    1
     9    23    24    2
    10    20    19    2
    11    24    19    1
    12    19     3    1
    13     4     3    1
    14     3     1   am
    15     7     8    1
    16     7     6    2
    17     8     9    1
    18     1     2    2
    19     1     5    1
    20     6     5    1
    21     6    11    1
    22     9    10    2
    23     9    11    1
    24    10    12    1
    25    11    15    2
    26    12    13    1
    27    12    14    2
    28    15    14    1
    29    14    16    1
    30    16    17    1
    31    16    18    1
