@<TRIPOS>MOLECULE
15316_out_ligand_01.pdbqt
 33 36 0 0 0
SMALL
GASTEIGER

@<TRIPOS>ATOM
      1  C         17.2250  -22.5630   -9.3870 C.2     1  UNL1        0.0770
      2  C         16.4780  -21.7910  -10.2750 C.2     1  UNL1        0.0250
      3  C         17.1200  -21.1960  -11.3580 C.2     1  UNL1        0.0040
      4  C         18.4980  -21.3700  -11.5440 C.2     1  UNL1        0.0290
      5  C         19.2520  -22.1240  -10.6400 C.2     1  UNL1        0.0360
      6  C         18.6070  -22.7120   -9.5480 C.2     1  UNL1        0.0540
      7  N         20.6390  -22.3460  -10.7590 N.am    1  UNL1       -0.3230
      8  C         21.4940  -21.8300  -11.7180 C.2     1  UNL1        0.2560
      9  O         21.2050  -21.0570  -12.6220 O.2     1  UNL1       -0.2670
     10  H         21.0570  -22.9040  -10.0260 H       1  UNL1        0.1690
     11  C         22.9100  -22.2710  -11.5880 C.2     1  UNL1        0.0340
     12  C         23.4060  -22.7800  -10.3750 C.2     1  UNL1        0.0190
     13  C         24.7380  -23.1940  -10.2530 C.2     1  UNL1        0.0330
     14  C         25.5350  -23.0800  -11.3940 C.2     1  UNL1        0.0620
     15  N         26.8510  -23.3830  -11.6370 N.pl3   1  UNL1       -0.3490
     16  C         25.0650  -22.5960  -12.6120 C.2     1  UNL1        0.0850
     17  C         27.1210  -23.0790  -12.9420 C.2     1  UNL1        0.2080
     18  H         27.5070  -23.7650  -10.9720 H       1  UNL1        0.1670
     19  N         26.0640  -22.6010  -13.5560 N.2     1  UNL1       -0.2420
     20  C         23.7300  -22.1890  -12.7240 C.2     1  UNL1        0.0510
     21  S         16.4160  -23.3530   -8.0130 S.O2    1  UNL1        0.2460
     22  O         15.8860  -24.6140   -8.4900 O.2     1  UNL1       -0.2060
     23  O         15.5550  -22.3730   -7.3840 O.2     1  UNL1       -0.2060
     24  N         17.6960  -23.7300   -6.9690 N.pl3   1  UNL1       -0.1790
     25  H         18.5350  -23.9460   -7.5130 H       1  UNL1        0.1460
     26  C         17.9560  -22.8230   -5.8900 C.2     1  UNL1        0.0560
     27  C         18.7980  -21.7280   -6.0870 C.2     1  UNL1        0.0270
     28  C         19.0900  -20.8790   -5.0210 C.2     1  UNL1        0.0020
     29  C         18.5420  -21.1280   -3.7630 C.2     1  UNL1        0.0030
     30  C         17.7020  -22.2280   -3.5610 C.2     1  UNL1        0.0380
     31  C         17.4070  -23.0870   -4.6220 C.2     1  UNL1        0.0900
     32  O         16.6000  -24.1940   -4.5430 O.2     1  UNL1       -0.3540
     33  C         15.2360  -23.9610   -4.2050 C.3     1  UNL1        0.2100
@<TRIPOS>BOND
     1    19    17    2
     2    19    16    1
     3    17    15    1
     4    20    16    1
     5    20    11    2
     6     9     8    2
     7    16    14    2
     8     8    11    1
     9     8     7   am
    10    15    14    1
    11    15    18    1
    12    11    12    1
    13     4     3    2
    14     4     5    1
    15    14    13    1
    16     3     2    1
    17     7     5    1
    18     7    10    1
    19     5     6    2
    20    12    13    2
    21     2     1    2
    22     6     1    1
    23     1    21    1
    24    22    21    2
    25    21    23    2
    26    21    24    1
    27    25    24    1
    28    24    26    1
    29    27    26    2
    30    27    28    1
    31    26    31    1
    32    28    29    2
    33    31    32    1
    34    31    30    2
    35    32    33    1
    36    29    30    1
