@<TRIPOS>MOLECULE
15329_out_ligand_01.pdbqt
 35 37 0 0 0
SMALL
GASTEIGER

@<TRIPOS>ATOM
      1  C         21.6400  -22.2360   -9.9910 C.2     1  UNL1        0.2560
      2  O         21.7530  -21.9650   -8.8020 O.2     1  UNL1       -0.2670
      3  N         20.4840  -22.5480  -10.6780 N.am    1  UNL1       -0.3230
      4  H         20.6000  -22.9270  -11.6110 H       1  UNL1        0.1690
      5  C         22.8730  -22.3250  -10.8110 C.2     1  UNL1        0.0390
      6  C         22.8540  -21.6750  -12.0500 C.2     1  UNL1        0.0420
      7  C         23.9850  -21.7200  -12.8650 C.2     1  UNL1        0.0800
      8  C         25.1410  -22.3810  -12.4450 C.2     1  UNL1        0.0260
      9  C         25.1490  -23.0420  -11.2150 C.2     1  UNL1        0.0090
     10  C         24.0100  -23.0450  -10.3910 C.2     1  UNL1       -0.0460
     11  C         24.0510  -23.8100   -9.0960 C.3     1  UNL1        0.0490
     12  S         23.9540  -20.8760  -14.4230 S.O2    1  UNL1        0.2590
     13  O         25.1750  -20.1150  -14.5600 O.2     1  UNL1       -0.2010
     14  O         22.6610  -20.2340  -14.5180 O.2     1  UNL1       -0.2010
     15  N         23.9380  -22.1060  -15.5480 N.3     1  UNL1       -0.3070
     16  H         23.3080  -22.8700  -15.3030 H       1  UNL1        0.1730
     17  C         24.8390  -22.2960  -16.7020 C.3     1  UNL1        0.0290
     18  C         24.8640  -20.9530  -17.4560 C.3     1  UNL1        0.0380
     19  C         24.2540  -23.3670  -17.6280 C.3     1  UNL1        0.0380
     20  C         26.2720  -22.6540  -16.3100 C.3     1  UNL1        0.0380
     21  C         19.1650  -22.4870  -10.1880 C.2     1  UNL1        0.0360
     22  C         18.2270  -21.7770  -10.9490 C.2     1  UNL1        0.0290
     23  C         16.8970  -21.6700  -10.5290 C.2     1  UNL1        0.0040
     24  C         16.4930  -22.2730   -9.3410 C.2     1  UNL1        0.0250
     25  C         17.4260  -22.9840   -8.5820 C.2     1  UNL1        0.0810
     26  C         18.7630  -23.0720   -8.9870 C.2     1  UNL1        0.0540
     27  S         16.9330  -23.7180   -7.0350 S.O2    1  UNL1        0.2600
     28  O         17.8090  -24.8470   -6.7960 O.2     1  UNL1       -0.2000
     29  O         15.4960  -23.8860   -7.0720 O.2     1  UNL1       -0.2000
     30  N         17.3130  -22.5170   -5.9000 N.3     1  UNL1       -0.3070
     31  C         18.6960  -21.9880   -5.8970 C.3     1  UNL1        0.1350
     32  C         18.7910  -20.8130   -4.9320 C.3     1  UNL1        0.0210
     33  C         18.4740  -21.2340   -3.4980 C.3     1  UNL1        0.0030
     34  C         17.6000  -22.4830   -3.4330 C.3     1  UNL1        0.0210
     35  C         16.6160  -22.5510   -4.5930 C.3     1  UNL1        0.1350
@<TRIPOS>BOND
     1    19    17    1
     2    18    17    1
     3    17    20    1
     4    17    15    1
     5    15    16    1
     6    15    12    1
     7    13    12    2
     8    14    12    2
     9    12     7    1
    10     7     8    2
    11     7     6    1
    12     8     9    1
    13     6     5    2
    14     4     3    1
    15     9    10    2
    16    22    23    1
    17    22    21    2
    18     5    10    1
    19     5     1    1
    20     3    21    1
    21     3     1   am
    22    23    24    2
    23    10    11    1
    24    21    26    1
    25     1     2    2
    26    24    25    1
    27    26    25    2
    28    25    27    1
    29    29    27    2
    30    27    28    2
    31    27    30    1
    32    30    31    1
    33    30    35    1
    34    31    32    1
    35    32    33    1
    36    35    34    1
    37    33    34    1
