@<TRIPOS>MOLECULE
15327_out_ligand_01.pdbqt
 36 39 0 0 0
SMALL
GASTEIGER

@<TRIPOS>ATOM
      1  C         21.9340  -22.2930  -11.3270 C.2     1  UNL1        0.0750
      2  C         20.8260  -21.5970  -11.8120 C.2     1  UNL1        0.0270
      3  C         19.5930  -21.7120  -11.1600 C.2     1  UNL1        0.0310
      4  C         19.4570  -22.5310  -10.0360 C.2     1  UNL1        0.0340
      5  C         20.5760  -23.2430   -9.5740 C.2     1  UNL1        0.0310
      6  C         21.8110  -23.1280  -10.2160 C.2     1  UNL1        0.0270
      7  N         18.2540  -22.6960   -9.3210 N.am    1  UNL1       -0.3270
      8  C         16.9860  -22.2750   -9.6890 C.2     1  UNL1        0.2220
      9  O         16.6810  -21.7020  -10.7300 O.2     1  UNL1       -0.2730
     10  H         18.3330  -23.1490   -8.4200 H       1  UNL1        0.1690
     11  C         15.9450  -22.6500   -8.6470 C.3     1  UNL1        0.1030
     12  C         15.9030  -24.1490   -8.3430 C.3     1  UNL1        0.0140
     13  C         16.9150  -24.6120   -7.2870 C.3     1  UNL1        0.0410
     14  C         16.8990  -23.7920   -6.0340 C.2     1  UNL1       -0.0300
     15  C         16.0240  -23.9460   -4.9750 C.2     1  UNL1        0.0960
     16  N         16.3340  -23.0160   -4.0220 N.pl3   1  UNL1       -0.3650
     17  C         17.3940  -22.2430   -4.4370 C.2     1  UNL1        0.0420
     18  H         15.8610  -22.9090   -3.1350 H       1  UNL1        0.1650
     19  C         18.0390  -21.1790   -3.7970 C.2     1  UNL1        0.0300
     20  C         17.7740  -22.7120   -5.6950 C.2     1  UNL1       -0.0020
     21  C         19.1100  -20.5750   -4.4620 C.2     1  UNL1        0.0020
     22  C         19.5170  -21.0210   -5.7170 C.2     1  UNL1        0.0010
     23  C         18.8610  -22.0870   -6.3430 C.2     1  UNL1        0.0140
     24  S         23.4990  -22.1720  -12.1590 S.O2    1  UNL1        0.2480
     25  O         23.9580  -23.4970  -12.5170 O.2     1  UNL1       -0.2050
     26  O         24.3300  -21.3140  -11.3380 O.2     1  UNL1       -0.2050
     27  N         23.1570  -21.2930  -13.5280 N.pl3   1  UNL1       -0.1480
     28  H         22.8270  -20.3550  -13.3310 H       1  UNL1        0.1490
     29  C         24.0920  -21.3330  -14.5540 C.cat   1  UNL1        0.2160
     30  N         23.9150  -22.1920  -15.5570 N.2     1  UNL1       -0.2230
     31  C         24.7710  -22.0840  -16.5900 C.2     1  UNL1        0.0360
     32  C         25.7490  -21.1090  -16.6370 C.2     1  UNL1        0.0530
     33  C         24.6230  -23.0660  -17.7130 C.3     1  UNL1        0.0700
     34  C         25.8040  -20.2320  -15.5680 C.2     1  UNL1        0.0360
     35  C         26.8230  -19.1340  -15.5450 C.3     1  UNL1        0.0700
     36  N         24.9600  -20.3180  -14.5200 N.2     1  UNL1       -0.2230
@<TRIPOS>BOND
     1    33    31    1
     2    32    31    2
     3    32    34    1
     4    31    30    1
     5    34    35    1
     6    34    36    2
     7    30    29    2
     8    29    36    1
     9    29    27    1
    10    27    28    1
    11    27    24    1
    12    25    24    2
    13    24    26    2
    14    24     1    1
    15     2     1    2
    16     2     3    1
    17     1     6    1
    18     3     4    2
    19     9     8    2
    20     6     5    2
    21     4     5    1
    22     4     7    1
    23     8     7   am
    24     8    11    1
    25     7    10    1
    26    11    12    1
    27    12    13    1
    28    13    14    1
    29    23    22    2
    30    23    20    1
    31    14    20    1
    32    14    15    2
    33    22    21    1
    34    20    17    2
    35    15    16    1
    36    21    19    2
    37    17    16    1
    38    17    19    1
    39    16    18    1
