@<TRIPOS>MOLECULE
15338_out_ligand_01.pdbqt
 33 37 0 0 0
SMALL
GASTEIGER

@<TRIPOS>ATOM
      1  C         23.0000  -21.7850  -12.8210 C.2     1  UNL1        0.0350
      2  C         21.6220  -21.6910  -12.6030 C.2     1  UNL1        0.0310
      3  C         21.0720  -22.0330  -11.3620 C.2     1  UNL1        0.0270
      4  C         21.9040  -22.4880  -10.3390 C.2     1  UNL1        0.0790
      5  C         23.2850  -22.5610  -10.5310 C.2     1  UNL1        0.0270
      6  C         23.8270  -22.2150  -11.7730 C.2     1  UNL1        0.0310
      7  S         21.2230  -22.9390   -8.7650 S.O2    1  UNL1        0.2590
      8  O         21.7860  -22.0810   -7.7480 O.2     1  UNL1       -0.2010
      9  O         21.3160  -24.3800   -8.6650 O.2     1  UNL1       -0.2010
     10  N         19.5960  -22.6050   -8.9270 N.3     1  UNL1       -0.3050
     11  H         19.3720  -22.1010   -9.7840 H       1  UNL1        0.1730
     12  C         18.5210  -22.8390   -7.9500 C.3     1  UNL1        0.0410
     13  C         17.1560  -22.4910   -8.5810 C.3     1  UNL1        0.0360
     14  C         16.0090  -22.8410   -7.6140 C.3     1  UNL1       -0.0120
     15  C         16.0440  -24.3470   -7.3100 C.3     1  UNL1        0.0090
     16  C         16.1950  -22.0550   -6.3050 C.3     1  UNL1        0.0090
     17  C         17.3870  -24.7210   -6.6640 C.3     1  UNL1       -0.0120
     18  C         17.5620  -23.9310   -5.3590 C.3     1  UNL1        0.0090
     19  C         18.5280  -24.3580   -7.6290 C.3     1  UNL1        0.0360
     20  C         17.5380  -22.4230   -5.6530 C.3     1  UNL1       -0.0120
     21  C         18.6840  -22.0740   -6.6220 C.3     1  UNL1        0.0360
     22  N         23.6260  -21.4800  -14.0460 N.am    1  UNL1       -0.3220
     23  C         24.5930  -22.2140  -14.7090 C.2     1  UNL1        0.2750
     24  O         25.0520  -23.2900  -14.3560 O.2     1  UNL1       -0.2660
     25  H         23.3010  -20.6440  -14.5180 H       1  UNL1        0.1690
     26  C         25.0470  -21.5490  -15.8990 C.ar    1  UNL1        0.1390
     27  N         24.8570  -22.0040  -17.1760 N.ar    1  UNL1       -0.2670
     28  N         25.4310  -21.2310  -18.1190 N.ar    1  UNL1       -0.1760
     29  C         24.1440  -23.1950  -17.5850 C.3     1  UNL1        0.1800
     30  C         25.9160  -20.1840  -17.4340 C.ar    1  UNL1        0.0700
     31  C         26.5840  -19.0720  -18.1530 C.3     1  UNL1        0.0740
     32  C         25.6880  -20.3420  -16.0510 C.ar    1  UNL1        0.0700
     33 BR         26.2140  -19.1440  -14.7130 Br      1  UNL1       -0.0460
@<TRIPOS>BOND
     1    31    30    1
     2    28    30   ar
     3    28    27   ar
     4    29    27    1
     5    30    32   ar
     6    27    26   ar
     7    32    26   ar
     8    32    33    1
     9    26    23    1
    10    23    24    2
    11    23    22   am
    12    25    22    1
    13    22     1    1
    14     1     2    2
    15     1     6    1
    16     2     3    1
    17     6     5    2
    18     3     4    2
    19     5     4    1
    20     4     7    1
    21    11    10    1
    22    10     7    1
    23    10    12    1
    24     7     9    2
    25     7     8    2
    26    13    12    1
    27    13    14    1
    28    12    19    1
    29    12    21    1
    30    19    17    1
    31    14    15    1
    32    14    16    1
    33    15    17    1
    34    17    18    1
    35    21    20    1
    36    16    20    1
    37    20    18    1
