@<TRIPOS>MOLECULE
15347_out_ligand_01.pdbqt
 39 44 0 0 0
SMALL
GASTEIGER

@<TRIPOS>ATOM
      1  C         21.1780  -22.3570  -10.7850 C.2     1  UNL1        0.0350
      2  C         20.6570  -23.2910   -9.8830 C.2     1  UNL1        0.0310
      3  C         19.2850  -23.3290   -9.6130 C.2     1  UNL1        0.0270
      4  C         18.4310  -22.4170  -10.2360 C.2     1  UNL1        0.0790
      5  C         18.9340  -21.4950  -11.1560 C.2     1  UNL1        0.0270
      6  C         20.3050  -21.4660  -11.4240 C.2     1  UNL1        0.0310
      7  N         22.5430  -22.2500  -11.1050 N.am    1  UNL1       -0.3210
      8  C         23.5540  -21.6390  -10.3820 C.2     1  UNL1        0.2790
      9  O         23.4200  -21.0750   -9.3020 O.2     1  UNL1       -0.2650
     10  H         22.8500  -22.6770  -11.9750 H       1  UNL1        0.1690
     11  C         24.8410  -21.7280  -11.0500 C.2     1  UNL1        0.1430
     12  C         26.0270  -21.0510  -10.8420 C.2     1  UNL1        0.0450
     13  C         26.9560  -21.5550  -11.7860 C.2     1  UNL1        0.0370
     14  C         26.2880  -22.5110  -12.5210 C.2     1  UNL1        0.0730
     15  O         24.9970  -22.6100  -12.0870 O.2     1  UNL1       -0.3080
     16  C         26.6760  -23.3910  -13.6520 C.3     1  UNL1        0.2160
     17  N         25.9180  -23.0640  -14.8580 N.ar    1  UNL1       -0.2670
     18  N         25.9920  -21.8050  -15.3560 N.ar    1  UNL1       -0.1760
     19  C         25.2180  -21.8340  -16.4490 C.ar    1  UNL1        0.0700
     20  C         25.0350  -20.6090  -17.2660 C.3     1  UNL1        0.0740
     21  C         24.6850  -23.1220  -16.6550 C.ar    1  UNL1        0.0600
     22  C         25.1540  -23.9120  -15.6300 C.ar    1  UNL1        0.0460
     23 BR         23.5680  -23.6170  -18.0760 Br      1  UNL1       -0.0470
     24  C         24.9540  -25.3490  -15.3210 C.3     1  UNL1        0.0710
     25  S         16.6900  -22.4500   -9.9060 S.O2    1  UNL1        0.2590
     26  O         16.2540  -23.8260   -9.8320 O.2     1  UNL1       -0.2010
     27  O         16.0700  -21.5170  -10.8230 O.2     1  UNL1       -0.2010
     28  N         16.5560  -21.7450   -8.3990 N.3     1  UNL1       -0.3050
     29  H         16.5880  -20.7280   -8.4310 H       1  UNL1        0.1730
     30  C         16.6200  -22.4020   -7.0820 C.3     1  UNL1        0.0410
     31  C         15.3680  -21.9340   -6.2910 C.3     1  UNL1        0.0360
     32  C         15.3690  -22.5150   -4.8680 C.3     1  UNL1       -0.0120
     33  C         16.6360  -22.0450   -4.1340 C.3     1  UNL1        0.0090
     34  C         15.3680  -24.0490   -4.9520 C.3     1  UNL1        0.0090
     35  C         17.8860  -22.5190   -4.8910 C.3     1  UNL1       -0.0120
     36  C         17.8740  -24.0550   -4.9790 C.3     1  UNL1        0.0090
     37  C         17.8730  -21.9310   -6.3140 C.3     1  UNL1        0.0360
     38  C         16.6100  -24.5330   -5.7140 C.3     1  UNL1       -0.0120
     39  C         16.5980  -23.9410   -7.1380 C.3     1  UNL1        0.0360
@<TRIPOS>BOND
     1    23    21    1
     2    20    19    1
     3    21    19   ar
     4    21    22   ar
     5    19    18   ar
     6    22    24    1
     7    22    17   ar
     8    18    17   ar
     9    17    16    1
    10    16    14    1
    11    14    15    1
    12    14    13    2
    13    15    11    1
    14    10     7    1
    15    13    12    1
    16     6     5    1
    17     6     1    2
    18     5     4    2
    19     7     1    1
    20     7     8   am
    21    11    12    2
    22    11     8    1
    23    27    25    2
    24     1     2    1
    25     8     9    2
    26     4    25    1
    27     4     3    1
    28    25    26    2
    29    25    28    1
    30     2     3    2
    31    29    28    1
    32    28    30    1
    33    39    30    1
    34    39    38    1
    35    30    37    1
    36    30    31    1
    37    37    35    1
    38    31    32    1
    39    38    36    1
    40    38    34    1
    41    36    35    1
    42    34    32    1
    43    35    33    1
    44    32    33    1
