@<TRIPOS>MOLECULE
15355_out_ligand_01.pdbqt
 29 31 0 0 0
SMALL
GASTEIGER

@<TRIPOS>ATOM
      1  C         20.5450  -22.3120   -7.5370 C.2     1  UNL1        0.0330
      2  C         20.7730  -21.2150   -6.6940 C.2     1  UNL1        0.0170
      3  C         19.8220  -20.8590   -5.7350 C.2     1  UNL1        0.0020
      4  C         18.6500  -21.6040   -5.5990 C.2     1  UNL1        0.0230
      5  C         18.4480  -22.7220   -6.4150 C.2     1  UNL1        0.0600
      6  C         19.3790  -23.0720   -7.3960 C.2     1  UNL1        0.0400
      7  S         16.9670  -23.6830   -6.2530 S.O2    1  UNL1        0.1770
      8  O         16.3220  -23.2020   -5.0420 O.2     1  UNL1       -0.2230
      9  O         17.3330  -25.0820   -6.3510 O.2     1  UNL1       -0.2230
     10  C         15.9080  -23.2540   -7.6020 C.3     1  UNL1        0.1700
     11  C         16.2610  -23.7750   -8.9880 C.3     1  UNL1        0.1290
     12 CL         14.8880  -24.5960   -9.7870 Cl      1  UNL1       -0.1190
     13  C         17.0230  -22.8290   -9.8960 C.2     1  UNL1       -0.0390
     14  C         18.2980  -23.1110  -10.4100 C.2     1  UNL1        0.0090
     15  C         18.9490  -22.2060  -11.2520 C.2     1  UNL1        0.0010
     16  C         18.3370  -21.0040  -11.5960 C.2     1  UNL1        0.0000
     17  C         17.0720  -20.7050  -11.1000 C.2     1  UNL1        0.0010
     18  C         16.4200  -21.6100  -10.2590 C.2     1  UNL1        0.0090
     19  C         21.5350  -22.7290   -8.5700 C.2     1  UNL1        0.2560
     20  N         22.0250  -21.7010   -9.3530 N.am    1  UNL1       -0.3230
     21  H         21.5990  -20.7910   -9.2370 H       1  UNL1        0.1690
     22  O         21.8000  -23.9210   -8.6570 O.2     1  UNL1       -0.2670
     23  C         22.9960  -21.7910  -10.3720 C.2     1  UNL1        0.0350
     24  C         22.5400  -22.0420  -11.6710 C.2     1  UNL1        0.0300
     25  C         23.4380  -22.1410  -12.7390 C.2     1  UNL1        0.0090
     26  C         24.8090  -21.9750  -12.5270 C.2     1  UNL1       -0.0620
     27  C         25.7800  -22.1140  -13.6620 C.3     1  UNL1        0.0480
     28  C         25.2660  -21.7340  -11.2270 C.2     1  UNL1        0.0090
     29  C         24.3660  -21.6360  -10.1600 C.2     1  UNL1        0.0300
@<TRIPOS>BOND
     1    27    26    1
     2    25    26    2
     3    25    24    1
     4    26    28    1
     5    24    23    2
     6    16    15    2
     7    16    17    1
     8    15    14    1
     9    28    29    2
    10    17    18    2
    11    14    13    2
    12    23    29    1
    13    23    20    1
    14    18    13    1
    15    13    11    1
    16    12    11    1
    17    20    21    1
    18    20    19   am
    19    11    10    1
    20    22    19    2
    21    19     1    1
    22    10     7    1
    23     1     6    2
    24     1     2    1
    25     6     5    1
    26     2     3    2
    27     5     7    1
    28     5     4    2
    29     9     7    2
    30     7     8    2
    31     3     4    1
