@<TRIPOS>MOLECULE
15356_out_ligand_01.pdbqt
 28 31 0 0 0
SMALL
GASTEIGER

@<TRIPOS>ATOM
      1  C         20.0430  -22.1150  -11.2190 C.2     1  UNL1        0.0320
      2  C         18.9380  -21.3320  -11.5780 C.2     1  UNL1        0.0170
      3  C         17.6850  -21.5900  -11.0140 C.2     1  UNL1        0.0100
      4  C         17.5220  -22.6280  -10.0850 C.2     1  UNL1       -0.0300
      5  C         18.6390  -23.3910   -9.7150 C.2     1  UNL1        0.0100
      6  C         19.8920  -23.1360  -10.2750 C.2     1  UNL1        0.0170
      7  C         21.3970  -21.8740  -11.7960 C.2     1  UNL1        0.2560
      8  O         21.5100  -21.0570  -12.7020 O.2     1  UNL1       -0.2670
      9  N         22.4160  -22.5950  -11.2070 N.am    1  UNL1       -0.3200
     10  H         22.1950  -23.1410  -10.3800 H       1  UNL1        0.1690
     11  C         23.7840  -22.5970  -11.5570 C.2     1  UNL1        0.0730
     12  C         24.3260  -23.3180  -12.6210 C.2     1  UNL1        0.0330
     13  C         25.7010  -23.2570  -12.8850 C.2     1  UNL1        0.0020
     14  C         26.5430  -22.4800  -12.0900 C.2     1  UNL1        0.0030
     15  C         26.0130  -21.7590  -11.0230 C.2     1  UNL1        0.0440
     16  C         24.6450  -21.8250  -10.7670 C.2     1  UNL1        0.1430
     17  F         24.1450  -21.1270   -9.7340 F       1  UNL1       -0.2040
     18  C         16.1680  -22.8990   -9.4590 C.3     1  UNL1        0.3110
     19  N         16.1680  -22.7710   -7.9930 N.3     1  UNL1        0.0970
     20  C         16.0270  -24.0920   -7.3620 C.3     1  UNL1        0.2770
     21  C         15.8180  -23.9500   -5.8490 C.3     1  UNL1        0.0690
     22  C         16.8340  -23.0380   -5.2100 C.2     1  UNL1       -0.0490
     23  C         17.0130  -23.0460   -3.8210 C.2     1  UNL1        0.0070
     24  C         17.5580  -22.1350   -6.0050 C.2     1  UNL1       -0.0240
     25  C         17.9270  -22.1770   -3.2240 C.2     1  UNL1        0.0010
     26  C         18.6600  -21.2920   -4.0090 C.2     1  UNL1        0.0010
     27  C         18.4800  -21.2710   -5.3930 C.2     1  UNL1        0.0090
     28  C         17.4060  -22.1230   -7.5130 C.3     1  UNL1        0.3110
@<TRIPOS>BOND
     1    13    12    1
     2    13    14    2
     3     8     7    2
     4    12    11    2
     5    14    15    1
     6     7     1    1
     7     7     9   am
     8     2     1    2
     9     2     3    1
    10    11     9    1
    11    11    16    1
    12     1     6    1
    13     9    10    1
    14    15    16    2
    15     3     4    2
    16    16    17    1
    17     6     5    2
    18     4     5    1
    19     4    18    1
    20    18    19    1
    21    19    28    1
    22    19    20    1
    23    28    24    1
    24    20    21    1
    25    24    27    1
    26    24    22    2
    27    21    22    1
    28    27    26    2
    29    22    23    1
    30    26    25    1
    31    23    25    2
