@<TRIPOS>MOLECULE
15357_out_ligand_01.pdbqt
 35 39 0 0 0
SMALL
GASTEIGER

@<TRIPOS>ATOM
      1  C         22.9960  -21.8240  -12.7640 C.2     1  UNL1        0.0350
      2  C         21.6230  -21.6600  -12.5520 C.2     1  UNL1        0.0310
      3  C         21.0430  -22.0260  -11.3320 C.2     1  UNL1        0.0270
      4  C         21.8420  -22.5470  -10.3150 C.2     1  UNL1        0.0790
      5  C         23.2110  -22.7300  -10.5150 C.2     1  UNL1        0.0270
      6  C         23.7820  -22.3680  -11.7380 C.2     1  UNL1        0.0310
      7  S         21.1270  -23.0040   -8.7570 S.O2    1  UNL1        0.2590
      8  O         21.7250  -22.1440   -7.7590 O.2     1  UNL1       -0.2010
      9  O         21.1420  -24.4420   -8.6280 O.2     1  UNL1       -0.2010
     10  N         19.5420  -22.4810   -8.9100 N.3     1  UNL1       -0.3050
     11  H         19.5030  -21.5410   -9.3060 H       1  UNL1        0.1730
     12  C         18.4280  -22.8830   -8.0300 C.3     1  UNL1        0.0410
     13  C         18.4000  -22.0000   -6.7640 C.3     1  UNL1        0.0360
     14  C         17.1750  -22.3480   -5.8980 C.3     1  UNL1       -0.0120
     15  C         17.2380  -23.8330   -5.5030 C.3     1  UNL1        0.0090
     16  C         15.8930  -22.0950   -6.7080 C.3     1  UNL1        0.0090
     17  C         17.2330  -24.7180   -6.7620 C.3     1  UNL1       -0.0120
     18  C         15.9500  -24.4500   -7.5650 C.3     1  UNL1        0.0090
     19  C         18.4580  -24.3710   -7.6290 C.3     1  UNL1        0.0360
     20  C         15.8880  -22.9700   -7.9710 C.3     1  UNL1       -0.0120
     21  C         17.1200  -22.6300   -8.8240 C.3     1  UNL1        0.0360
     22  N         23.6570  -21.4720  -13.9590 N.am    1  UNL1       -0.3220
     23  C         24.6210  -22.1960  -14.6340 C.2     1  UNL1        0.2770
     24  O         25.0860  -23.2770  -14.3040 O.2     1  UNL1       -0.2660
     25  H         23.4370  -20.5560  -14.3290 H       1  UNL1        0.1690
     26  C         25.0440  -21.5480  -15.8460 C.ar    1  UNL1        0.1550
     27  N         24.8110  -22.0060  -17.1170 N.ar    1  UNL1       -0.2660
     28  N         25.3120  -21.2090  -18.0790 N.ar    1  UNL1       -0.1750
     29  C         24.1290  -23.2230  -17.4990 C.3     1  UNL1        0.1800
     30  C         25.9870  -20.2640  -17.4090 C.ar    1  UNL1        0.0860
     31  C         26.7320  -19.2160  -18.1530 C.3     1  UNL1        0.0750
     32  C         25.8440  -20.4290  -16.0090 C.ar    1  UNL1        0.1620
     33  N         26.3730  -19.6060  -14.9660 N.pl3   1  UNL1       -0.1110
     34  O         27.1190  -20.1510  -14.1450 O.2     1  UNL1       -0.5320
     35  O         26.0050  -18.4250  -14.9440 O.2     1  UNL1       -0.5320
@<TRIPOS>BOND
     1    31    30    1
     2    28    30   ar
     3    28    27   ar
     4    29    27    1
     5    30    32   ar
     6    27    26   ar
     7    32    26   ar
     8    32    33    1
     9    26    23    1
    10    33    35    2
    11    33    34    2
    12    23    24    2
    13    23    22   am
    14    25    22    1
    15    22     1    1
    16     1     2    2
    17     1     6    1
    18     2     3    1
    19     6     5    2
    20     3     4    2
    21     5     4    1
    22     4     7    1
    23    11    10    1
    24    10     7    1
    25    10    12    1
    26    21    12    1
    27    21    20    1
    28     7     9    2
    29     7     8    2
    30    12    19    1
    31    12    13    1
    32    20    18    1
    33    20    16    1
    34    19    17    1
    35    18    17    1
    36    13    14    1
    37    17    15    1
    38    16    14    1
    39    14    15    1
