@<TRIPOS>MOLECULE
15365_out_ligand_01.pdbqt
 39 42 0 0 0
SMALL
GASTEIGER

@<TRIPOS>ATOM
      1  C         18.7840  -23.3250   -6.9460 C.2     1  UNL1        0.1300
      2  N         19.6250  -22.3370   -6.8900 N.2     1  UNL1       -0.2600
      3  C         20.7850  -22.4770   -7.6630 C.2     1  UNL1        0.0560
      4  C         21.0390  -23.6760   -8.3320 C.2     1  UNL1        0.0330
      5  C         22.1820  -23.8170   -9.1220 C.2     1  UNL1        0.0270
      6  C         23.0780  -22.7510   -9.2350 C.2     1  UNL1        0.0750
      7  C         22.8180  -21.5340   -8.5960 C.2     1  UNL1        0.0270
      8  C         21.6700  -21.4020   -7.8140 C.2     1  UNL1        0.0330
      9  S         24.5130  -22.9050  -10.2730 S.O2    1  UNL1        0.2480
     10  O         25.3520  -23.9240   -9.6710 O.2     1  UNL1       -0.2050
     11  O         25.0540  -21.5880  -10.5370 O.2     1  UNL1       -0.2050
     12  N         23.9180  -23.5820  -11.6690 N.pl3   1  UNL1       -0.1480
     13  H         23.6560  -24.5540  -11.5540 H       1  UNL1        0.1490
     14  C         24.6350  -23.3520  -12.8350 C.cat   1  UNL1        0.2160
     15  N         25.4670  -24.3480  -13.1500 N.2     1  UNL1       -0.2230
     16  C         26.1130  -24.2240  -14.3270 C.2     1  UNL1        0.0360
     17  C         27.0890  -25.3010  -14.6970 C.3     1  UNL1        0.0700
     18  C         25.8960  -23.1560  -15.1800 C.2     1  UNL1        0.0530
     19  C         24.9630  -22.2180  -14.7780 C.2     1  UNL1        0.0360
     20  C         24.6670  -21.0270  -15.6370 C.3     1  UNL1        0.0700
     21  N         24.3070  -22.3140  -13.6050 N.2     1  UNL1       -0.2230
     22  C         17.5250  -23.3190   -6.1700 C.2     1  UNL1        0.0040
     23  C         17.5210  -23.9800   -4.9370 C.2     1  UNL1        0.0140
     24  C         16.3500  -24.0230   -4.1750 C.2     1  UNL1        0.0010
     25  C         15.1900  -23.4090   -4.6430 C.2     1  UNL1        0.0020
     26  C         15.1940  -22.7400   -5.8690 C.2     1  UNL1        0.0250
     27  C         16.3580  -22.6910   -6.6380 C.2     1  UNL1        0.0340
     28  N         16.3660  -21.9060   -7.8400 N.pl3   1  UNL1       -0.1800
     29  H         15.6570  -21.1550   -7.8260 H       1  UNL1        0.1460
     30  S         16.1240  -22.7670   -9.2900 S.O2    1  UNL1        0.2450
     31  O         16.1940  -24.1890   -9.0220 O.2     1  UNL1       -0.2060
     32  O         14.9730  -22.1810   -9.9440 O.2     1  UNL1       -0.2060
     33  C         17.5440  -22.2950  -10.2460 C.2     1  UNL1        0.0740
     34  C         18.5490  -23.2380  -10.4780 C.2     1  UNL1        0.0250
     35  C         19.6710  -22.8770  -11.2250 C.2     1  UNL1        0.0080
     36  C         19.7910  -21.5790  -11.7430 C.2     1  UNL1       -0.0620
     37  C         21.0200  -21.1890  -12.5110 C.3     1  UNL1        0.0480
     38  C         18.7840  -20.6390  -11.4830 C.2     1  UNL1        0.0080
     39  C         17.6590  -20.9930  -10.7380 C.2     1  UNL1        0.0250
@<TRIPOS>BOND
     1    20    19    1
     2    18    19    1
     3    18    16    2
     4    19    21    2
     5    17    16    1
     6    16    15    1
     7    21    14    1
     8    15    14    2
     9    14    12    1
    10    37    36    1
    11    36    38    2
    12    36    35    1
    13    12    13    1
    14    12     9    1
    15    38    39    1
    16    35    34    2
    17    39    33    2
    18    11     9    2
    19    34    33    1
    20     9    10    2
    21     9     6    1
    22    33    30    1
    23    32    30    2
    24    30    31    2
    25    30    28    1
    26     6     5    2
    27     6     7    1
    28     5     4    1
    29     7     8    2
    30     4     3    2
    31    28    29    1
    32    28    27    1
    33     8     3    1
    34     3     2    1
    35     1     2    2
    36     1    22    1
    37    27    22    2
    38    27    26    1
    39    22    23    1
    40    26    25    2
    41    23    24    2
    42    25    24    1
