@<TRIPOS>MOLECULE
15374_out_ligand_01.pdbqt
 38 42 0 0 0
SMALL
GASTEIGER

@<TRIPOS>ATOM
      1  C         21.2090  -22.7310  -10.4070 C.2     1  UNL1        0.0330
      2  C         20.5900  -22.0340  -11.4500 C.2     1  UNL1        0.0190
      3  C         21.3410  -21.6070  -12.5510 C.2     1  UNL1        0.0300
      4  C         22.7130  -21.8750  -12.6340 C.2     1  UNL1        0.0350
      5  C         23.3240  -22.5830  -11.5990 C.2     1  UNL1        0.0300
      6  C         22.5770  -23.0130  -10.4950 C.2     1  UNL1        0.0190
      7  C         20.4640  -23.2040   -9.2080 C.2     1  UNL1        0.2700
      8  O         20.9640  -23.1470   -8.0870 O.2     1  UNL1       -0.2660
      9  N         19.1810  -23.6730   -9.4230 N.am    1  UNL1       -0.2630
     10  H         18.6590  -23.4370  -10.2650 H       1  UNL1        0.1900
     11  N         18.3860  -23.9060   -8.2920 N.am    1  UNL1       -0.2630
     12  C         17.3230  -23.0500   -8.0790 C.2     1  UNL1        0.2710
     13  O         16.9770  -22.1970   -8.8920 O.2     1  UNL1       -0.2660
     14  H         18.8330  -24.4130   -7.5270 H       1  UNL1        0.1900
     15  C         16.6640  -23.1550   -6.7550 C.2     1  UNL1        0.0440
     16  C         15.4640  -23.8870   -6.7320 C.2     1  UNL1        0.0180
     17  C         14.7390  -24.0000   -5.5520 C.2     1  UNL1        0.0020
     18  C         15.2110  -23.3890   -4.3920 C.2     1  UNL1        0.0120
     19  C         16.4230  -22.6750   -4.3860 C.2     1  UNL1       -0.0250
     20  C         16.8820  -22.0880   -3.1960 C.2     1  UNL1        0.0120
     21  C         17.1860  -22.5570   -5.5760 C.2     1  UNL1       -0.0100
     22  C         18.0940  -21.4000   -3.1530 C.2     1  UNL1        0.0010
     23  C         18.8700  -21.2990   -4.2990 C.2     1  UNL1        0.0010
     24  C         18.4260  -21.8730   -5.4930 C.2     1  UNL1        0.0130
     25  N         23.3930  -21.4010  -13.7720 N.am    1  UNL1       -0.3230
     26  C         24.4050  -22.0340  -14.4710 C.2     1  UNL1        0.2570
     27  O         24.8700  -23.1470  -14.2760 O.2     1  UNL1       -0.2670
     28  H         23.1000  -20.4970  -14.1270 H       1  UNL1        0.1690
     29  C         24.9120  -21.2480  -15.6220 C.2     1  UNL1        0.0430
     30  C         24.5950  -21.7430  -16.8960 C.2     1  UNL1        0.0180
     31  C         24.9790  -21.0340  -18.0270 C.2     1  UNL1        0.0020
     32  C         25.6790  -19.8360  -17.8880 C.2     1  UNL1        0.0120
     33  C         26.0240  -19.3350  -16.6190 C.2     1  UNL1       -0.0250
     34  C         26.7460  -18.1360  -16.5050 C.2     1  UNL1        0.0120
     35  C         25.6520  -20.0480  -15.4540 C.2     1  UNL1       -0.0100
     36  C         27.1210  -17.6370  -15.2570 C.2     1  UNL1        0.0010
     37  C         26.7830  -18.3360  -14.1060 C.2     1  UNL1        0.0010
     38  C         26.0620  -19.5280  -14.2010 C.2     1  UNL1        0.0130
@<TRIPOS>BOND
     1    31    32    2
     2    31    30    1
     3    32    33    1
     4    30    29    2
     5    33    34    2
     6    33    35    1
     7    34    36    1
     8    29    35    1
     9    29    26    1
    10    35    38    2
    11    36    37    2
    12    26    27    2
    13    26    25   am
    14    38    37    1
    15    28    25    1
    16    25     4    1
    17     4     3    2
    18     4     5    1
    19     3     2    1
    20     5     6    2
    21     2     1    2
    22     6     1    1
    23     1     7    1
    24    10     9    1
    25     9     7   am
    26     9    11    1
    27     7     8    2
    28    13    12    2
    29    11    12   am
    30    11    14    1
    31    12    15    1
    32    15    16    2
    33    15    21    1
    34    16    17    1
    35    21    24    1
    36    21    19    2
    37    17    18    2
    38    24    23    2
    39    18    19    1
    40    19    20    1
    41    23    22    1
    42    20    22    2
