@<TRIPOS>MOLECULE
15377_out_ligand_01.pdbqt
 29 31 0 0 0
SMALL
GASTEIGER

@<TRIPOS>ATOM
      1  N         20.1980  -23.0420   -9.4370 N.am    1  UNL1       -0.3260
      2  C         20.2500  -22.7580   -8.0730 C.2     1  UNL1        0.2350
      3  O         21.1850  -22.1930   -7.5130 O.2     1  UNL1       -0.2720
      4  H         19.4270  -23.6260   -9.7430 H       1  UNL1        0.1690
      5  C         18.9750  -23.2320   -7.3310 C.3     1  UNL1        0.1440
      6  C         17.7080  -23.2580   -8.1810 C.2     1  UNL1       -0.0410
      7  C         17.4430  -22.2730   -9.1460 C.2     1  UNL1        0.0080
      8  C         16.2630  -22.3020   -9.8940 C.2     1  UNL1        0.0010
      9  C         15.3280  -23.3130   -9.6850 C.2     1  UNL1        0.0000
     10  C         15.5710  -24.2940   -8.7270 C.2     1  UNL1        0.0010
     11  C         16.7500  -24.2670   -7.9800 C.2     1  UNL1        0.0080
     12  C         18.7590  -22.5050   -6.0010 C.2     1  UNL1       -0.0410
     13  C         18.1030  -23.1640   -4.9470 C.2     1  UNL1        0.0080
     14  C         17.8980  -22.5200   -3.7250 C.2     1  UNL1        0.0010
     15  C         18.3370  -21.2100   -3.5430 C.2     1  UNL1        0.0000
     16  C         18.9750  -20.5400   -4.5850 C.2     1  UNL1        0.0010
     17  C         19.1810  -21.1810   -5.8080 C.2     1  UNL1        0.0080
     18  C         21.1450  -22.7040  -10.4240 C.2     1  UNL1        0.0340
     19  C         20.7310  -21.8130  -11.4260 C.2     1  UNL1        0.0310
     20  C         21.6050  -21.4210  -12.4440 C.2     1  UNL1        0.0270
     21  C         22.9060  -21.9250  -12.4590 C.2     1  UNL1        0.0740
     22  C         23.3410  -22.7960  -11.4600 C.2     1  UNL1        0.0270
     23  C         22.4570  -23.1870  -10.4480 C.2     1  UNL1        0.0310
     24  S         24.0350  -21.4380  -13.7350 S.O2    1  UNL1        0.2390
     25  O         24.2410  -22.5630  -14.6160 O.2     1  UNL1       -0.2060
     26  O         25.1280  -20.7110  -13.1290 O.2     1  UNL1       -0.2060
     27  N         23.1320  -20.2820  -14.5620 N.3     1  UNL1       -0.2250
     28  H         22.5410  -19.7190  -13.9540 H       1  UNL1        0.1360
     29  H         23.7650  -19.7070  -15.1230 H       1  UNL1        0.1360
@<TRIPOS>BOND
     1    29    27    1
     2    25    24    2
     3    27    28    1
     4    27    24    1
     5    24    26    2
     6    24    21    1
     7    21    20    2
     8    21    22    1
     9    20    19    1
    10    22    23    2
    11    19    18    2
    12    23    18    1
    13    18     1    1
    14     8     9    2
    15     8     7    1
    16     4     1    1
    17     9    10    1
    18     1     2   am
    19     7     6    2
    20    10    11    2
    21     6    11    1
    22     6     5    1
    23     2     3    2
    24     2     5    1
    25     5    12    1
    26    12    17    2
    27    12    13    1
    28    17    16    1
    29    13    14    2
    30    16    15    2
    31    14    15    1
