@<TRIPOS>MOLECULE
15394_out_ligand_01.pdbqt
 36 40 0 0 0
SMALL
GASTEIGER

@<TRIPOS>ATOM
      1  C         18.5330  -20.8880  -11.0570 C.ar    1  UNL1        0.1960
      2  N         17.3270  -20.4450  -11.3200 N.ar    1  UNL1       -0.1220
      3  N         16.4380  -21.2840  -10.7150 N.ar    1  UNL1       -0.1320
      4  C         17.1140  -22.2280  -10.0840 C.ar    1  UNL1        0.1480
      5  N         18.4800  -21.9980  -10.2280 N.ar    1  UNL1       -0.2740
      6  C         16.4720  -23.2980   -9.2600 C.3     1  UNL1        0.1730
      7  N         17.1950  -23.6390   -8.0400 N.pl3   1  UNL1       -0.2850
      8  H         18.1430  -23.2690   -8.0470 H       1  UNL1        0.1280
      9  C         16.6220  -23.4510   -6.7680 C.2     1  UNL1        0.0190
     10  C         15.4380  -24.0960   -6.3780 C.2     1  UNL1        0.0240
     11  C         14.8880  -23.8940   -5.1130 C.2     1  UNL1        0.0030
     12  C         15.5200  -23.0560   -4.2020 C.2     1  UNL1        0.0120
     13  C         16.7250  -22.4230   -4.5340 C.2     1  UNL1       -0.0240
     14  C         17.3660  -21.5980   -3.5940 C.2     1  UNL1        0.0120
     15  C         17.2980  -22.6260   -5.8150 C.2     1  UNL1       -0.0050
     16  C         18.5790  -20.9810   -3.8910 C.2     1  UNL1        0.0010
     17  C         19.1700  -21.1860   -5.1290 C.2     1  UNL1        0.0010
     18  C         18.5410  -21.9990   -6.0750 C.2     1  UNL1        0.0140
     19  C         19.5660  -22.7040   -9.6450 C.2     1  UNL1        0.0430
     20  C         20.5020  -22.0170   -8.8580 C.2     1  UNL1        0.0300
     21  C         21.5690  -22.7040   -8.2750 C.2     1  UNL1        0.0020
     22  C         21.7080  -24.0750   -8.4740 C.2     1  UNL1        0.0000
     23  C         20.7820  -24.7620   -9.2570 C.2     1  UNL1        0.0020
     24  C         19.7130  -24.0810   -9.8430 C.2     1  UNL1        0.0300
     25  S         19.9330  -20.2600  -11.8720 S.3     1  UNL1       -0.0800
     26  C         20.6640  -21.7630  -12.5800 C.3     1  UNL1        0.1850
     27  C         22.1710  -21.6930  -12.7920 C.2     1  UNL1        0.2310
     28  O         22.6210  -21.0440  -13.7350 O.2     1  UNL1       -0.2720
     29  N         22.9080  -22.4340  -11.8890 N.am    1  UNL1       -0.3270
     30  H         22.4140  -22.7360  -11.0540 H       1  UNL1        0.1690
     31  C         24.3040  -22.6280  -11.8750 C.2     1  UNL1        0.0340
     32  C         25.0540  -21.8090  -11.0220 C.2     1  UNL1        0.0290
     33  C         26.4430  -21.9440  -10.9430 C.2     1  UNL1        0.0020
     34  C         27.0930  -22.9050  -11.7120 C.2     1  UNL1        0.0000
     35  C         26.3540  -23.7280  -12.5590 C.2     1  UNL1        0.0020
     36  C         24.9650  -23.5910  -12.6400 C.2     1  UNL1        0.0290
@<TRIPOS>BOND
     1    28    27    2
     2    27    26    1
     3    27    29   am
     4    36    35    1
     5    36    31    2
     6    26    25    1
     7    35    34    2
     8    29    31    1
     9    29    30    1
    10    31    32    1
    11    25     1    1
    12    34    33    1
    13     2     1   ar
    14     2     3   ar
    15     1     5   ar
    16    32    33    2
    17     3     4   ar
    18     5     4   ar
    19     5    19    1
    20     4     6    1
    21    24    19    2
    22    24    23    1
    23    19    20    1
    24     6     7    1
    25    23    22    2
    26    20    21    2
    27    22    21    1
    28     8     7    1
    29     7     9    1
    30     9    10    2
    31     9    15    1
    32    10    11    1
    33    18    15    1
    34    18    17    2
    35    15    13    2
    36    17    16    1
    37    11    12    2
    38    13    12    1
    39    13    14    1
    40    16    14    2
