@<TRIPOS>MOLECULE
15416_out_ligand_01.pdbqt
 33 36 0 0 0
SMALL
GASTEIGER

@<TRIPOS>ATOM
      1  C         20.7280  -21.4580  -11.8520 C.ar    1  UNL1        0.0620
      2  C         20.5450  -22.1620  -10.6720 C.ar    1  UNL1        0.1020
      3  S         21.9450  -23.0830  -10.2940 S.2     1  UNL1       -0.0620
      4  C         22.7690  -22.5420  -11.6780 C.ar    1  UNL1        0.1110
      5  N         24.0200  -22.9650  -11.9320 N.2     1  UNL1       -0.2450
      6  C         24.5850  -22.4880  -13.0680 C.2     1  UNL1        0.0420
      7  C         23.9400  -21.5970  -13.9320 C.2     1  UNL1       -0.0330
      8  C         22.6340  -21.1870  -13.6170 C.2     1  UNL1        0.0260
      9  C         22.0160  -21.6720  -12.4470 C.ar    1  UNL1        0.0280
     10  C         24.5800  -21.0570  -15.1800 C.3     1  UNL1        0.0400
     11  C         24.8180  -22.1260  -16.2480 C.3     1  UNL1        0.0050
     12  C         25.6310  -23.3400  -15.7950 C.3     1  UNL1        0.0010
     13  C         26.6170  -23.0190  -14.6790 C.3     1  UNL1        0.0060
     14  C         25.9920  -23.0080  -13.2800 C.3     1  UNL1        0.0600
     15  C         19.3670  -22.1650   -9.8010 C.2     1  UNL1        0.2650
     16  O         18.2980  -21.6790  -10.1650 O.2     1  UNL1       -0.2670
     17  N         19.5680  -22.7440   -8.5560 N.am    1  UNL1       -0.3220
     18  H         20.5060  -23.0880   -8.3900 H       1  UNL1        0.1690
     19  C         18.6460  -22.9090   -7.5050 C.2     1  UNL1        0.0350
     20  C         18.6160  -22.1170   -6.3530 C.2     1  UNL1        0.0310
     21  C         17.6640  -22.3480   -5.3540 C.2     1  UNL1        0.0270
     22  C         16.7400  -23.3830   -5.5050 C.2     1  UNL1        0.0740
     23  C         16.7460  -24.1740   -6.6540 C.2     1  UNL1        0.0270
     24  C         17.7000  -23.9350   -7.6470 C.2     1  UNL1        0.0310
     25  S         15.5280  -23.6770   -4.2460 S.O2    1  UNL1        0.2390
     26  O         14.3170  -24.1510   -4.8740 O.2     1  UNL1       -0.2060
     27  O         16.1630  -24.3740   -3.1530 O.2     1  UNL1       -0.2060
     28  N         15.1920  -22.1080   -3.7330 N.3     1  UNL1       -0.2250
     29  H         14.6480  -21.6350   -4.4570 H       1  UNL1        0.1360
     30  H         16.0250  -21.5800   -3.4770 H       1  UNL1        0.1360
     31  N         19.7840  -20.6550  -12.3940 N.pl3   1  UNL1       -0.3970
     32  H         19.4410  -20.8400  -13.3420 H       1  UNL1        0.1560
     33  H         19.1390  -20.1110  -11.8310 H       1  UNL1        0.1560
@<TRIPOS>BOND
     1    11    12    1
     2    11    10    1
     3    12    13    1
     4    10     7    1
     5    13    14    1
     6     7     8    2
     7     7     6    1
     8     8     9    1
     9    32    31    1
    10    14     6    1
    11     6     5    2
    12     9     1   ar
    13     9     4   ar
    14    31     1    1
    15    31    33    1
    16     5     4    1
    17     1     2   ar
    18     4     3   ar
    19     2     3   ar
    20     2    15    1
    21    16    15    2
    22    15    17   am
    23    17    18    1
    24    17    19    1
    25    24    19    2
    26    24    23    1
    27    19    20    1
    28    23    22    2
    29    20    21    2
    30    22    21    1
    31    22    25    1
    32    26    25    2
    33    29    28    1
    34    25    28    1
    35    25    27    2
    36    28    30    1
