@<TRIPOS>MOLECULE
15445_out_ligand_01.pdbqt
 34 36 0 0 0
SMALL
GASTEIGER

@<TRIPOS>ATOM
      1  C         20.8910  -22.8230   -8.8880 C.2     1  UNL1        0.0500
      2  C         21.9470  -22.2130   -8.1970 C.2     1  UNL1        0.0210
      3  C         23.0760  -21.8200   -8.9090 C.2     1  UNL1        0.0380
      4  C         23.0820  -22.0170  -10.2850 C.2     1  UNL1        0.1240
      5  N         22.0540  -22.5690  -10.9920 N.2     1  UNL1       -0.2540
      6  C         20.9890  -22.9770  -10.2680 C.2     1  UNL1        0.1340
      7  C         19.6980  -23.2830   -8.1540 C.2     1  UNL1        0.2570
      8  O         19.5290  -24.4920   -8.0350 O.2     1  UNL1       -0.2670
      9  N         18.8880  -22.2650   -7.7040 N.am    1  UNL1       -0.3220
     10  H         19.1190  -21.3280   -8.0330 H       1  UNL1        0.1690
     11  C         17.7000  -22.3810   -6.9290 C.2     1  UNL1        0.0500
     12  C         17.7280  -22.3710   -5.5290 C.2     1  UNL1        0.0300
     13  C         16.5470  -22.4390   -4.7820 C.2     1  UNL1        0.0020
     14  C         15.3110  -22.5340   -5.4190 C.2     1  UNL1        0.0010
     15  C         15.2610  -22.5560   -6.8080 C.2     1  UNL1        0.0180
     16  C         16.4450  -22.4730   -7.5790 C.2     1  UNL1        0.0740
     17  C         16.3240  -22.5520   -9.0800 C.3     1  UNL1        0.4190
     18  F         16.9000  -23.6780   -9.5960 F       1  UNL1       -0.1660
     19  F         15.0280  -22.5890   -9.4910 F       1  UNL1       -0.1660
     20  F         16.8990  -21.5090   -9.7370 F       1  UNL1       -0.1660
     21  C         24.2390  -21.5440  -11.0920 C.2     1  UNL1        0.2740
     22  O         25.1640  -20.9730  -10.5170 O.2     1  UNL1       -0.2660
     23  N         24.0970  -21.8070  -12.4430 N.am    1  UNL1       -0.3210
     24  H         23.2290  -22.2540  -12.6960 H       1  UNL1        0.1690
     25  C         25.0230  -21.5410  -13.4780 C.2     1  UNL1        0.0500
     26  C         25.1010  -20.2780  -14.0910 C.2     1  UNL1        0.0300
     27  C         26.0300  -20.0190  -15.1000 C.2     1  UNL1        0.0020
     28  C         26.8930  -21.0240  -15.5260 C.2     1  UNL1        0.0010
     29  C         26.8370  -22.2810  -14.9260 C.2     1  UNL1        0.0180
     30  C         25.9120  -22.5550  -13.8940 C.2     1  UNL1        0.0740
     31  C         25.9360  -23.9490  -13.3120 C.3     1  UNL1        0.4190
     32  F         26.8110  -24.7720  -13.9730 F       1  UNL1       -0.1660
     33  F         26.3240  -23.9970  -11.9980 F       1  UNL1       -0.1660
     34  F         24.7160  -24.5710  -13.3540 F       1  UNL1       -0.1660
@<TRIPOS>BOND
     1    28    27    2
     2    28    29    1
     3    27    26    1
     4    29    30    2
     5    26    25    2
     6    32    31    1
     7    30    25    1
     8    30    31    1
     9    25    23    1
    10    34    31    1
    11    31    33    1
    12    24    23    1
    13    23    21   am
    14    21    22    2
    15    21     4    1
    16     5     4    2
    17     5     6    1
    18     4     3    1
    19     6     1    2
    20    20    17    1
    21    18    17    1
    22    19    17    1
    23    17    16    1
    24     3     2    2
    25     1     2    1
    26     1     7    1
    27     7     8    2
    28     7     9   am
    29    10     9    1
    30     9    11    1
    31    16    11    2
    32    16    15    1
    33    11    12    1
    34    15    14    2
    35    12    13    2
    36    14    13    1
