@<TRIPOS>MOLECULE
1548_out_ligand_01.pdbqt
 35 38 0 0 0
SMALL
GASTEIGER

@<TRIPOS>ATOM
      1  C         20.0410  -23.2640   -8.4490 C.2     1  UNL1        0.2580
      2  O         21.0520  -23.9400   -8.2660 O.2     1  UNL1       -0.2670
      3  N         19.7520  -22.5150   -9.5830 N.am    1  UNL1       -0.3090
      4  C         20.6460  -22.3000  -10.6570 C.2     1  UNL1        0.0440
      5  C         21.9260  -22.7970  -10.8460 C.2     1  UNL1        0.0390
      6  C         22.6520  -22.4140  -11.9900 C.2     1  UNL1       -0.0380
      7  C         22.0710  -21.5120  -12.9070 C.2     1  UNL1        0.0090
      8  C         20.7800  -21.0190  -12.7130 C.2     1  UNL1        0.0100
      9  C         20.0820  -21.4240  -11.5870 C.2     1  UNL1       -0.0290
     10  C         18.7400  -20.9460  -11.1350 C.3     1  UNL1        0.0660
     11  C         18.4470  -21.8930   -9.9500 C.3     1  UNL1        0.0930
     12  C         17.4160  -22.9550  -10.3440 C.3     1  UNL1        0.0330
     13  C         24.0670  -22.9090  -12.1730 C.3     1  UNL1        0.1610
     14  N         24.6060  -22.5630  -13.4760 N.am    1  UNL1       -0.3530
     15  C         25.9290  -22.2290  -13.6450 C.2     1  UNL1        0.2520
     16  O         26.7470  -22.1650  -12.7350 O.2     1  UNL1       -0.2680
     17  H         23.9370  -22.4570  -14.2290 H       1  UNL1        0.1630
     18  C         26.3460  -21.8630  -15.0250 C.2     1  UNL1        0.0470
     19  C         26.6620  -22.9300  -15.8800 C.2     1  UNL1        0.0180
     20  C         27.0530  -22.6910  -17.1970 C.2     1  UNL1        0.0010
     21  C         27.1210  -21.3850  -17.6730 C.2     1  UNL1        0.0010
     22  C         26.7960  -20.3220  -16.8310 C.2     1  UNL1        0.0170
     23  C         26.3930  -20.5420  -15.4990 C.2     1  UNL1        0.0630
     24  C         26.0150  -19.3730  -14.6330 C.3     1  UNL1        0.4180
     25  F         25.9490  -18.1940  -15.3190 F       1  UNL1       -0.1660
     26  F         26.9300  -19.1600  -13.6420 F       1  UNL1       -0.1660
     27  F         24.8080  -19.5090  -14.0230 F       1  UNL1       -0.1660
     28  C         19.0580  -23.2570   -7.3440 C.2     1  UNL1        0.0320
     29  C         18.1390  -24.2950   -7.2040 C.2     1  UNL1        0.0200
     30  C         17.2260  -24.2670   -6.1490 C.2     1  UNL1        0.0380
     31  C         17.2030  -23.1950   -5.2540 C.2     1  UNL1        0.0680
     32  C         18.1000  -22.1390   -5.4230 C.2     1  UNL1        0.0380
     33  C         19.0240  -22.1640   -6.4730 C.2     1  UNL1        0.0200
     34  O         16.2700  -23.3030   -4.2620 O.2     1  UNL1       -0.3560
     35  C         15.1950  -22.3720   -4.2760 C.3     1  UNL1        0.2100
@<TRIPOS>BOND
     1    21    20    2
     2    21    22    1
     3    20    19    1
     4    22    23    2
     5    19    18    2
     6    23    18    1
     7    23    24    1
     8    25    24    1
     9    18    15    1
    10    24    27    1
    11    24    26    1
    12    17    14    1
    13    15    14   am
    14    15    16    2
    15    14    13    1
    16     7     8    2
    17     7     6    1
    18     8     9    1
    19    13     6    1
    20     6     5    2
    21     9    10    1
    22     9     4    2
    23    10    11    1
    24     5     4    1
    25     4     3    1
    26    12    11    1
    27    11     3    1
    28     3     1   am
    29     1     2    2
    30     1    28    1
    31    28    29    2
    32    28    33    1
    33    29    30    1
    34    33    32    2
    35    30    31    2
    36    32    31    1
    37    31    34    1
    38    35    34    1
