@<TRIPOS>MOLECULE
154_out_ligand_01.pdbqt
 28 30 0 0 0
SMALL
GASTEIGER

@<TRIPOS>ATOM
      1  N         22.1100  -22.6720  -10.1080 N.am    1  UNL1       -0.3230
      2  C         22.0210  -22.2830   -8.7830 C.2     1  UNL1        0.2560
      3  O         22.8920  -21.7300   -8.1220 O.2     1  UNL1       -0.2670
      4  H         21.2540  -22.9800  -10.5520 H       1  UNL1        0.1690
      5  C         23.2460  -22.6080  -10.9410 C.2     1  UNL1        0.0360
      6  C         24.4840  -23.1720  -10.6180 C.2     1  UNL1        0.0290
      7  C         25.5640  -23.0880  -11.5040 C.2     1  UNL1        0.0040
      8  C         25.4210  -22.4320  -12.7220 C.2     1  UNL1        0.0250
      9  C         24.1910  -21.8570  -13.0420 C.2     1  UNL1        0.0760
     10  C         23.1020  -21.9510  -12.1690 C.2     1  UNL1        0.0540
     11  S         24.0080  -21.0180  -14.5910 S.O2    1  UNL1        0.2390
     12  O         25.0680  -20.0470  -14.7130 O.2     1  UNL1       -0.2060
     13  O         23.7290  -22.0010  -15.6140 O.2     1  UNL1       -0.2060
     14  N         22.5600  -20.1900  -14.3590 N.3     1  UNL1       -0.2250
     15  H         22.6330  -19.6240  -13.5120 H       1  UNL1        0.1360
     16  H         22.2740  -19.6360  -15.1650 H       1  UNL1        0.1360
     17  C         20.6990  -22.5330   -8.1380 C.2     1  UNL1        0.0320
     18  C         20.3230  -21.7420   -7.0520 C.2     1  UNL1        0.0190
     19  C         19.0890  -21.9450   -6.4210 C.2     1  UNL1        0.0310
     20  C         18.2040  -22.9460   -6.8540 C.2     1  UNL1        0.0370
     21  C         18.6080  -23.7450   -7.9320 C.2     1  UNL1        0.0310
     22  C         19.8430  -23.5490   -8.5680 C.2     1  UNL1        0.0190
     23  N         16.9540  -23.1390   -6.2060 N.am    1  UNL1       -0.3180
     24  C         15.6990  -22.7240   -6.7880 C.3     1  UNL1        0.1330
     25  C         14.7210  -22.7620   -5.6340 C.3     1  UNL1        0.0290
     26  C         15.2440  -23.8910   -4.7690 C.3     1  UNL1        0.1050
     27  C         16.7340  -23.8510   -5.0160 C.2     1  UNL1        0.2240
     28  O         17.5400  -24.4130   -4.2890 O.2     1  UNL1       -0.2730
@<TRIPOS>BOND
     1    13    11    2
     2    16    14    1
     3    12    11    2
     4    11    14    1
     5    11     9    1
     6    14    15    1
     7     9     8    2
     8     9    10    1
     9     8     7    1
    10    10     5    2
    11     7     6    2
    12     5     6    1
    13     5     1    1
    14     4     1    1
    15     1     2   am
    16     2    17    1
    17     2     3    2
    18    22    17    2
    19    22    21    1
    20    17    18    1
    21    21    20    2
    22    18    19    2
    23    20    19    1
    24    20    23    1
    25    24    23    1
    26    24    25    1
    27    23    27   am
    28    25    26    1
    29    27    26    1
    30    27    28    2
