@<TRIPOS>MOLECULE
1550_out_ligand_01.pdbqt
 32 34 0 0 0
SMALL
GASTEIGER

@<TRIPOS>ATOM
      1  C         18.0140  -22.5940   -9.6190 C.2     1  UNL1        0.1180
      2  C         19.3830  -22.4890   -9.8940 C.2     1  UNL1        0.0450
      3  C         19.8230  -21.6510  -10.9290 C.2     1  UNL1        0.0340
      4  C         18.8930  -20.8940  -11.6550 C.2     1  UNL1        0.0200
      5  C         17.5320  -20.9990  -11.3640 C.2     1  UNL1        0.0450
      6  C         17.0960  -21.8490  -10.3480 C.2     1  UNL1        0.1390
      7  F         15.7800  -21.9300  -10.1210 F       1  UNL1       -0.2040
      8  S         17.4630  -23.6330   -8.3040 S.O2    1  UNL1        0.2620
      9  O         16.2220  -24.2440   -8.7260 O.2     1  UNL1       -0.2000
     10  O         18.5610  -24.4360   -7.8190 O.2     1  UNL1       -0.2000
     11  N         17.0260  -22.5190   -7.1300 N.3     1  UNL1       -0.3100
     12  H         16.5560  -21.7010   -7.5200 H       1  UNL1        0.1720
     13  C         16.6580  -22.9690   -5.7810 C.3     1  UNL1        0.0970
     14  C         15.3920  -22.2420   -5.3140 C.3     1  UNL1        0.0260
     15  C         15.1930  -22.2960   -3.7970 C.3     1  UNL1        0.0020
     16  C         15.9740  -23.4340   -3.1540 C.3     1  UNL1        0.0050
     17  C         17.4910  -23.3110   -3.3980 C.3     1  UNL1       -0.0130
     18  C         17.8450  -22.7700   -4.8150 C.3     1  UNL1        0.0090
     19  C         18.1560  -24.6690   -3.1530 C.3     1  UNL1        0.0100
     20  C         18.3150  -21.3090   -4.7260 C.3     1  UNL1        0.0120
     21  C         21.2870  -21.5630  -11.1990 C.2     1  UNL1        0.2560
     22  O         22.0340  -21.3450  -10.2550 O.2     1  UNL1       -0.2670
     23  N         21.6540  -21.7810  -12.5150 N.am    1  UNL1       -0.3230
     24  H         20.9290  -22.0840  -13.1520 H       1  UNL1        0.1690
     25  C         22.9570  -21.7210  -13.0560 C.2     1  UNL1        0.0360
     26  C         23.1610  -20.8400  -14.1250 C.2     1  UNL1        0.0310
     27  C         24.4220  -20.7150  -14.7170 C.2     1  UNL1        0.0280
     28  C         25.4960  -21.4710  -14.2430 C.2     1  UNL1        0.0550
     29 CL         27.0260  -21.2670  -15.0200 Cl      1  UNL1       -0.0830
     30  C         25.3030  -22.3490  -13.1740 C.2     1  UNL1        0.0580
     31 CL         26.5880  -23.3120  -12.5310 Cl      1  UNL1       -0.0820
     32  C         24.0370  -22.4720  -12.5830 C.2     1  UNL1        0.0550
@<TRIPOS>BOND
     1    29    28    1
     2    27    28    2
     3    27    26    1
     4    28    30    1
     5    26    25    2
     6    30    32    2
     7    30    31    1
     8    24    23    1
     9    25    32    1
    10    25    23    1
    11    23    21   am
    12     4     5    2
    13     4     3    1
    14     5     6    1
    15    21     3    1
    16    21    22    2
    17     3     2    2
    18     6     7    1
    19     6     1    2
    20     2     1    1
    21     1     8    1
    22     9     8    2
    23     8    10    2
    24     8    11    1
    25    12    11    1
    26    11    13    1
    27    13    14    1
    28    13    18    1
    29    14    15    1
    30    18    20    1
    31    18    17    1
    32    15    16    1
    33    17    16    1
    34    17    19    1
