@<TRIPOS>MOLECULE
15571_out_ligand_01.pdbqt
 35 38 0 0 0
SMALL
GASTEIGER

@<TRIPOS>ATOM
      1  C         24.1740  -21.7050  -10.7370 C.ar    1  UNL1        0.1920
      2  N         25.4700  -21.5100  -10.7980 N.ar    1  UNL1       -0.1220
      3  N         25.8410  -21.5840  -12.1130 N.ar    1  UNL1       -0.1280
      4  C         24.7650  -21.8260  -12.8410 C.ar    1  UNL1        0.1660
      5  N         23.6810  -21.9420  -11.9900 N.ar    1  UNL1       -0.3070
      6  S         23.2210  -21.6920   -9.2980 S.3     1  UNL1       -0.0810
      7  C         22.9130  -23.4670   -9.0620 C.3     1  UNL1        0.1850
      8  C         21.5110  -23.7160   -8.5230 C.2     1  UNL1        0.2310
      9  O         20.9780  -24.8170   -8.6360 O.2     1  UNL1       -0.2720
     10  N         20.9520  -22.5990   -7.9240 N.am    1  UNL1       -0.3270
     11  H         21.4300  -21.7130   -8.0930 H       1  UNL1        0.1690
     12  C         19.7210  -22.5060   -7.2460 C.2     1  UNL1        0.0350
     13  C         19.6490  -21.5940   -6.1880 C.2     1  UNL1        0.0290
     14  C         18.4730  -21.4460   -5.4520 C.2     1  UNL1        0.0030
     15  C         17.3530  -22.2150   -5.7690 C.2     1  UNL1        0.0160
     16  C         17.4070  -23.1420   -6.8190 C.2     1  UNL1        0.0500
     17  C         18.5970  -23.2760   -7.5570 C.2     1  UNL1        0.0450
     18  C         16.1910  -23.9560   -7.1820 C.3     1  UNL1        0.4170
     19  F         16.4590  -25.2780   -7.3730 F       1  UNL1       -0.1660
     20  F         15.6020  -23.5230   -8.3290 F       1  UNL1       -0.1660
     21  F         15.2170  -23.9130   -6.2280 F       1  UNL1       -0.1660
     22  C         22.3320  -22.3280  -12.3530 C.3     1  UNL1        0.1370
     23  C         21.4030  -21.1190  -12.4600 C.3     1  UNL1        0.0590
     24  C         20.0570  -21.4140  -11.8470 C.2     1  UNL1       -0.0570
     25  C         19.8140  -22.6560  -11.2430 C.2     1  UNL1        0.0070
     26  C         18.5590  -22.9460  -10.7050 C.2     1  UNL1        0.0010
     27  C         17.5370  -22.0000  -10.7690 C.2     1  UNL1        0.0000
     28  C         17.7710  -20.7620  -11.3690 C.2     1  UNL1        0.0010
     29  C         19.0250  -20.4690  -11.9070 C.2     1  UNL1        0.0070
     30  C         24.7480  -21.9960  -14.2850 C.2     1  UNL1        0.0290
     31  C         25.0400  -23.2180  -14.8960 C.2     1  UNL1        0.0180
     32  C         25.0160  -23.3190  -16.2860 C.2     1  UNL1        0.0200
     33  C         24.6890  -22.1910  -17.0210 C.2     1  UNL1        0.1160
     34  N         24.3880  -20.9980  -16.4660 N.2     1  UNL1       -0.2720
     35  C         24.4070  -20.9320  -15.1140 C.2     1  UNL1        0.1310
@<TRIPOS>BOND
     1    33    34    2
     2    33    32    1
     3    34    35    1
     4    32    31    2
     5    35    30    2
     6    31    30    1
     7    30     4    1
     8     4     3   ar
     9     4     5   ar
    10    23    22    1
    11    23    24    1
    12    22     5    1
    13     3     2   ar
    14     5     1   ar
    15    29    24    2
    16    29    28    1
    17    24    25    1
    18    28    27    2
    19    25    26    2
    20     2     1   ar
    21    27    26    1
    22     1     6    1
    23     6     7    1
    24     7     8    1
    25     9     8    2
    26     8    10   am
    27    20    18    1
    28    11    10    1
    29    10    12    1
    30    17    12    2
    31    17    16    1
    32    19    18    1
    33    12    13    1
    34    18    16    1
    35    18    21    1
    36    16    15    2
    37    13    14    2
    38    15    14    1
