@<TRIPOS>MOLECULE
1558_out_ligand_01.pdbqt
 27 29 0 0 0
SMALL
GASTEIGER

@<TRIPOS>ATOM
      1  C         21.0170  -24.1170   -8.6750 C.2     1  UNL1        0.2260
      2  O         20.6160  -25.2750   -8.7630 O.2     1  UNL1       -0.2730
      3  N         20.4040  -23.0930   -7.9700 N.am    1  UNL1       -0.3270
      4  H         20.9060  -22.2130   -7.9270 H       1  UNL1        0.1690
      5  C         19.2130  -23.1580   -7.2200 C.2     1  UNL1        0.0340
      6  C         18.9840  -22.1250   -6.2990 C.2     1  UNL1        0.0310
      7  C         17.8290  -22.1090   -5.5120 C.2     1  UNL1        0.0270
      8  C         16.8960  -23.1370   -5.6460 C.2     1  UNL1        0.0740
      9  C         17.0990  -24.1620   -6.5710 C.2     1  UNL1        0.0270
     10  C         18.2600  -24.1710   -7.3520 C.2     1  UNL1        0.0310
     11  S         15.4220  -23.1370   -4.6610 S.O2    1  UNL1        0.2390
     12  O         14.3950  -22.4120   -5.3730 O.2     1  UNL1       -0.2060
     13  O         15.2200  -24.4680   -4.1430 O.2     1  UNL1       -0.2060
     14  N         15.8710  -22.1380   -3.3820 N.3     1  UNL1       -0.2250
     15  H         15.7650  -21.1640   -3.6700 H       1  UNL1        0.1360
     16  H         16.8070  -22.3320   -3.0250 H       1  UNL1        0.1360
     17  C         22.2730  -23.6800   -9.4190 C.3     1  UNL1        0.1440
     18  C         21.9840  -22.8480  -10.6250 C.2     1  UNL1       -0.0140
     19  C         20.7980  -22.2080  -10.9240 C.2     1  UNL1        0.1510
     20  O         20.8930  -21.5250  -12.0920 O.2     1  UNL1       -0.3210
     21  C         22.1480  -21.7350  -12.5740 C.2     1  UNL1        0.0850
     22  C         22.6550  -21.2090  -13.7590 C.2     1  UNL1        0.0390
     23  C         22.8660  -22.5520  -11.7110 C.2     1  UNL1        0.0070
     24  C         23.9770  -21.5450  -14.0760 C.2     1  UNL1        0.0090
     25  C         24.7420  -22.3770  -13.2460 C.2     1  UNL1       -0.0610
     26  C         26.1680  -22.6910  -13.6010 C.3     1  UNL1        0.0480
     27  C         24.1950  -22.8760  -12.0480 C.2     1  UNL1        0.0210
@<TRIPOS>BOND
     1    24    22    1
     2    24    25    2
     3    22    21    2
     4    26    25    1
     5    25    27    1
     6    21    20    1
     7    21    23    1
     8    20    19    1
     9    27    23    2
    10    23    18    1
    11    19    18    2
    12    18    17    1
    13    17     1    1
    14     2     1    2
    15     1     3   am
    16     3     4    1
    17     3     5    1
    18    10     5    2
    19    10     9    1
    20     5     6    1
    21     9     8    2
    22     6     7    2
    23     8     7    1
    24     8    11    1
    25    12    11    2
    26    11    13    2
    27    11    14    1
    28    15    14    1
    29    14    16    1
