@<TRIPOS>MOLECULE
15619_out_ligand_01.pdbqt
 36 40 0 0 0
SMALL
GASTEIGER

@<TRIPOS>ATOM
      1  N         20.8580  -23.5440   -9.4830 N.pl3   1  UNL1       -0.3530
      2  C         22.1990  -23.2520   -9.4340 C.2     1  UNL1        0.1030
      3  C         22.4270  -22.1880  -10.2740 C.2     1  UNL1       -0.0070
      4  C         21.1780  -21.7940  -10.8360 C.2     1  UNL1        0.0020
      5  C         20.7740  -20.7720  -11.7220 C.2     1  UNL1        0.0140
      6  C         19.4260  -20.6480  -12.0720 C.2     1  UNL1        0.0010
      7  C         18.4800  -21.5240  -11.5540 C.2     1  UNL1        0.0020
      8  C         18.8510  -22.5440  -10.6730 C.2     1  UNL1        0.0300
      9  C         20.2060  -22.6620  -10.3240 C.2     1  UNL1        0.0450
     10  C         23.7000  -21.5750  -10.4510 C.3     1  UNL1        0.0340
     11  C         24.4960  -21.5990  -11.5390 C.ar    1  UNL1        0.0820
     12  C         24.2210  -22.3490  -12.8100 C.ar    1  UNL1        0.1620
     13  C         25.7630  -20.7710  -11.4660 C.ar    1  UNL1        0.2830
     14  N         23.2700  -23.2280  -12.9330 N.pl3   1  UNL1       -0.2810
     15  N         25.0740  -22.0630  -13.8580 N.ar    1  UNL1       -0.1890
     16  H         23.3140  -23.5760  -13.9010 H       1  UNL1        0.1880
     17  N         24.9240  -22.6250  -15.1170 N.ar    1  UNL1       -0.1610
     18  C         26.1260  -21.1990  -13.6880 C.ar    1  UNL1        0.2010
     19  C         25.8560  -22.1520  -15.8920 C.ar    1  UNL1        0.1020
     20  S         27.0010  -21.0180  -15.1910 S.2     1  UNL1       -0.0330
     21  N         26.4890  -20.5790  -12.6250 N.ar    1  UNL1       -0.1820
     22  O         26.1270  -20.2740  -10.4040 O.2     1  UNL1       -0.2650
     23  C         26.0200  -22.5320  -17.3440 C.3     1  UNL1        0.0380
     24  C         24.6820  -23.0070  -17.9060 C.3     1  UNL1        0.0160
     25  C         26.5610  -21.3480  -18.1380 C.3     1  UNL1        0.0160
     26  C         20.2460  -24.6520   -8.7640 C.3     1  UNL1        0.1550
     27  C         19.4250  -24.1940   -7.5590 C.3     1  UNL1        0.1960
     28  O         18.0210  -24.3350   -7.7680 O.2     1  UNL1       -0.3490
     29  C         17.1360  -23.8080   -6.8670 C.2     1  UNL1        0.0750
     30  C         16.0860  -23.0600   -7.4270 C.2     1  UNL1       -0.0290
     31  C         15.1180  -22.4880   -6.5900 C.2     1  UNL1        0.0100
     32  C         15.9870  -22.8690   -8.9170 C.3     1  UNL1        0.0510
     33  C         15.1930  -22.6520   -5.2070 C.2     1  UNL1        0.0070
     34  C         16.2440  -23.3790   -4.6390 C.2     1  UNL1       -0.0590
     35  C         16.3100  -23.5730   -3.1530 C.3     1  UNL1        0.0480
     36  C         17.2050  -23.9650   -5.4770 C.2     1  UNL1        0.0440
@<TRIPOS>BOND
     1    25    23    1
     2    24    23    1
     3    23    19    1
     4    19    20   ar
     5    19    17   ar
     6    20    18   ar
     7    17    15   ar
     8    16    14    1
     9    15    18   ar
    10    15    12   ar
    11    18    21   ar
    12    14    12    1
    13    12    11   ar
    14    21    13   ar
    15     6     5    1
    16     6     7    2
    17     5     4    2
    18     7     8    1
    19    11    13   ar
    20    11    10    1
    21    13    22    2
    22     4     9    1
    23     4     3    1
    24     8     9    2
    25    10     3    1
    26     9     1    1
    27     3     2    2
    28     1     2    1
    29     1    26    1
    30    32    30    1
    31    26    27    1
    32    28    27    1
    33    28    29    1
    34    30    29    2
    35    30    31    1
    36    29    36    1
    37    31    33    2
    38    36    34    2
    39    33    34    1
    40    34    35    1
