@<TRIPOS>MOLECULE
15632_out_ligand_01.pdbqt
 31 33 0 0 0
SMALL
GASTEIGER

@<TRIPOS>ATOM
      1  N         19.9660  -22.2310  -11.1520 N.am    1  UNL1       -0.3250
      2  C         18.8720  -21.4110  -11.3720 C.2     1  UNL1        0.2460
      3  O         18.8150  -20.4460  -12.1270 O.2     1  UNL1       -0.2710
      4  H         19.8000  -23.0070  -10.5180 H       1  UNL1        0.1690
      5  C         21.2390  -22.1570  -11.7450 C.2     1  UNL1        0.0340
      6  C         21.5350  -21.3750  -12.8620 C.2     1  UNL1        0.0310
      7  C         22.8300  -21.3540  -13.3920 C.2     1  UNL1        0.0270
      8  C         23.8320  -22.1310  -12.8090 C.2     1  UNL1        0.0800
      9  C         23.5550  -22.9050  -11.6810 C.2     1  UNL1        0.0270
     10  C         22.2590  -22.9190  -11.1560 C.2     1  UNL1        0.0310
     11  S         25.4840  -22.0730  -13.4520 S.O2    1  UNL1        0.2650
     12  O         26.2730  -23.1240  -12.8530 O.2     1  UNL1       -0.2000
     13  O         25.3820  -21.9550  -14.8930 O.2     1  UNL1       -0.2000
     14  N         26.0470  -20.5970  -12.9400 N.am    1  UNL1       -0.2510
     15  C         26.3530  -20.2610  -11.6180 C.2     1  UNL1        0.2270
     16  C         26.9350  -18.8850  -11.4570 C.3     1  UNL1        0.1180
     17  O         26.1500  -21.0010  -10.6670 O.2     1  UNL1       -0.2730
     18  H         26.1940  -19.9430  -13.7010 H       1  UNL1        0.1810
     19  C         17.6640  -21.8090  -10.5180 C.3     1  UNL1        0.2780
     20  O         17.9530  -22.7790   -9.5180 O.2     1  UNL1       -0.3410
     21  C         17.2930  -22.7180   -8.3160 C.2     1  UNL1        0.0870
     22  C         15.9130  -22.8380   -8.1720 C.2     1  UNL1        0.0390
     23  C         15.3300  -22.7720   -6.9050 C.2     1  UNL1        0.0150
     24  C         16.1050  -22.5890   -5.7530 C.2     1  UNL1       -0.0240
     25  C         15.4820  -22.5270   -4.4960 C.2     1  UNL1        0.0120
     26  C         17.5110  -22.4680   -5.8610 C.2     1  UNL1       -0.0060
     27  C         16.2250  -22.3470   -3.3320 C.2     1  UNL1        0.0010
     28  C         17.6050  -22.2280   -3.4120 C.2     1  UNL1        0.0010
     29  C         18.2390  -22.2870   -4.6560 C.2     1  UNL1        0.0140
     30  C         18.0880  -22.5400   -7.1620 C.2     1  UNL1        0.0550
     31 BR         19.9920  -22.4080   -7.3870 Br      1  UNL1       -0.0470
@<TRIPOS>BOND
     1    13    11    2
     2    18    14    1
     3    11    14    1
     4    11    12    2
     5    11     8    1
     6     7     6    1
     7     7     8    2
     8    14    15   am
     9     6     5    2
    10     8     9    1
    11     3     2    2
    12     5    10    1
    13     5     1    1
    14     9    10    2
    15    15    16    1
    16    15    17    2
    17     2     1   am
    18     2    19    1
    19     1     4    1
    20    19    20    1
    21    20    21    1
    22    21    22    2
    23    21    30    1
    24    22    23    1
    25    31    30    1
    26    30    26    2
    27    23    24    2
    28    26    24    1
    29    26    29    1
    30    24    25    1
    31    29    28    2
    32    25    27    2
    33    28    27    1
