@<TRIPOS>MOLECULE
15655_out_ligand_01.pdbqt
 37 41 0 0 0
SMALL
GASTEIGER

@<TRIPOS>ATOM
      1  C         21.7310  -22.1970   -9.4170 C.2     1  UNL1        0.1490
      2  C         21.4330  -22.5260   -8.0710 C.2     1  UNL1        0.0910
      3  C         20.0630  -22.5200   -7.9720 C.2     1  UNL1        0.1540
      4  N         19.2410  -22.7670   -6.9120 N.2     1  UNL1       -0.2290
      5  C         17.9580  -22.7020   -7.1340 C.2     1  UNL1        0.0710
      6  C         17.3530  -22.3430   -8.4560 C.2     1  UNL1        0.0690
      7  C         18.2120  -22.1050   -9.4670 C.2     1  UNL1        0.1460
      8  N         19.5800  -22.1960   -9.2400 N.pl3   1  UNL1       -0.2100
      9  N         20.5950  -22.0020  -10.1090 N.2     1  UNL1       -0.1600
     10  C         23.0540  -22.0630  -10.0750 C.2     1  UNL1        0.2760
     11  O         23.7690  -21.0790   -9.9070 O.2     1  UNL1       -0.2660
     12  N         23.4010  -23.1380  -10.8830 N.am    1  UNL1       -0.3190
     13  H         22.7800  -23.9280  -10.9630 H       1  UNL1        0.1690
     14  C         24.5850  -23.2240  -11.5910 C.2     1  UNL1        0.0710
     15  C         25.9360  -23.1570  -11.1820 C.2     1  UNL1        0.1690
     16  N         26.7860  -23.2840  -12.2060 N.2     1  UNL1       -0.1830
     17  N         25.9770  -23.4510  -13.2720 N.pl3   1  UNL1       -0.2750
     18  C         24.6480  -23.4040  -12.9530 C.2     1  UNL1        0.1430
     19  C         26.5540  -23.6150  -14.5990 C.3     1  UNL1        0.1900
     20  C         26.3260  -22.3900  -15.4530 C.2     1  UNL1       -0.0170
     21  C         27.1200  -21.2510  -15.2190 C.2     1  UNL1        0.0120
     22  C         26.9610  -20.0960  -15.9880 C.2     1  UNL1        0.0240
     23  C         26.0100  -20.0680  -17.0020 C.2     1  UNL1        0.0350
     24 CL         25.8120  -18.6460  -17.9500 Cl      1  UNL1       -0.0840
     25  C         25.2190  -21.1850  -17.2570 C.2     1  UNL1        0.0480
     26  C         25.3790  -22.3410  -16.4890 C.2     1  UNL1        0.0430
     27 CL         24.3690  -23.6910  -16.8690 Cl      1  UNL1       -0.0840
     28  C         17.7900  -21.7310  -10.8360 C.3     1  UNL1        0.4340
     29  F         16.4340  -21.5870  -10.9080 F       1  UNL1       -0.1650
     30  F         18.3060  -20.5460  -11.2440 F       1  UNL1       -0.1650
     31  F         18.1070  -22.6690  -11.7620 F       1  UNL1       -0.1650
     32  C         17.0120  -22.9710   -6.0130 C.2     1  UNL1       -0.0070
     33  C         15.6400  -22.8120   -6.2430 C.2     1  UNL1        0.0140
     34  C         14.7220  -23.0520   -5.2190 C.2     1  UNL1        0.0010
     35  C         15.1720  -23.4430   -3.9590 C.2     1  UNL1        0.0000
     36  C         16.5370  -23.5850   -3.7170 C.2     1  UNL1        0.0010
     37  C         17.4600  -23.3460   -4.7390 C.2     1  UNL1        0.0140
@<TRIPOS>BOND
     1    24    23    1
     2    25    23    2
     3    25    26    1
     4    23    22    1
     5    27    26    1
     6    26    20    2
     7    22    21    2
     8    20    21    1
     9    20    19    1
    10    19    17    1
    11    17    18    1
    12    17    16    1
    13    18    14    2
    14    16    15    2
    15    31    28    1
    16    14    15    1
    17    14    12    1
    18    30    28    1
    19    13    12    1
    20    29    28    1
    21    12    10   am
    22    28     7    1
    23     9     1    2
    24     9     8    1
    25    10    11    2
    26    10     1    1
    27     7     8    1
    28     7     6    2
    29     1     2    1
    30     8     3    1
    31     6     5    1
    32     2     3    2
    33     3     4    1
    34     5     4    2
    35     5    32    1
    36    33    32    2
    37    33    34    1
    38    32    37    1
    39    34    35    2
    40    37    36    2
    41    35    36    1
