@<TRIPOS>MOLECULE
15651_out_ligand_01.pdbqt
 33 38 0 0 0
SMALL
GASTEIGER

@<TRIPOS>ATOM
      1  S         19.9570  -23.5340   -9.0220 S.O2    1  UNL1        0.2460
      2  O         19.0630  -23.2830  -10.1290 O.2     1  UNL1       -0.2060
      3  O         20.4510  -24.8630   -8.7260 O.2     1  UNL1       -0.2060
      4  N         21.3280  -22.5230   -9.1270 N.pl3   1  UNL1       -0.1810
      5  H         22.1070  -22.9990   -8.6670 H       1  UNL1        0.1460
      6  C         21.6740  -22.1380  -10.4660 C.2     1  UNL1        0.0230
      7  C         20.7720  -21.3860  -11.2240 C.2     1  UNL1        0.0270
      8  C         21.0610  -21.0200  -12.5440 C.2     1  UNL1        0.0400
      9  C         22.2840  -21.4480  -13.0540 C.ar    1  UNL1        0.0870
     10  O         22.7450  -21.1970  -14.3150 O.2     1  UNL1       -0.3130
     11  C         23.2080  -22.2040  -12.3330 C.ar    1  UNL1        0.0160
     12  C         23.9560  -21.7950  -14.3950 C.ar    1  UNL1        0.0680
     13  C         24.7390  -21.7330  -15.6480 C.3     1  UNL1        0.0660
     14  C         24.2950  -22.4180  -13.2160 C.ar    1  UNL1        0.0520
     15  C         25.7430  -22.9010  -15.6360 C.3     1  UNL1        0.0140
     16  C         26.4940  -23.0290  -14.2970 C.3     1  UNL1        0.0840
     17  C         25.5580  -23.1130  -13.0870 C.2     1  UNL1        0.1630
     18  O         25.8940  -23.6770  -12.0500 O.2     1  UNL1       -0.2920
     19  C         22.8950  -22.5660  -11.0090 C.2     1  UNL1        0.0390
     20  C         19.1800  -22.9050   -7.5500 C.2     1  UNL1        0.0860
     21  C         19.8650  -21.9190   -6.7900 C.2     1  UNL1        0.0280
     22  C         19.3020  -21.3790   -5.6230 C.2     1  UNL1        0.0320
     23  C         18.0630  -21.8470   -5.2490 C.2     1  UNL1        0.0470
     24  C         17.4140  -22.8020   -5.9880 C.2     1  UNL1        0.0180
     25  N         17.2690  -21.5030   -4.1600 N.am    1  UNL1       -0.3220
     26  C         16.2080  -23.0920   -5.4020 C.2     1  UNL1        0.0450
     27  C         17.9000  -23.3910   -7.1530 C.2     1  UNL1        0.0000
     28  C         15.3570  -24.0270   -5.9490 C.2     1  UNL1        0.0180
     29  C         16.0970  -22.2430   -4.1940 C.2     1  UNL1        0.2570
     30  C         15.7780  -24.6670   -7.1230 C.2     1  UNL1        0.0020
     31  C         17.0240  -24.3600   -7.7210 C.2     1  UNL1        0.0140
     32  O         15.1680  -22.2140   -3.4150 O.2     1  UNL1       -0.2670
     33  H         17.4870  -20.8310   -3.4400 H       1  UNL1        0.1690
@<TRIPOS>BOND
     1    13    15    1
     2    13    12    1
     3    15    16    1
     4    12    10   ar
     5    12    14   ar
     6    10     9   ar
     7    16    17    1
     8    14    17    1
     9    14    11   ar
    10    17    18    2
    11     9     8    2
    12     9    11   ar
    13     8     7    1
    14    11    19    2
    15     7     6    2
    16    19     6    1
    17     6     4    1
    18     2     1    2
    19     4     1    1
    20     4     5    1
    21     1     3    2
    22     1    20    1
    23    31    27    1
    24    31    30    2
    25    20    27    2
    26    20    21    1
    27    27    24    1
    28    30    28    1
    29    21    22    2
    30    24    26    1
    31    24    23    2
    32    28    26    2
    33    22    23    1
    34    26    29    1
    35    23    25    1
    36    29    25   am
    37    29    32    2
    38    25    33    1
