@<TRIPOS>MOLECULE
15682_out_ligand_01.pdbqt
 35 38 0 0 0
SMALL
GASTEIGER

@<TRIPOS>ATOM
      1  C         19.5970  -23.5760   -9.4390 C.3     1  UNL1        0.1180
      2  C         20.9600  -23.6070   -8.7360 C.3     1  UNL1        0.0660
      3  C         22.1040  -23.6680   -9.7670 C.3     1  UNL1        0.2210
      4  N         21.8580  -22.7490  -10.8660 N.pl3   1  UNL1       -0.2400
      5  N         22.7820  -22.5030  -11.8110 N.2     1  UNL1       -0.1650
      6  C         22.1510  -21.6720  -12.6720 C.2     1  UNL1        0.1480
      7  C         20.8000  -21.4600  -12.2850 C.2     1  UNL1        0.0890
      8  C         20.6330  -22.2010  -11.1460 C.2     1  UNL1        0.1230
      9  N         19.5630  -22.4350  -10.3540 N.pl3   1  UNL1       -0.3660
     10  H         18.6290  -22.1950  -10.6920 H       1  UNL1        0.1610
     11  C         22.8340  -21.1090  -13.8530 C.2     1  UNL1        0.2760
     12  O         22.3870  -20.1340  -14.4460 O.2     1  UNL1       -0.2660
     13  N         23.9830  -21.8130  -14.1590 N.am    1  UNL1       -0.3220
     14  H         24.1610  -22.5890  -13.5260 H       1  UNL1        0.1690
     15  C         24.8940  -21.5950  -15.2040 C.2     1  UNL1        0.0350
     16  C         25.3510  -22.5950  -16.0580 C.2     1  UNL1        0.0290
     17  C         26.2610  -22.2880  -17.0720 C.2     1  UNL1        0.0030
     18  C         26.7220  -20.9810  -17.2400 C.2     1  UNL1        0.0100
     19  C         26.2840  -19.9540  -16.3940 C.2     1  UNL1       -0.0280
     20  C         25.3610  -20.2860  -15.3810 C.2     1  UNL1        0.0390
     21  C         26.7150  -18.5080  -16.5430 C.3     1  UNL1        0.1470
     22  C         26.7820  -17.6840  -15.2600 C.3     1  UNL1        0.0440
     23  O         25.8100  -17.8580  -17.4380 O.3     1  UNL1       -0.3910
     24  H         26.3100  -17.6250  -18.2370 H       1  UNL1        0.2100
     25  C         23.4230  -23.3880   -9.0840 C.3     1  UNL1        0.4090
     26  F         24.4210  -23.0950   -9.9460 F       1  UNL1       -0.1690
     27  F         23.8280  -24.4930   -8.4010 F       1  UNL1       -0.1690
     28  F         23.3380  -22.3860   -8.1810 F       1  UNL1       -0.1690
     29  C         18.4580  -23.4780   -8.4450 C.2     1  UNL1       -0.0350
     30  C         18.4090  -24.2970   -7.3060 C.2     1  UNL1        0.0100
     31  C         17.3440  -24.2070   -6.4060 C.2     1  UNL1        0.0070
     32  C         16.3100  -23.2900   -6.6200 C.2     1  UNL1       -0.0620
     33  C         15.1500  -23.2170   -5.6720 C.3     1  UNL1        0.0480
     34  C         16.3450  -22.4830   -7.7620 C.2     1  UNL1        0.0070
     35  C         17.4100  -22.5730   -8.6630 C.2     1  UNL1        0.0100
@<TRIPOS>BOND
     1    24    23    1
     2    23    21    1
     3    18    17    2
     4    18    19    1
     5    17    16    1
     6    21    19    1
     7    21    22    1
     8    19    20    2
     9    16    15    2
    10    20    15    1
    11    15    13    1
    12    12    11    2
    13    13    11   am
    14    13    14    1
    15    11     6    1
    16     6     7    1
    17     6     5    2
    18     7     8    2
    19     5     4    1
    20     8     4    1
    21     8     9    1
    22     4     3    1
    23    10     9    1
    24     9     1    1
    25    26    25    1
    26     3    25    1
    27     3     2    1
    28     1     2    1
    29     1    29    1
    30    25    27    1
    31    25    28    1
    32    35    29    2
    33    35    34    1
    34    29    30    1
    35    34    32    2
    36    30    31    2
    37    32    31    1
    38    32    33    1
