@<TRIPOS>MOLECULE
1569_out_ligand_01.pdbqt
 34 37 0 0 0
SMALL
GASTEIGER

@<TRIPOS>ATOM
      1  C         16.8000  -22.0030  -10.5400 C.3     1  UNL1        0.0700
      2  C         18.2550  -21.9150  -10.8970 C.2     1  UNL1        0.0330
      3  C         18.6740  -21.0260  -11.8780 C.2     1  UNL1        0.0280
      4  C         20.0260  -20.9760  -12.1940 C.2     1  UNL1        0.0210
      5  C         20.9130  -21.8180  -11.5220 C.2     1  UNL1        0.0610
      6  C         22.3580  -21.7840  -11.8410 C.2     1  UNL1        0.2010
      7  O         22.7900  -20.9950  -12.6760 O.2     1  UNL1       -0.2860
      8  C         23.2430  -22.7300  -11.1260 C.2     1  UNL1        0.0810
      9  C         22.6730  -23.5570  -10.2340 C.2     1  UNL1        0.1130
     10  N         21.3340  -23.5620   -9.8880 N.pl3   1  UNL1       -0.3310
     11  C         20.4310  -22.7010  -10.5500 C.2     1  UNL1        0.1440
     12  N         19.1060  -22.7550  -10.2500 N.2     1  UNL1       -0.2350
     13  C         20.7840  -24.4240   -8.8270 C.3     1  UNL1        0.2330
     14  C         19.9470  -23.6380   -7.8110 C.2     1  UNL1        0.2400
     15  O         20.3900  -22.6100   -7.3050 O.2     1  UNL1       -0.2710
     16  N         18.6890  -24.1780   -7.6110 N.am    1  UNL1       -0.3260
     17  H         18.5000  -25.0360   -8.1310 H       1  UNL1        0.1690
     18  C         17.6560  -23.7030   -6.7840 C.2     1  UNL1        0.0350
     19  C         16.6350  -22.9740   -7.3980 C.2     1  UNL1        0.0300
     20  C         15.5730  -22.4610   -6.6480 C.2     1  UNL1        0.0090
     21  C         15.5080  -22.6730   -5.2650 C.2     1  UNL1       -0.0560
     22  C         14.3530  -22.1010   -4.4870 C.3     1  UNL1        0.0490
     23  C         16.5310  -23.4090   -4.6370 C.2     1  UNL1       -0.0540
     24  C         16.5180  -23.6610   -3.1530 C.3     1  UNL1        0.0490
     25  C         17.5970  -23.9160   -5.4070 C.2     1  UNL1        0.0370
     26  C         24.7020  -22.8460  -11.3550 C.2     1  UNL1        0.1970
     27  O         25.4790  -22.9510  -10.4080 O.2     1  UNL1       -0.2860
     28  C         25.2280  -22.8040  -12.7480 C.2     1  UNL1        0.0150
     29  C         24.9130  -23.7810  -13.7030 C.2     1  UNL1        0.0170
     30  C         25.3960  -23.6690  -15.0120 C.2     1  UNL1        0.0200
     31  C         26.1800  -22.5740  -15.3730 C.2     1  UNL1        0.0110
     32 BR         26.8160  -22.4210  -17.1450 Br      1  UNL1       -0.0510
     33  C         26.4870  -21.5880  -14.4370 C.2     1  UNL1        0.0200
     34  C         26.0070  -21.7000  -13.1290 C.2     1  UNL1        0.0170
@<TRIPOS>BOND
     1    32    31    1
     2    31    30    2
     3    31    33    1
     4    30    29    1
     5    33    34    2
     6    29    28    2
     7    34    28    1
     8    28    26    1
     9     7     6    2
    10     4     3    1
    11     4     5    2
    12     3     2    2
    13     6     5    1
    14     6     8    1
    15     5    11    1
    16    26     8    1
    17    26    27    2
    18     8     9    2
    19     2     1    1
    20     2    12    1
    21    11    12    2
    22    11    10    1
    23     9    10    1
    24    10    13    1
    25    13    14    1
    26    17    16    1
    27    14    16   am
    28    14    15    2
    29    16    18    1
    30    19    18    2
    31    19    20    1
    32    18    25    1
    33    20    21    2
    34    25    23    2
    35    21    23    1
    36    21    22    1
    37    23    24    1
