@<TRIPOS>MOLECULE
15717_out_ligand_01.pdbqt
 31 34 0 0 0
SMALL
GASTEIGER

@<TRIPOS>ATOM
      1  C         22.4850  -22.7610  -10.7030 C.2     1  UNL1        0.2580
      2  O         22.7140  -23.6380   -9.8750 O.2     1  UNL1       -0.2670
      3  N         21.2440  -22.2400  -11.0330 N.am    1  UNL1       -0.3130
      4  C         20.9890  -21.1150  -11.9520 C.2     1  UNL1        0.1370
      5  C         19.4810  -20.8350  -11.9410 C.2     1  UNL1        0.0610
      6  C         18.9790  -21.8570  -10.9750 C.2     1  UNL1       -0.0290
      7  C         17.6650  -22.0570  -10.5750 C.2     1  UNL1        0.0180
      8  C         17.3880  -23.0670   -9.6420 C.2     1  UNL1       -0.0400
      9  C         18.4410  -23.8630   -9.1470 C.2     1  UNL1        0.0110
     10  C         19.7620  -23.6500   -9.5610 C.2     1  UNL1        0.0310
     11  C         20.0170  -22.6420  -10.4750 C.2     1  UNL1        0.0430
     12  C         15.9670  -23.3240   -9.2060 C.3     1  UNL1        0.1610
     13  N         15.9340  -23.8440   -7.8580 N.am    1  UNL1       -0.3570
     14  C         15.5690  -23.0610   -6.7850 C.2     1  UNL1        0.2180
     15  O         15.3090  -21.8670   -6.8790 O.2     1  UNL1       -0.2740
     16  H         15.9480  -24.8480   -7.7470 H       1  UNL1        0.1620
     17  C         15.4640  -23.8480   -5.4920 C.3     1  UNL1        0.1070
     18  C         16.8060  -24.0290   -4.7860 C.3     1  UNL1        0.0470
     19  C         17.7280  -22.8480   -4.9850 C.2     1  UNL1       -0.0580
     20  C         18.5700  -22.7830   -6.1040 C.2     1  UNL1        0.0070
     21  C         19.4110  -21.6850   -6.2940 C.2     1  UNL1        0.0010
     22  C         19.4130  -20.6400   -5.3720 C.2     1  UNL1        0.0000
     23  C         18.5760  -20.6930   -4.2590 C.2     1  UNL1        0.0010
     24  C         17.7370  -21.7910   -4.0670 C.2     1  UNL1        0.0070
     25  C         23.6520  -22.1870  -11.4000 C.2     1  UNL1        0.0320
     26  C         23.8410  -22.4190  -12.7650 C.2     1  UNL1        0.0170
     27  C         24.9520  -21.8720  -13.4070 C.2     1  UNL1        0.0070
     28  C         25.8830  -21.1070  -12.6880 C.2     1  UNL1       -0.0620
     29  C         27.0770  -20.5320  -13.3920 C.3     1  UNL1        0.0480
     30  C         25.6910  -20.9000  -11.3150 C.2     1  UNL1        0.0070
     31  C         24.5810  -21.4440  -10.6680 C.2     1  UNL1        0.0170
@<TRIPOS>BOND
     1    27    26    1
     2    27    28    2
     3    29    28    1
     4    26    25    2
     5    28    30    1
     6     4     5    2
     7     4     3    1
     8     5     6    1
     9    25     1    1
    10    25    31    1
    11    30    31    2
    12     3     1   am
    13     3    11    1
    14     6     7    2
    15     6    11    1
    16     1     2    2
    17     7     8    1
    18    11    10    2
    19     8    12    1
    20     8     9    2
    21    10     9    1
    22    12    13    1
    23    13    16    1
    24    13    14   am
    25    15    14    2
    26    14    17    1
    27    21    20    1
    28    21    22    2
    29    20    19    2
    30    17    18    1
    31    22    23    1
    32    19    18    1
    33    19    24    1
    34    23    24    2
