@<TRIPOS>MOLECULE
15722_out_ligand_01.pdbqt
 33 37 0 0 0
SMALL
GASTEIGER

@<TRIPOS>ATOM
      1  C         22.4840  -22.4090  -11.4110 C.2     1  UNL1        0.0320
      2  C         22.2370  -23.1930  -10.2790 C.2     1  UNL1        0.0180
      3  C         20.9370  -23.2780   -9.7590 C.2     1  UNL1        0.0160
      4  C         19.8560  -22.5980  -10.3570 C.2     1  UNL1        0.0120
      5  C         20.1360  -21.8080  -11.4930 C.2     1  UNL1        0.0160
      6  C         21.4300  -21.7160  -12.0170 C.2     1  UNL1        0.0180
      7  C         23.8240  -22.3270  -12.0450 C.2     1  UNL1        0.2520
      8  O         24.7900  -22.8570  -11.4990 O.2     1  UNL1       -0.2680
      9  N         23.9080  -21.6560  -13.2450 N.am    1  UNL1       -0.3480
     10  H         23.0880  -21.2540  -13.6800 H       1  UNL1        0.1630
     11  C         25.1960  -21.4600  -13.8990 C.3     1  UNL1        0.1180
     12  C         25.7470  -20.0530  -13.5420 C.3     1  UNL1        0.0300
     13  C         25.9620  -19.1270  -14.7340 C.3     1  UNL1        0.0070
     14  C         26.6660  -19.8450  -15.8670 C.3     1  UNL1        0.0390
     15  C         25.8360  -21.0180  -16.3210 C.2     1  UNL1       -0.0500
     16  C         25.8150  -21.3750  -17.6760 C.2     1  UNL1        0.0070
     17  C         25.1220  -21.7840  -15.3810 C.2     1  UNL1       -0.0290
     18  C         25.0770  -22.4770  -18.1080 C.2     1  UNL1        0.0010
     19  C         24.3720  -23.2480  -17.1880 C.2     1  UNL1        0.0010
     20  C         24.4050  -22.9120  -15.8340 C.2     1  UNL1        0.0100
     21  C         18.4810  -22.7240   -9.8310 C.2     1  UNL1        0.1620
     22  N         17.5050  -22.0030  -10.4210 N.2     1  UNL1       -0.2410
     23  C         16.2740  -22.1200   -9.8970 C.2     1  UNL1        0.1230
     24  C         15.9840  -22.9150   -8.8120 C.2     1  UNL1        0.0770
     25  C         17.0460  -23.6040   -8.2860 C.2     1  UNL1        0.1730
     26  N         18.2930  -23.5320   -8.7750 N.2     1  UNL1       -0.2040
     27  O         16.7740  -24.3860   -7.1690 O.2     1  UNL1       -0.2920
     28  C         16.5610  -23.7020   -5.9870 C.2     1  UNL1        0.0770
     29  C         15.2610  -23.5670   -5.5130 C.2     1  UNL1        0.0370
     30  C         15.0300  -22.9350   -4.2840 C.2     1  UNL1        0.0030
     31  C         16.1040  -22.4490   -3.5450 C.2     1  UNL1        0.0000
     32  C         17.4130  -22.6000   -4.0270 C.2     1  UNL1        0.0030
     33  C         17.6460  -23.2300   -5.2470 C.2     1  UNL1        0.0370
@<TRIPOS>BOND
     1    18    16    1
     2    18    19    2
     3    16    15    2
     4    19    20    1
     5    15    14    1
     6    15    17    1
     7    14    13    1
     8    20    17    2
     9    17    11    1
    10    13    12    1
    11    11    12    1
    12    11     9    1
    13    10     9    1
    14     9     7   am
    15     7     8    2
    16     7     1    1
    17     6     5    1
    18     6     1    2
    19     5     4    2
    20     1     2    1
    21    22    23    1
    22    22    21    2
    23     4    21    1
    24     4     3    1
    25     2     3    2
    26    23    24    2
    27    21    26    1
    28    24    25    1
    29    26    25    2
    30    25    27    1
    31    27    28    1
    32    28    29    2
    33    28    33    1
    34    29    30    1
    35    33    32    2
    36    30    31    2
    37    32    31    1
