@<TRIPOS>MOLECULE
15733_out_ligand_01.pdbqt
 33 36 0 0 0
SMALL
GASTEIGER

@<TRIPOS>ATOM
      1  C         23.7360  -21.4080  -13.7280 C.2     1  UNL1        0.2580
      2  O         22.5920  -21.3640  -14.1710 O.2     1  UNL1       -0.2670
      3  N         24.1180  -21.9020  -12.4900 N.am    1  UNL1       -0.3130
      4  C         25.5010  -22.0620  -11.9980 C.2     1  UNL1        0.1370
      5  C         25.4340  -22.8210  -10.6660 C.2     1  UNL1        0.0610
      6  C         23.9630  -22.8580  -10.4030 C.2     1  UNL1       -0.0300
      7  C         23.3230  -23.3560   -9.2770 C.2     1  UNL1        0.0100
      8  C         21.9270  -23.3380   -9.2450 C.2     1  UNL1        0.0090
      9  C         21.1830  -22.8320  -10.3330 C.2     1  UNL1       -0.0380
     10  C         21.8550  -22.3370  -11.4670 C.2     1  UNL1        0.0390
     11  C         23.2410  -22.3520  -11.4850 C.2     1  UNL1        0.0440
     12  C         19.6750  -22.8480  -10.2940 C.3     1  UNL1        0.1630
     13  N         19.1830  -22.2040   -9.0920 N.am    1  UNL1       -0.3390
     14  C         18.4610  -22.9150   -8.1500 C.2     1  UNL1        0.3210
     15  O         18.2730  -24.1210   -8.2430 O.2     1  UNL1       -0.2470
     16  N         18.0340  -22.0800   -7.1380 N.am    1  UNL1       -0.3080
     17  H         18.4170  -21.1500   -7.1740 H       1  UNL1        0.1700
     18  H         18.9590  -21.2250   -9.1910 H       1  UNL1        0.1640
     19  C         17.2460  -22.4010   -6.0070 C.2     1  UNL1        0.0420
     20  C         16.0860  -23.1810   -6.0990 C.2     1  UNL1        0.0370
     21  C         15.3270  -23.5030   -4.9630 C.2     1  UNL1       -0.0600
     22  C         14.0790  -24.3260   -5.0970 C.3     1  UNL1        0.0480
     23  C         15.7180  -23.0050   -3.7210 C.2     1  UNL1        0.0070
     24  C         16.8630  -22.2190   -3.6120 C.2     1  UNL1        0.0090
     25  C         17.6390  -21.9090   -4.7430 C.2     1  UNL1       -0.0350
     26  C         18.8650  -21.0580   -4.5530 C.3     1  UNL1        0.0500
     27  C         24.8090  -20.8940  -14.6040 C.2     1  UNL1        0.0330
     28  C         25.2550  -21.6820  -15.6650 C.2     1  UNL1        0.0170
     29  C         26.2630  -21.2010  -16.4980 C.2     1  UNL1        0.0020
     30  C         26.8090  -19.9330  -16.2770 C.2     1  UNL1        0.0070
     31  C         26.3420  -19.1240  -15.2330 C.2     1  UNL1       -0.0610
     32  C         26.9470  -17.7720  -14.9980 C.3     1  UNL1        0.0480
     33  C         25.3360  -19.6130  -14.3920 C.2     1  UNL1        0.0230
@<TRIPOS>BOND
     1    29    30    2
     2    29    28    1
     3    30    31    1
     4    28    27    2
     5    31    32    1
     6    31    33    2
     7    27    33    1
     8    27     1    1
     9     2     1    2
    10     1     3   am
    11     3     4    1
    12     3    11    1
    13     4     5    2
    14    11    10    1
    15    11     6    2
    16    10     9    2
    17     5     6    1
    18     6     7    1
    19     9    12    1
    20     9     8    1
    21    12    13    1
    22     7     8    2
    23    18    13    1
    24    13    14   am
    25    15    14    2
    26    14    16   am
    27    17    16    1
    28    16    19    1
    29    20    19    2
    30    20    21    1
    31    19    25    1
    32    22    21    1
    33    21    23    2
    34    25    26    1
    35    25    24    2
    36    23    24    1
