@<TRIPOS>MOLECULE
15741_out_ligand_01.pdbqt
 33 36 0 0 0
SMALL
GASTEIGER

@<TRIPOS>ATOM
      1  C         21.0060  -23.1500   -8.8420 C.2     1  UNL1        0.0450
      2  C         21.2310  -22.0410   -8.0240 C.2     1  UNL1        0.0300
      3  C         20.3780  -21.7780   -6.9500 C.2     1  UNL1        0.0050
      4  C         19.3020  -22.6260   -6.6930 C.2     1  UNL1        0.0370
      5  C         19.0930  -23.7430   -7.5070 C.2     1  UNL1        0.0800
      6  C         19.9270  -23.9950   -8.5960 C.2     1  UNL1        0.0670
      7  O         18.0180  -24.5790   -7.3130 O.2     1  UNL1       -0.2910
      8  C         16.9350  -24.0300   -6.6410 C.2     1  UNL1        0.1850
      9  N         16.8750  -24.2300   -5.2970 N.2     1  UNL1       -0.2360
     10  C         15.8190  -23.7060   -4.6390 C.2     1  UNL1        0.1190
     11  C         14.8100  -22.9940   -5.2600 C.2     1  UNL1        0.0200
     12  C         14.8840  -22.8160   -6.6410 C.2     1  UNL1        0.0230
     13  C         15.9590  -23.3510   -7.3660 C.2     1  UNL1        0.0850
     14  C         15.9990  -23.1130   -8.8310 C.2     1  UNL1        0.2560
     15  O         15.3530  -23.8480   -9.5730 O.2     1  UNL1       -0.2680
     16  N         16.7830  -22.0770   -9.2970 N.am    1  UNL1       -0.3520
     17  H         17.3000  -21.5030   -8.6380 H       1  UNL1        0.1630
     18  C         16.8550  -21.7370  -10.6840 C.3     1  UNL1        0.0840
     19  C         18.0980  -22.0220  -11.4840 C.3     1  UNL1        0.0270
     20  C         17.7380  -20.6070  -11.1400 C.3     1  UNL1        0.0270
     21  N         21.9150  -23.4150   -9.9050 N.pl3   1  UNL1       -0.2810
     22  H         21.5300  -23.5690  -10.8340 H       1  UNL1        0.1790
     23  S         23.3780  -22.5640   -9.9700 S.O2    1  UNL1        0.2630
     24  O         24.3820  -23.4820   -9.4700 O.2     1  UNL1       -0.2000
     25  O         23.1950  -21.2700   -9.3520 O.2     1  UNL1       -0.2000
     26  C         23.6640  -22.3840  -11.7290 C.2     1  UNL1        0.0850
     27  C         24.8870  -22.8890  -12.2070 C.2     1  UNL1        0.0260
     28  C         25.2070  -22.8120  -13.5630 C.2     1  UNL1        0.0080
     29  C         24.3120  -22.2290  -14.4600 C.2     1  UNL1       -0.0610
     30  C         24.6620  -22.1100  -15.9150 C.3     1  UNL1        0.0480
     31  C         23.1090  -21.6960  -13.9760 C.2     1  UNL1        0.0150
     32  C         22.7610  -21.7650  -12.6110 C.2     1  UNL1       -0.0380
     33  C         21.4570  -21.1490  -12.1890 C.3     1  UNL1        0.0500
@<TRIPOS>BOND
     1    30    29    1
     2    29    31    2
     3    29    28    1
     4    31    32    1
     5    28    27    2
     6    32    33    1
     7    32    26    2
     8    27    26    1
     9    26    23    1
    10    19    20    1
    11    19    18    1
    12    20    18    1
    13    22    21    1
    14    18    16    1
    15    23    21    1
    16    23    24    2
    17    23    25    2
    18    21     1    1
    19    15    14    2
    20    16    14   am
    21    16    17    1
    22     1     6    2
    23     1     2    1
    24    14    13    1
    25     6     5    1
    26     2     3    2
    27     5     7    1
    28     5     4    2
    29    13    12    2
    30    13     8    1
    31     7     8    1
    32     3     4    1
    33    12    11    1
    34     8     9    2
    35     9    10    1
    36    11    10    2
