@<TRIPOS>MOLECULE
15740_out_ligand_01.pdbqt
 30 33 0 0 0
SMALL
GASTEIGER

@<TRIPOS>ATOM
      1  N         18.6090  -23.2680   -8.5580 N.am    1  UNL1       -0.2760
      2  C         17.9720  -22.4000   -9.3980 C.2     1  UNL1        0.2620
      3  O         16.8300  -21.9830   -9.3680 O.2     1  UNL1       -0.2670
      4  C         18.9430  -22.0270  -10.4240 C.2     1  UNL1        0.0480
      5  C         18.8210  -21.1700  -11.5010 C.2     1  UNL1        0.0190
      6  C         19.9440  -21.0080  -12.3230 C.2     1  UNL1        0.0180
      7  C         21.1470  -21.7070  -12.0510 C.2     1  UNL1        0.0330
      8  C         21.2440  -22.5590  -10.9390 C.2     1  UNL1        0.0350
      9  C         20.1190  -22.7000  -10.1510 C.2     1  UNL1        0.0490
     10  C         19.8970  -23.5090   -8.9530 C.2     1  UNL1        0.2620
     11  O         20.7390  -24.2440   -8.4770 O.2     1  UNL1       -0.2670
     12  C         22.3530  -21.5320  -12.9050 C.2     1  UNL1        0.2560
     13  O         22.2370  -20.9170  -13.9570 O.2     1  UNL1       -0.2670
     14  N         23.5180  -22.0720  -12.3940 N.am    1  UNL1       -0.3200
     15  H         23.5240  -22.4730  -11.4660 H       1  UNL1        0.1690
     16  C         24.7340  -22.0260  -13.0490 C.2     1  UNL1        0.0710
     17  C         25.8790  -21.2260  -12.8460 C.2     1  UNL1        0.1690
     18  N         26.8550  -21.5050  -13.7190 N.2     1  UNL1       -0.1830
     19  N         26.3310  -22.4850  -14.4740 N.pl3   1  UNL1       -0.2830
     20  C         27.1210  -23.0520  -15.5400 C.3     1  UNL1        0.1790
     21  C         25.0600  -22.8310  -14.1150 C.2     1  UNL1        0.1420
     22  C         17.9920  -23.8600   -7.3860 C.3     1  UNL1        0.1770
     23  C         18.0990  -22.9590   -6.1770 C.2     1  UNL1       -0.0060
     24  C         18.9440  -21.8360   -6.2190 C.2     1  UNL1        0.0110
     25  C         19.0790  -21.0030   -5.1080 C.2     1  UNL1        0.0010
     26  C         18.3680  -21.2760   -3.9420 C.2     1  UNL1        0.0030
     27  C         17.5250  -22.3860   -3.8840 C.2     1  UNL1        0.0370
     28  C         17.4030  -23.2330   -4.9910 C.2     1  UNL1        0.0760
     29  O         16.5500  -24.3040   -4.9770 O.2     1  UNL1       -0.3550
     30  C         15.2230  -23.9550   -4.5860 C.3     1  UNL1        0.2100
@<TRIPOS>BOND
     1    20    19    1
     2    19    21    1
     3    19    18    1
     4    21    16    2
     5    13    12    2
     6    18    17    2
     7    16    17    1
     8    16    14    1
     9    12    14   am
    10    12     7    1
    11    14    15    1
    12     6     7    2
    13     6     5    1
    14     7     8    1
    15     5     4    2
    16     8     9    2
    17     4     9    1
    18     4     2    1
    19     9    10    1
    20     2     3    2
    21     2     1   am
    22    10     1   am
    23    10    11    2
    24     1    22    1
    25    22    23    1
    26    24    23    2
    27    24    25    1
    28    23    28    1
    29    25    26    2
    30    28    29    1
    31    28    27    2
    32    29    30    1
    33    26    27    1
