@<TRIPOS>MOLECULE
15743_out_ligand_01.pdbqt
 30 32 0 0 0
SMALL
GASTEIGER

@<TRIPOS>ATOM
      1  C         18.6580  -23.2300   -6.7030 C.2     1  UNL1       -0.0050
      2  C         19.5380  -22.1370   -6.7840 C.2     1  UNL1        0.0150
      3  C         20.6210  -22.1520   -7.6680 C.2     1  UNL1        0.0180
      4  C         20.8440  -23.2600   -8.4940 C.2     1  UNL1        0.0320
      5  C         19.9560  -24.3390   -8.4510 C.2     1  UNL1        0.0180
      6  C         18.8750  -24.3210   -7.5610 C.2     1  UNL1        0.0150
      7  C         22.0060  -23.2300   -9.4270 C.2     1  UNL1        0.2560
      8  O         23.0690  -23.7000   -9.0400 O.2     1  UNL1       -0.2670
      9  N         21.7350  -22.7070  -10.6780 N.am    1  UNL1       -0.3230
     10  H         20.7680  -22.5020  -10.8920 H       1  UNL1        0.1690
     11  C         22.6440  -22.5200  -11.7410 C.2     1  UNL1        0.0350
     12  C         22.2910  -21.5940  -12.7300 C.2     1  UNL1        0.0300
     13  C         23.1370  -21.3490  -13.8160 C.2     1  UNL1        0.0100
     14  C         24.3600  -22.0210  -13.9370 C.2     1  UNL1       -0.0550
     15  C         24.7130  -22.9370  -12.9370 C.2     1  UNL1        0.0100
     16  C         23.8630  -23.1840  -11.8520 C.2     1  UNL1        0.0300
     17  C         25.2660  -21.7390  -15.1200 C.3     1  UNL1        0.0100
     18  C         25.4880  -20.2390  -15.3280 C.3     1  UNL1        0.0150
     19  C         24.7330  -22.3940  -16.3960 C.3     1  UNL1        0.0150
     20  C         17.5110  -23.2240   -5.7760 C.2     1  UNL1        0.0930
     21  N         17.8480  -23.5710   -4.5030 N.2     1  UNL1       -0.2580
     22  C         16.8580  -23.6400   -3.5910 C.2     1  UNL1        0.1170
     23  C         15.5350  -23.3700   -3.8810 C.2     1  UNL1        0.0220
     24  C         15.2030  -22.9930   -5.1820 C.2     1  UNL1        0.0330
     25  C         16.1920  -22.9010   -6.1630 C.2     1  UNL1        0.0640
     26  N         15.9200  -22.4830   -7.4930 N.am    1  UNL1       -0.3250
     27  C         15.6590  -23.2780   -8.5940 C.2     1  UNL1        0.2180
     28  C         15.4190  -22.4590   -9.8380 C.3     1  UNL1        0.1170
     29  O         15.5950  -24.5010   -8.6250 O.2     1  UNL1       -0.2740
     30  H         15.8880  -21.4820   -7.6440 H       1  UNL1        0.1690
@<TRIPOS>BOND
     1    19    17    1
     2    18    17    1
     3    17    14    1
     4    14    13    2
     5    14    15    1
     6    13    12    1
     7    15    16    2
     8    12    11    2
     9    16    11    1
    10    11     9    1
    11    10     9    1
    12     9     7   am
    13    28    27    1
    14     7     8    2
    15     7     4    1
    16    29    27    2
    17    27    26   am
    18     4     5    2
    19     4     3    1
    20     5     6    1
    21     3     2    2
    22    30    26    1
    23     6     1    2
    24    26    25    1
    25     2     1    1
    26     1    20    1
    27    25    20    2
    28    25    24    1
    29    20    21    1
    30    24    23    2
    31    21    22    2
    32    23    22    1
