@<TRIPOS>MOLECULE
15758_out_ligand_01.pdbqt
 40 44 0 0 0
SMALL
GASTEIGER

@<TRIPOS>ATOM
      1  C         18.6740  -21.0560  -11.3180 C.ar    1  UNL1        0.1960
      2  N         17.5240  -20.5740  -11.7280 N.ar    1  UNL1       -0.1220
      3  N         16.5330  -21.2840  -11.1100 N.ar    1  UNL1       -0.1320
      4  C         17.0950  -22.1960  -10.3360 C.ar    1  UNL1        0.1530
      5  N         18.4790  -22.0910  -10.4220 N.ar    1  UNL1       -0.2740
      6  C         16.3580  -23.2460   -9.5820 C.3     1  UNL1        0.2040
      7  N         16.2990  -22.8730   -8.1870 N.am    1  UNL1       -0.3500
      8  C         16.3740  -23.8430   -7.2140 C.2     1  UNL1        0.2520
      9  O         16.4590  -25.0420   -7.4560 O.2     1  UNL1       -0.2680
     10  H         16.4970  -21.9090   -7.9490 H       1  UNL1        0.1630
     11  C         16.4240  -23.3540   -5.8160 C.2     1  UNL1        0.0430
     12  C         15.4210  -23.8370   -4.9650 C.2     1  UNL1        0.0180
     13  C         15.3830  -23.4380   -3.6350 C.2     1  UNL1        0.0020
     14  C         16.3440  -22.5520   -3.1530 C.2     1  UNL1        0.0120
     15  C         17.3510  -22.0440   -3.9940 C.2     1  UNL1       -0.0250
     16  C         18.2970  -21.1360   -3.4870 C.2     1  UNL1        0.0120
     17  C         17.4060  -22.4360   -5.3560 C.2     1  UNL1       -0.0100
     18  C         19.2970  -20.6090   -4.3060 C.2     1  UNL1        0.0010
     19  C         19.3540  -20.9640   -5.6470 C.2     1  UNL1        0.0010
     20  C         18.4170  -21.8590   -6.1680 C.2     1  UNL1        0.0130
     21  C         19.4540  -22.8630   -9.7390 C.2     1  UNL1        0.0430
     22  C         19.4020  -24.2590   -9.7880 C.2     1  UNL1        0.0300
     23  C         20.3660  -25.0170   -9.1160 C.2     1  UNL1        0.0020
     24  C         21.3920  -24.3830   -8.4160 C.2     1  UNL1        0.0000
     25  C         21.4490  -22.9910   -8.3710 C.2     1  UNL1        0.0020
     26  C         20.4770  -22.2280   -9.0210 C.2     1  UNL1        0.0300
     27  S         20.2010  -20.3000  -11.6400 S.3     1  UNL1       -0.0800
     28  C         20.7460  -21.2810  -13.0660 C.3     1  UNL1        0.1850
     29  C         22.2670  -21.3580  -13.1190 C.2     1  UNL1        0.2310
     30  N         22.7890  -22.4120  -12.3870 N.am    1  UNL1       -0.3260
     31  H         22.1190  -23.0610  -11.9890 H       1  UNL1        0.1690
     32  O         22.9080  -20.5290  -13.7610 O.2     1  UNL1       -0.2720
     33  C         24.1540  -22.7320  -12.1650 C.2     1  UNL1        0.0410
     34  C         24.7810  -22.2560  -10.9910 C.2     1  UNL1       -0.0350
     35  C         26.1340  -22.5600  -10.7600 C.2     1  UNL1        0.0090
     36  C         24.0550  -21.4330   -9.9600 C.3     1  UNL1        0.0500
     37  C         26.8650  -23.3240  -11.6690 C.2     1  UNL1        0.0070
     38  C         26.2530  -23.8030  -12.8290 C.2     1  UNL1       -0.0600
     39  C         27.0320  -24.6570  -13.7890 C.3     1  UNL1        0.0480
     40  C         24.9050  -23.4970  -13.0700 C.2     1  UNL1        0.0370
@<TRIPOS>BOND
     1    39    38    1
     2    32    29    2
     3    29    28    1
     4    29    30   am
     5    40    38    1
     6    40    33    2
     7    28    27    1
     8    38    37    2
     9    30    33    1
    10    30    31    1
    11    33    34    1
    12     2     1   ar
    13     2     3   ar
    14    37    35    1
    15    27     1    1
    16     1     5   ar
    17     3     4   ar
    18    34    35    2
    19    34    36    1
    20     5     4   ar
    21     5    21    1
    22     4     6    1
    23    22    21    2
    24    22    23    1
    25    21    26    1
    26     6     7    1
    27    23    24    2
    28    26    25    2
    29    24    25    1
    30     7    10    1
    31     7     8   am
    32     9     8    2
    33     8    11    1
    34    20    19    2
    35    20    17    1
    36    11    17    2
    37    11    12    1
    38    19    18    1
    39    17    15    1
    40    12    13    2
    41    18    16    2
    42    15    16    1
    43    15    14    2
    44    13    14    1
