@<TRIPOS>MOLECULE
15757_out_ligand_01.pdbqt
 35 39 0 0 0
SMALL
GASTEIGER

@<TRIPOS>ATOM
      1  C         21.1670  -21.6800  -11.8530 C.ar    1  UNL1        0.1890
      2  N         20.2850  -20.8600  -12.3930 N.ar    1  UNL1       -0.1360
      3  N         19.0660  -20.9210  -11.7510 N.ar    1  UNL1       -0.1460
      4  C         19.0650  -21.7810  -10.7520 C.ar    1  UNL1        0.1050
      5  S         20.5780  -22.5710  -10.5160 S.2     1  UNL1       -0.0450
      6  C         17.8680  -22.0330   -9.8770 C.3     1  UNL1        0.0650
      7  C         16.5310  -21.8530  -10.6140 C.3     1  UNL1        0.0150
      8  C         15.3940  -22.6420   -9.9590 C.3     1  UNL1        0.0210
      9  C         15.5990  -22.7930   -8.4550 C.3     1  UNL1        0.1350
     10  N         16.8470  -23.5420   -8.1800 N.3     1  UNL1       -0.3060
     11  C         17.9450  -23.3910   -9.1730 C.3     1  UNL1        0.1470
     12  S         17.2630  -23.8000   -6.5550 S.O2    1  UNL1        0.2610
     13  O         16.1240  -23.4480   -5.7350 O.2     1  UNL1       -0.2000
     14  O         17.8970  -25.0960   -6.4500 O.2     1  UNL1       -0.2000
     15  C         18.5210  -22.5710   -6.2670 C.2     1  UNL1        0.0820
     16  C         18.2830  -21.5300   -5.3590 C.2     1  UNL1        0.0280
     17  C         19.2660  -20.5590   -5.1500 C.2     1  UNL1        0.0470
     18  C         20.4610  -20.6270   -5.8620 C.2     1  UNL1        0.1540
     19  F         21.4010  -19.6960   -5.6570 F       1  UNL1       -0.2030
     20  C         20.6780  -21.6500   -6.7800 C.2     1  UNL1        0.1560
     21  F         21.8290  -21.7060   -7.4640 F       1  UNL1       -0.2030
     22  C         19.7120  -22.6240   -6.9980 C.2     1  UNL1        0.0700
     23  C         22.5300  -21.8210  -12.3470 C.2     1  UNL1        0.2830
     24  O         23.4190  -22.3830  -11.7120 O.2     1  UNL1       -0.2650
     25  N         22.6930  -21.2510  -13.6040 N.am    1  UNL1       -0.3210
     26  H         21.8550  -20.8210  -13.9870 H       1  UNL1        0.1690
     27  C         23.8530  -21.2000  -14.4010 C.2     1  UNL1        0.0370
     28  C         24.8360  -20.1980  -14.2930 C.2     1  UNL1        0.0320
     29  C         25.9720  -20.2090  -15.1160 C.2     1  UNL1        0.0420
     30  C         26.0950  -21.2280  -16.0310 C.2     1  UNL1        0.1050
     31  C         25.1390  -22.2080  -16.1440 C.2     1  UNL1        0.1070
     32  O         27.1210  -21.3990  -16.9040 O.2     1  UNL1       -0.3230
     33  C         24.0130  -22.2230  -15.3480 C.2     1  UNL1        0.0690
     34  O         25.4450  -23.1210  -17.1040 O.2     1  UNL1       -0.3230
     35  C         26.7040  -22.6020  -17.5810 C.3     1  UNL1        0.3520
@<TRIPOS>BOND
     1    35    34    1
     2    35    32    1
     3    34    31    1
     4    32    30    1
     5    31    30    2
     6    31    33    1
     7    30    29    1
     8    33    27    2
     9    29    28    2
    10    27    28    1
    11    27    25    1
    12    26    25    1
    13    25    23   am
    14     2     1   ar
    15     2     3   ar
    16    23     1    1
    17    23    24    2
    18     1     5   ar
    19     3     4   ar
    20     4     5   ar
    21     4     6    1
    22     7     8    1
    23     7     6    1
    24     8     9    1
    25     6    11    1
    26    11    10    1
    27     9    10    1
    28    10    12    1
    29    21    20    1
    30    22    20    1
    31    22    15    2
    32    20    18    2
    33    12    14    2
    34    12    15    1
    35    12    13    2
    36    15    16    1
    37    18    19    1
    38    18    17    1
    39    16    17    2
