@<TRIPOS>MOLECULE
15778_out_ligand_01.pdbqt
 31 34 0 0 0
SMALL
GASTEIGER

@<TRIPOS>ATOM
      1  C         22.3930  -22.8420  -10.4390 C.2     1  UNL1        0.0340
      2  C         22.3810  -23.7340   -9.3570 C.2     1  UNL1        0.0180
      3  C         21.1750  -24.0360   -8.7160 C.2     1  UNL1        0.0200
      4  C         19.9870  -23.4400   -9.1510 C.ar    1  UNL1        0.0590
      5  C         18.7000  -23.7330   -8.4930 C.ar    1  UNL1        0.2640
      6  O         18.6770  -24.5370   -7.5640 O.2     1  UNL1       -0.2670
      7  N         17.5780  -23.0640   -8.9780 N.ar    1  UNL1       -0.2650
      8  C         17.5980  -22.1880  -10.0530 C.ar    1  UNL1        0.3290
      9  O         16.6030  -21.6360  -10.5220 O.2     1  UNL1       -0.2460
     10  N         18.8140  -21.9530  -10.6320 N.ar    1  UNL1       -0.3070
     11  C         20.0020  -22.5420  -10.2120 C.ar    1  UNL1        0.0530
     12  C         21.2000  -22.2360  -10.8580 C.2     1  UNL1        0.0470
     13  H         18.8030  -21.2970  -11.4020 H       1  UNL1        0.1700
     14  C         23.6480  -22.4790  -11.1550 C.2     1  UNL1        0.2520
     15  O         24.4140  -21.6630  -10.6560 O.2     1  UNL1       -0.2680
     16  N         23.8580  -23.0800  -12.3780 N.am    1  UNL1       -0.3520
     17  H         23.1800  -23.7290  -12.7500 H       1  UNL1        0.1630
     18  C         25.0900  -22.8690  -13.1330 C.3     1  UNL1        0.0840
     19  C         25.5710  -24.2020  -13.7320 C.3     1  UNL1        0.0250
     20  C         26.3670  -23.9970  -15.0150 C.3     1  UNL1        0.0020
     21  C         25.5270  -23.3170  -16.0970 C.3     1  UNL1        0.0000
     22  C         24.4720  -22.3580  -15.5400 C.3     1  UNL1        0.0020
     23  C         24.8920  -21.7750  -14.1960 C.3     1  UNL1        0.0250
     24  C         16.3060  -23.2910   -8.2940 C.3     1  UNL1        0.1420
     25  C         15.9960  -22.2390   -7.2170 C.3     1  UNL1        0.0590
     26  C         16.1890  -22.7250   -5.8000 C.2     1  UNL1       -0.0570
     27  C         17.3830  -22.4530   -5.1170 C.2     1  UNL1        0.0070
     28  C         17.5600  -22.8850   -3.8020 C.2     1  UNL1        0.0010
     29  C         16.5470  -23.5920   -3.1570 C.2     1  UNL1        0.0000
     30  C         15.3570  -23.8680   -3.8270 C.2     1  UNL1        0.0010
     31  C         15.1780  -23.4380   -5.1430 C.2     1  UNL1        0.0070
@<TRIPOS>BOND
     1    21    22    1
     2    21    20    1
     3    22    23    1
     4    20    19    1
     5    23    18    1
     6    19    18    1
     7    18    16    1
     8    17    16    1
     9    16    14   am
    10    13    10    1
    11    14    15    2
    12    14     1    1
    13    12     1    2
    14    12    11    1
    15    10    11   ar
    16    10     8   ar
    17     9     8    2
    18     1     2    1
    19    11     4   ar
    20     8     7   ar
    21     2     3    2
    22     4     3    1
    23     4     5   ar
    24     7     5   ar
    25     7    24    1
    26     5     6    2
    27    24    25    1
    28    25    26    1
    29    26    31    2
    30    26    27    1
    31    31    30    1
    32    27    28    2
    33    30    29    2
    34    28    29    1
