@<TRIPOS>MOLECULE
15783_out_ligand_01.pdbqt
 27 29 0 0 0
SMALL
GASTEIGER

@<TRIPOS>ATOM
      1  N         21.4420  -23.3340   -8.6760 N.am    1  UNL1       -0.3530
      2  C         20.4840  -24.3260   -8.6760 C.2     1  UNL1        0.2520
      3  O         20.7190  -25.5140   -8.8530 O.2     1  UNL1       -0.2680
      4  H         21.1330  -22.3710   -8.7110 H       1  UNL1        0.1630
      5  C         22.8100  -23.6110   -9.0470 C.3     1  UNL1        0.1610
      6  C         23.1340  -23.0120  -10.3930 C.2     1  UNL1       -0.0400
      7  C         22.1090  -22.4640  -11.1840 C.2     1  UNL1        0.0100
      8  C         22.4000  -21.8760  -12.4150 C.2     1  UNL1        0.0250
      9  C         23.7230  -21.8390  -12.8620 C.2     1  UNL1        0.0740
     10  C         24.7570  -22.3640  -12.0810 C.2     1  UNL1        0.0250
     11  C         24.4590  -22.9480  -10.8490 C.2     1  UNL1        0.0100
     12  S         24.0860  -21.0870  -14.4250 S.O2    1  UNL1        0.2390
     13  O         25.2550  -20.2530  -14.2710 O.2     1  UNL1       -0.2060
     14  O         23.9750  -22.0920  -15.4570 O.2     1  UNL1       -0.2060
     15  N         22.7500  -20.0820  -14.6320 N.3     1  UNL1       -0.2250
     16  H         22.2640  -19.9930  -13.7390 H       1  UNL1        0.1360
     17  H         22.9880  -19.1740  -15.0300 H       1  UNL1        0.1360
     18  C         19.0990  -23.8420   -8.4600 C.2     1  UNL1        0.0430
     19  C         18.4470  -24.2650   -7.2920 C.2     1  UNL1        0.0180
     20  C         17.1500  -23.8410   -7.0310 C.2     1  UNL1        0.0020
     21  C         16.5040  -22.9960   -7.9340 C.2     1  UNL1        0.0120
     22  C         17.1410  -22.5620   -9.1080 C.2     1  UNL1       -0.0250
     23  C         16.4740  -21.7060  -10.0000 C.2     1  UNL1        0.0120
     24  C         18.4620  -22.9860   -9.3950 C.2     1  UNL1       -0.0100
     25  C         17.0920  -21.2580  -11.1670 C.2     1  UNL1        0.0010
     26  C         18.3880  -21.6610  -11.4590 C.2     1  UNL1        0.0010
     27  C         19.0650  -22.5140  -10.5850 C.2     1  UNL1        0.0130
@<TRIPOS>BOND
     1    14    12    2
     2    17    15    1
     3    15    12    1
     4    15    16    1
     5    12    13    2
     6    12     9    1
     7     9     8    2
     8     9    10    1
     9     8     7    1
    10    10    11    2
    11    26    25    1
    12    26    27    2
    13     7     6    2
    14    25    23    2
    15    11     6    1
    16    27    24    1
    17     6     5    1
    18    23    22    1
    19    24    22    1
    20    24    18    2
    21    22    21    2
    22     5     1    1
    23     3     2    2
    24     4     1    1
    25     2     1   am
    26     2    18    1
    27    18    19    1
    28    21    20    1
    29    19    20    2
