@<TRIPOS>MOLECULE
15798_out_ligand_01.pdbqt
 31 34 0 0 0
SMALL
GASTEIGER

@<TRIPOS>ATOM
      1  C         17.4080  -21.5190  -10.8130 C.ar    1  UNL1        0.1350
      2  N         17.3800  -20.7140  -11.8620 N.ar    1  UNL1       -0.1340
      3  N         18.6490  -20.6510  -12.3980 N.ar    1  UNL1       -0.1240
      4  C         19.4230  -21.4290  -11.6600 C.ar    1  UNL1        0.2260
      5  C         20.8450  -21.6860  -11.8040 C.2     1  UNL1        0.3000
      6  O         21.5060  -21.1930  -12.7180 O.2     1  UNL1       -0.2630
      7  N         21.3990  -22.5330  -10.7680 N.am    1  UNL1       -0.2850
      8  C         20.5710  -23.0980   -9.7850 C.2     1  UNL1        0.1180
      9  C         19.2510  -22.8650   -9.7400 C.2     1  UNL1        0.1180
     10  N         18.6840  -22.0100  -10.6620 N.ar    1  UNL1       -0.2860
     11  C         16.2890  -21.7980   -9.8600 C.3     1  UNL1        0.0900
     12  C         15.9980  -23.2850   -9.7030 C.3     1  UNL1        0.1110
     13  C         15.9780  -23.7020   -8.2470 C.2     1  UNL1        0.2220
     14  N         16.0270  -22.6460   -7.3750 N.am    1  UNL1       -0.3270
     15  H         16.0130  -21.7170   -7.7970 H       1  UNL1        0.1690
     16  O         15.8930  -24.8960   -7.9500 O.2     1  UNL1       -0.2730
     17  C         16.1860  -22.6880   -5.9690 C.2     1  UNL1        0.0350
     18  C         15.1460  -23.2600   -5.2130 C.2     1  UNL1        0.0290
     19  C         15.1880  -23.2750   -3.8100 C.2     1  UNL1        0.0030
     20  C         16.2730  -22.7100   -3.1530 C.2     1  UNL1        0.0070
     21  C         17.3430  -22.1730   -3.8880 C.2     1  UNL1       -0.0600
     22  C         18.5430  -21.6050   -3.1730 C.3     1  UNL1        0.0480
     23  C         17.2930  -22.1750   -5.2950 C.2     1  UNL1        0.0360
     24  C         22.8040  -22.8660  -10.7780 C.2     1  UNL1        0.0420
     25  C         23.5230  -23.0770   -9.5910 C.2     1  UNL1        0.0300
     26  C         24.9010  -23.3080   -9.6160 C.2     1  UNL1        0.0090
     27  C         25.6020  -23.3430  -10.8380 C.2     1  UNL1       -0.0560
     28  C         27.0870  -23.5910  -10.8180 C.3     1  UNL1        0.0490
     29  C         24.8940  -23.1590  -12.0450 C.2     1  UNL1       -0.0540
     30  C         25.5830  -23.1650  -13.3900 C.3     1  UNL1        0.0490
     31  C         23.5090  -22.9130  -11.9940 C.2     1  UNL1        0.0370
@<TRIPOS>BOND
     1    30    29    1
     2     6     5    2
     3     3     2   ar
     4     3     4   ar
     5    29    31    1
     6    29    27    2
     7    31    24    2
     8     2     1   ar
     9     5     4    1
    10     5     7   am
    11     4    10   ar
    12    27    28    1
    13    27    26    1
    14     1    10   ar
    15     1    11    1
    16    24     7    1
    17    24    25    1
    18     7     8    1
    19    10     9    1
    20    11    12    1
    21     8     9    2
    22    12    13    1
    23    26    25    2
    24    13    16    2
    25    13    14   am
    26    15    14    1
    27    14    17    1
    28    17    23    2
    29    17    18    1
    30    23    21    1
    31    18    19    2
    32    21    22    1
    33    21    20    2
    34    19    20    1
