@<TRIPOS>MOLECULE
15793_out_ligand_01.pdbqt
 31 34 0 0 0
SMALL
GASTEIGER

@<TRIPOS>ATOM
      1  C         20.7860  -22.3070  -11.0440 C.2     1  UNL1       -0.0070
      2  C         21.9690  -22.9240  -10.5960 C.2     1  UNL1        0.0150
      3  C         23.1780  -22.7790  -11.2860 C.2     1  UNL1        0.0180
      4  C         23.2360  -22.0040  -12.4480 C.2     1  UNL1        0.0320
      5  C         22.0680  -21.4040  -12.9280 C.2     1  UNL1        0.0180
      6  C         20.8620  -21.5540  -12.2310 C.2     1  UNL1        0.0150
      7  C         19.5220  -22.4690  -10.2930 C.2     1  UNL1        0.0720
      8  C         19.4630  -23.0630   -9.0450 C.2     1  UNL1        0.0900
      9  C         18.2140  -23.1660   -8.4630 C.2     1  UNL1        0.1730
     10  N         17.1000  -22.6750   -9.0340 N.2     1  UNL1       -0.2170
     11  C         17.2580  -22.1250  -10.2400 C.2     1  UNL1        0.2360
     12  N         18.4140  -22.0030  -10.9070 N.2     1  UNL1       -0.2410
     13  O         18.0010  -23.7080   -7.2120 O.2     1  UNL1       -0.2890
     14  C         18.1520  -22.8900   -6.1130 C.2     1  UNL1        0.1110
     15  C         19.0110  -21.7970   -6.2680 C.2     1  UNL1        0.0400
     16  C         19.1960  -20.9050   -5.2140 C.2     1  UNL1        0.0030
     17  C         18.5110  -21.1000   -4.0160 C.2     1  UNL1        0.0030
     18  C         17.6320  -22.1780   -3.8700 C.2     1  UNL1        0.0390
     19  C         17.4340  -23.0800   -4.9210 C.2     1  UNL1        0.1020
     20  O         16.5850  -24.1520   -4.8810 O.2     1  UNL1       -0.3530
     21  C         15.1890  -23.8920   -4.9520 C.3     1  UNL1        0.2100
     22  C         24.5420  -21.8730  -13.1490 C.2     1  UNL1        0.2510
     23  O         25.2220  -20.8630  -13.0060 O.2     1  UNL1       -0.2680
     24  N         24.8980  -22.9130  -13.9830 N.am    1  UNL1       -0.3540
     25  H         24.2180  -23.6220  -14.2150 H       1  UNL1        0.1620
     26  C         26.1210  -22.8690  -14.7630 C.3     1  UNL1        0.1550
     27  C         25.8990  -22.8510  -16.2790 C.3     1  UNL1        0.1390
     28  C         25.2690  -21.5690  -16.8000 C.3     1  UNL1        0.0350
     29  C         24.6530  -22.0430  -18.0920 C.3     1  UNL1        0.0290
     30  C         24.1530  -23.4230  -17.7210 C.3     1  UNL1        0.1680
     31  O         24.9870  -23.9030  -16.6550 O.3     1  UNL1       -0.3840
@<TRIPOS>BOND
     1    29    30    1
     2    29    28    1
     3    30    31    1
     4    28    27    1
     5    31    27    1
     6    27    26    1
     7    26    24    1
     8    25    24    1
     9    24    22   am
    10    22    23    2
    11    22     4    1
    12     5     4    2
    13     5     6    1
    14     4     3    1
    15     6     1    2
    16     3     2    2
    17     1     2    1
    18     1     7    1
    19    12     7    1
    20    12    11    2
    21     7     8    2
    22    11    10    1
    23     8     9    1
    24    10     9    2
    25     9    13    1
    26    13    14    1
    27    15    14    2
    28    15    16    1
    29    14    19    1
    30    16    17    2
    31    21    20    1
    32    19    20    1
    33    19    18    2
    34    17    18    1
