@<TRIPOS>MOLECULE
1580_out_ligand_01.pdbqt
 32 35 0 0 0
SMALL
GASTEIGER

@<TRIPOS>ATOM
      1  C         21.2150  -22.0130  -10.5680 C.2     1  UNL1        0.0360
      2  C         20.9280  -21.7220  -11.9040 C.2     1  UNL1        0.0310
      3  C         21.9530  -21.6170  -12.8490 C.2     1  UNL1        0.0270
      4  C         23.3020  -21.8070  -12.4980 C.2     1  UNL1        0.0260
      5  C         23.5900  -22.0940  -11.1390 C.2     1  UNL1        0.0550
      6  C         22.5460  -22.1910  -10.1930 C.2     1  UNL1        0.0480
      7  N         20.1190  -22.0920   -9.6860 N.am    1  UNL1       -0.3230
      8  C         19.6400  -23.2130   -9.0340 C.2     1  UNL1        0.2560
      9  O         20.0200  -24.3700   -9.1550 O.2     1  UNL1       -0.2670
     10  H         19.5890  -21.2400   -9.5550 H       1  UNL1        0.1690
     11  C         18.4880  -22.9360   -8.1340 C.2     1  UNL1        0.0410
     12  C         18.7860  -22.6620   -6.7900 C.2     1  UNL1        0.0570
     13  C         17.7590  -22.4290   -5.8770 C.2     1  UNL1        0.1030
     14  C         16.4320  -22.4400   -6.3070 C.2     1  UNL1        0.1020
     15  O         18.1410  -22.0860   -4.6080 O.2     1  UNL1       -0.3480
     16  C         16.1360  -22.6650   -7.6570 C.2     1  UNL1        0.0470
     17  O         15.3720  -22.1160   -5.5040 O.2     1  UNL1       -0.3480
     18  C         17.1560  -22.9090   -8.5920 C.2     1  UNL1       -0.0430
     19  C         16.7910  -23.0910  -10.0390 C.3     1  UNL1        0.0490
     20  C         15.2370  -22.9910   -4.3840 C.3     1  UNL1        0.1780
     21  C         16.1830  -22.6220   -3.2510 C.3     1  UNL1        0.0530
     22  C         17.6200  -22.9640   -3.6120 C.3     1  UNL1        0.1780
     23  C         24.9740  -22.3240  -10.6120 C.2     1  UNL1        0.2510
     24  N         25.8130  -21.2450  -10.5610 N.am    1  UNL1       -0.3660
     25  H         25.4170  -20.3200  -10.7020 H       1  UNL1        0.1590
     26  H         26.7040  -21.3530  -10.0910 H       1  UNL1        0.1590
     27  O         25.3590  -23.4310  -10.2370 O.2     1  UNL1       -0.2680
     28  N         24.3240  -21.6440  -13.4610 N.pl3   1  UNL1       -0.2830
     29  C         24.8160  -22.8640  -14.1480 C.3     1  UNL1        0.0960
     30  C         24.5870  -22.6030  -15.6360 C.3     1  UNL1        0.0160
     31  C         24.6960  -21.0870  -15.7370 C.3     1  UNL1        0.0160
     32  C         23.9640  -20.6270  -14.4810 C.3     1  UNL1        0.0960
@<TRIPOS>BOND
     1    31    30    1
     2    31    32    1
     3    30    29    1
     4    32    28    1
     5    29    28    1
     6    28     4    1
     7     3     4    2
     8     3     2    1
     9     4     5    1
    10     2     1    2
    11     5    23    1
    12     5     6    2
    13    25    24    1
    14    23    24   am
    15    23    27    2
    16     1     6    1
    17     1     7    1
    18    24    26    1
    19    19    18    1
    20     7    10    1
    21     7     8   am
    22     9     8    2
    23     8    11    1
    24    18    11    2
    25    18    16    1
    26    11    12    1
    27    16    14    2
    28    12    13    2
    29    14    13    1
    30    14    17    1
    31    13    15    1
    32    17    20    1
    33    15    22    1
    34    20    21    1
    35    22    21    1
