@<TRIPOS>MOLECULE
15817_out_ligand_01.pdbqt
 34 37 0 0 0
SMALL
GASTEIGER

@<TRIPOS>ATOM
      1  C         18.5480  -21.8850  -10.5290 C.2     1  UNL1        0.0720
      2  C         18.4330  -22.7240   -9.4110 C.2     1  UNL1        0.0450
      3  C         17.1650  -23.0590   -8.9180 C.2     1  UNL1        0.0760
      4  C         16.0040  -22.5780   -9.5290 C.2     1  UNL1        0.0280
      5  C         16.1180  -21.7430  -10.6390 C.2     1  UNL1        0.0450
      6  C         17.3810  -21.4010  -11.1290 C.2     1  UNL1        0.1320
      7  F         17.4400  -20.5870  -12.1930 F       1  UNL1       -0.2050
      8  C         19.9160  -21.5280  -11.0110 C.2     1  UNL1        0.2590
      9  O         20.1020  -20.3680  -11.3610 O.2     1  UNL1       -0.2670
     10  N         20.8570  -22.5450  -11.0150 N.am    1  UNL1       -0.3220
     11  H         20.5320  -23.4490  -10.6790 H       1  UNL1        0.1690
     12  C         22.2190  -22.4760  -11.4080 C.2     1  UNL1        0.0500
     13  C         22.6100  -21.9630  -12.6540 C.2     1  UNL1        0.0300
     14  C         23.9550  -21.9020  -13.0280 C.2     1  UNL1        0.0020
     15  C         24.9410  -22.3560  -12.1650 C.2     1  UNL1        0.0010
     16  C         24.5790  -22.8710  -10.9230 C.2     1  UNL1        0.0180
     17  C         23.2250  -22.9300  -10.5270 C.2     1  UNL1        0.0740
     18  C         22.9200  -23.5350   -9.1800 C.3     1  UNL1        0.4190
     19  F         21.9430  -24.4880   -9.2230 F       1  UNL1       -0.1660
     20  F         24.0050  -24.1480   -8.6290 F       1  UNL1       -0.1660
     21  F         22.4990  -22.6240   -8.2580 F       1  UNL1       -0.1660
     22  S         17.0520  -24.1410   -7.5020 S.O2    1  UNL1        0.2480
     23  O         18.4210  -24.4900   -7.1900 O.2     1  UNL1       -0.2050
     24  O         16.0740  -25.1620   -7.8190 O.2     1  UNL1       -0.2050
     25  N         16.3600  -23.0980   -6.2890 N.pl3   1  UNL1       -0.1720
     26  C         15.2870  -23.7980   -5.5090 C.3     1  UNL1        0.1140
     27  C         14.8540  -22.9940   -4.3000 C.3     1  UNL1        0.0200
     28  C         16.0420  -22.8330   -3.3720 C.3     1  UNL1        0.0420
     29  C         17.1850  -22.1930   -4.1090 C.2     1  UNL1       -0.0360
     30  C         18.1220  -21.4510   -3.3660 C.2     1  UNL1        0.0090
     31  C         17.3330  -22.3320   -5.5030 C.2     1  UNL1        0.0310
     32  C         19.1620  -20.7840   -4.0030 C.2     1  UNL1        0.0010
     33  C         19.2610  -20.8370   -5.3870 C.2     1  UNL1        0.0020
     34  C         18.3440  -21.5900   -6.1280 C.2     1  UNL1        0.0250
@<TRIPOS>BOND
     1    14    13    1
     2    14    15    2
     3    13    12    2
     4     7     6    1
     5    15    16    1
     6    12    10    1
     7    12    17    1
     8     9     8    2
     9     6     5    1
    10     6     1    2
    11    10     8   am
    12    10    11    1
    13     8     1    1
    14    16    17    2
    15     5     4    2
    16     1     2    1
    17    17    18    1
    18     4     3    1
    19     2     3    2
    20    19    18    1
    21    18    20    1
    22    18    21    1
    23     3    22    1
    24    24    22    2
    25    22    23    2
    26    22    25    1
    27    25    26    1
    28    25    31    1
    29    34    31    1
    30    34    33    2
    31    26    27    1
    32    31    29    2
    33    33    32    1
    34    27    28    1
    35    29    28    1
    36    29    30    1
    37    32    30    2
