@<TRIPOS>MOLECULE
15840_out_ligand_01.pdbqt
 37 40 0 0 0
SMALL
GASTEIGER

@<TRIPOS>ATOM
      1  N         20.7070  -23.5300   -9.4750 N.ar    1  UNL1       -0.2900
      2  C         22.0940  -23.6310   -9.4700 C.ar    1  UNL1        0.3330
      3  O         22.6670  -24.4470   -8.7390 O.2     1  UNL1       -0.2460
      4  N         22.7900  -22.7890  -10.3200 N.ar    1  UNL1       -0.2570
      5  C         22.2080  -21.7940  -11.0910 C.ar    1  UNL1        0.2640
      6  O         22.8660  -20.9350  -11.6740 O.2     1  UNL1       -0.2670
      7  C         20.7380  -21.7830  -11.1620 C.ar    1  UNL1        0.0590
      8  C         20.0950  -20.8780  -12.0240 C.2     1  UNL1        0.0190
      9  C         18.7050  -20.8710  -12.1120 C.2     1  UNL1        0.0010
     10  C         17.9650  -21.7720  -11.3500 C.2     1  UNL1        0.0020
     11  C         18.6130  -22.6660  -10.4870 C.2     1  UNL1        0.0310
     12  C         20.0110  -22.6720  -10.3680 C.ar    1  UNL1        0.0550
     13  C         24.2490  -22.8790  -10.3010 C.3     1  UNL1        0.2390
     14  C         24.8160  -22.9900  -11.7180 C.2     1  UNL1        0.2360
     15  O         24.4310  -23.8430  -12.5160 O.2     1  UNL1       -0.2720
     16  N         25.6960  -21.9860  -12.0670 N.am    1  UNL1       -0.3590
     17  H         25.6320  -21.1390  -11.5160 H       1  UNL1        0.1620
     18  C         26.1170  -21.8120  -13.4460 C.3     1  UNL1        0.1270
     19  C         25.1260  -20.9890  -14.2810 C.3     1  UNL1        0.0580
     20  C         24.8490  -21.6070  -15.6340 C.2     1  UNL1       -0.0570
     21  C         24.4490  -22.9450  -15.7410 C.2     1  UNL1        0.0070
     22  C         24.2420  -23.5250  -16.9940 C.2     1  UNL1        0.0010
     23  C         24.4330  -22.7740  -18.1530 C.2     1  UNL1        0.0000
     24  C         24.8270  -21.4400  -18.0590 C.2     1  UNL1        0.0010
     25  C         25.0260  -20.8570  -16.8060 C.2     1  UNL1        0.0070
     26  C         19.9910  -24.4040   -8.5460 C.3     1  UNL1        0.2370
     27  C         19.2710  -23.5660   -7.4870 C.2     1  UNL1        0.2400
     28  N         17.9930  -24.0390   -7.2200 N.am    1  UNL1       -0.3250
     29  H         17.6670  -24.7970   -7.8230 H       1  UNL1        0.1690
     30  O         19.8070  -22.5630   -7.0170 O.2     1  UNL1       -0.2710
     31  C         17.0810  -23.5930   -6.2350 C.2     1  UNL1        0.0400
     32  C         17.2600  -23.8720   -4.8730 C.2     1  UNL1        0.0300
     33  C         16.3170  -23.4650   -3.9260 C.2     1  UNL1        0.0020
     34  C         15.1810  -22.7690   -4.3260 C.2     1  UNL1        0.0010
     35  C         14.9960  -22.4650   -5.6720 C.2     1  UNL1        0.0090
     36  C         15.9340  -22.8700   -6.6400 C.2     1  UNL1       -0.0350
     37  C         15.6500  -22.5410   -8.0860 C.3     1  UNL1        0.0500
@<TRIPOS>BOND
     1    23    24    2
     2    23    22    1
     3    24    25    1
     4    22    21    2
     5    25    20    2
     6    21    20    1
     7    20    19    1
     8    19    18    1
     9    18    16    1
    10    15    14    2
    11     9     8    1
    12     9    10    2
    13    16    14   am
    14    16    17    1
    15     8     7    2
    16    14    13    1
    17     6     5    2
    18    10    11    1
    19     7     5   ar
    20     7    12   ar
    21     5     4   ar
    22    11    12    2
    23    12     1   ar
    24     4    13    1
    25     4     2   ar
    26     1     2   ar
    27     1    26    1
    28     2     3    2
    29    26    27    1
    30    37    36    1
    31    29    28    1
    32    27    28   am
    33    27    30    2
    34    28    31    1
    35    36    31    2
    36    36    35    1
    37    31    32    1
    38    35    34    2
    39    32    33    2
    40    34    33    1
