@<TRIPOS>MOLECULE
15844_out_ligand_01.pdbqt
 29 31 0 0 0
SMALL
GASTEIGER

@<TRIPOS>ATOM
      1  C         16.9760  -22.9090   -9.0170 C.2     1  UNL1        0.0800
      2  C         16.2760  -22.0530   -9.8730 C.2     1  UNL1        0.0250
      3  C         16.9470  -21.4410  -10.9320 C.2     1  UNL1        0.0030
      4  C         18.3100  -21.6770  -11.1290 C.2     1  UNL1        0.0170
      5  C         19.0110  -22.5180  -10.2520 C.2     1  UNL1        0.0330
      6  C         18.3430  -23.1390   -9.1930 C.2     1  UNL1        0.0420
      7  S         16.1310  -23.7190   -7.6780 S.O2    1  UNL1        0.2630
      8  O         15.3650  -22.7050   -6.9840 O.2     1  UNL1       -0.2000
      9  O         15.4970  -24.9090   -8.2020 O.2     1  UNL1       -0.2000
     10  N         17.3920  -24.1610   -6.6450 N.pl3   1  UNL1       -0.2810
     11  H         17.3920  -25.1610   -6.4500 H       1  UNL1        0.1790
     12  C         17.7610  -23.2820   -5.5870 C.2     1  UNL1        0.0430
     13  C         17.4420  -23.6360   -4.2760 C.2     1  UNL1        0.0300
     14  C         17.7660  -22.7750   -3.2270 C.2     1  UNL1        0.0030
     15  C         18.4070  -21.5630   -3.4880 C.2     1  UNL1        0.0070
     16  C         18.7220  -21.1970   -4.8020 C.2     1  UNL1       -0.0600
     17  C         19.4450  -19.9130   -5.0840 C.3     1  UNL1        0.0480
     18  C         18.4050  -22.0730   -5.8500 C.2     1  UNL1        0.0370
     19  C         20.4550  -22.8180  -10.4480 C.2     1  UNL1        0.2560
     20  O         20.8600  -23.9140  -10.0820 O.2     1  UNL1       -0.2670
     21  N         21.1870  -21.7870  -11.0060 N.am    1  UNL1       -0.3220
     22  H         20.7060  -20.9070  -11.1190 H       1  UNL1        0.1690
     23  C         22.5600  -21.7870  -11.3540 C.2     1  UNL1        0.0410
     24  C         22.9960  -21.8770  -12.6800 C.2     1  UNL1        0.0300
     25  C         24.3580  -21.8660  -12.9930 C.2     1  UNL1        0.0020
     26  C         25.3050  -21.7640  -11.9830 C.2     1  UNL1        0.0010
     27  C         24.8900  -21.6710  -10.6570 C.2     1  UNL1        0.0090
     28  C         23.5230  -21.6790  -10.3250 C.2     1  UNL1       -0.0350
     29  C         23.1460  -21.5770   -8.8710 C.3     1  UNL1        0.0500
@<TRIPOS>BOND
     1    25    24    1
     2    25    26    2
     3    24    23    2
     4    26    27    1
     5    23    21    1
     6    23    28    1
     7     4     3    2
     8     4     5    1
     9    22    21    1
    10    21    19   am
    11     3     2    1
    12    27    28    2
    13    19     5    1
    14    19    20    2
    15    28    29    1
    16     5     6    2
    17     2     1    2
    18     6     1    1
    19     1     7    1
    20     9     7    2
    21     7     8    2
    22     7    10    1
    23    10    11    1
    24    10    12    1
    25    18    12    2
    26    18    16    1
    27    12    13    1
    28    17    16    1
    29    16    15    2
    30    13    14    2
    31    15    14    1
