@<TRIPOS>MOLECULE
15853_out_ligand_01.pdbqt
 31 34 0 0 0
SMALL
GASTEIGER

@<TRIPOS>ATOM
      1  C         19.8140  -23.3180   -9.3050 C.3     1  UNL1        0.2190
      2  C         18.7340  -22.4660   -9.9590 C.2     1  UNL1        0.0870
      3  N         17.4210  -22.4320   -9.6430 N.2     1  UNL1       -0.2610
      4  C         16.6710  -21.5940  -10.3990 C.2     1  UNL1        0.1170
      5  C         17.1670  -20.8220  -11.4550 C.2     1  UNL1        0.0200
      6  C         18.5220  -20.9000  -11.7710 C.2     1  UNL1        0.0210
      7  C         19.2940  -21.7400  -10.9960 C.2     1  UNL1        0.0600
      8  C         20.7160  -22.0620  -11.0790 C.2     1  UNL1        0.2570
      9  O         21.4640  -21.6410  -11.9390 O.2     1  UNL1       -0.2670
     10  N         21.0010  -22.9300  -10.0440 N.am    1  UNL1       -0.3210
     11  N         20.0800  -22.9830   -7.9170 N.pl3   1  UNL1       -0.2650
     12  H         20.3990  -22.0050   -7.8810 H       1  UNL1        0.1300
     13  C         19.0290  -23.1540   -6.9880 C.2     1  UNL1        0.0260
     14  C         18.2310  -24.3110   -7.0100 C.2     1  UNL1        0.0240
     15  C         17.2230  -24.5210   -6.0660 C.2     1  UNL1        0.0020
     16  C         16.9990  -23.5860   -5.0620 C.2     1  UNL1        0.0010
     17  C         17.8000  -22.4480   -4.9880 C.2     1  UNL1        0.0190
     18  C         18.8280  -22.2380   -5.9250 C.2     1  UNL1        0.0530
     19  C         19.6770  -21.0130   -5.8170 C.2     1  UNL1        0.2510
     20  N         19.2220  -19.9960   -5.0200 N.am    1  UNL1       -0.3660
     21  H         18.5190  -20.1560   -4.3120 H       1  UNL1        0.1590
     22  H         19.8820  -19.2470   -4.8510 H       1  UNL1        0.1590
     23  O         20.7630  -20.9240   -6.3780 O.2     1  UNL1       -0.2680
     24  C         22.2690  -23.6060   -9.8830 C.3     1  UNL1        0.1660
     25  C         23.3890  -22.8940  -10.6030 C.2     1  UNL1       -0.0400
     26  C         23.8440  -23.3650  -11.8450 C.2     1  UNL1        0.0120
     27  C         24.8960  -22.7230  -12.5000 C.2     1  UNL1        0.0430
     28  C         25.4920  -21.6140  -11.9130 C.2     1  UNL1        0.1160
     29  F         26.5030  -20.9980  -12.5410 F       1  UNL1       -0.2060
     30  C         25.0600  -21.1350  -10.6820 C.2     1  UNL1        0.0430
     31  C         24.0090  -21.7750  -10.0240 C.2     1  UNL1        0.0120
@<TRIPOS>BOND
     1    29    28    1
     2    27    28    2
     3    27    26    1
     4     9     8    2
     5    28    30    1
     6    26    25    2
     7     6     5    2
     8     6     7    1
     9     5     4    1
    10     8     7    1
    11     8    10   am
    12     7     2    2
    13    30    31    2
    14    25    31    1
    15    25    24    1
    16     4     3    2
    17    10    24    1
    18    10     1    1
    19     2     3    1
    20     2     1    1
    21     1    11    1
    22    11    12    1
    23    11    13    1
    24    14    13    2
    25    14    15    1
    26    13    18    1
    27    23    19    2
    28    15    16    2
    29    18    19    1
    30    18    17    2
    31    19    20   am
    32    16    17    1
    33    20    22    1
    34    20    21    1
