@<TRIPOS>MOLECULE
15855_out_ligand_01.pdbqt
 30 32 0 0 0
SMALL
GASTEIGER

@<TRIPOS>ATOM
      1  C         18.9380  -22.2490  -10.2270 C.2     1  UNL1        0.0720
      2  C         20.2550  -22.5750   -9.8640 C.2     1  UNL1        0.0450
      3  C         21.3280  -22.1490  -10.6570 C.2     1  UNL1        0.0800
      4  C         21.1110  -21.3930  -11.8110 C.2     1  UNL1        0.0280
      5  C         19.8050  -21.0640  -12.1720 C.2     1  UNL1        0.0450
      6  C         18.7340  -21.4900  -11.3850 C.2     1  UNL1        0.1320
      7  F         17.4970  -21.1470  -11.7750 F       1  UNL1       -0.2050
      8  C         17.8230  -22.7400   -9.3590 C.2     1  UNL1        0.2590
      9  N         17.9570  -22.5180   -8.0000 N.am    1  UNL1       -0.3220
     10  H         18.7890  -22.0210   -7.7100 H       1  UNL1        0.1690
     11  O         16.8830  -23.2970   -9.9130 O.2     1  UNL1       -0.2670
     12  C         17.0760  -22.8950   -6.9540 C.2     1  UNL1        0.0410
     13  C         15.9610  -23.7090   -7.1820 C.2     1  UNL1        0.0300
     14  C         15.1150  -24.0750   -6.1380 C.2     1  UNL1        0.0030
     15  C         15.3690  -23.6340   -4.8450 C.2     1  UNL1        0.0070
     16  C         16.4760  -22.8160   -4.5750 C.2     1  UNL1       -0.0540
     17  C         16.6970  -22.3740   -3.1530 C.3     1  UNL1        0.0490
     18  C         17.3400  -22.4340   -5.6340 C.2     1  UNL1       -0.0290
     19  C         18.5330  -21.5470   -5.3630 C.3     1  UNL1        0.0510
     20  S         22.9810  -22.5800  -10.1740 S.O2    1  UNL1        0.2590
     21  O         22.8740  -23.6090   -9.1660 O.2     1  UNL1       -0.2010
     22  O         23.7270  -21.3610   -9.9520 O.2     1  UNL1       -0.2010
     23  N         23.5690  -23.3100  -11.5550 N.3     1  UNL1       -0.3110
     24  H         23.3060  -24.2870  -11.6740 H       1  UNL1        0.1720
     25  C         24.7430  -22.7750  -12.2500 C.3     1  UNL1        0.0930
     26  C         25.6580  -23.9210  -12.6720 C.3     1  UNL1        0.0260
     27  C         26.9180  -23.4080  -13.3750 C.3     1  UNL1        0.0020
     28  C         26.7000  -22.1020  -14.1420 C.3     1  UNL1        0.0000
     29  C         25.2640  -21.9610  -14.6260 C.3     1  UNL1        0.0020
     30  C         24.2660  -21.9620  -13.4640 C.3     1  UNL1        0.0260
@<TRIPOS>BOND
     1    29    28    1
     2    29    30    1
     3    28    27    1
     4    30    25    1
     5    27    26    1
     6    26    25    1
     7    25    23    1
     8     5     4    2
     9     5     6    1
    10     4     3    1
    11     7     6    1
    12    24    23    1
    13    23    20    1
    14     6     1    2
    15     3    20    1
    16     3     2    2
    17     1     2    1
    18     1     8    1
    19    20    22    2
    20    20    21    2
    21    11     8    2
    22     8     9   am
    23     9    10    1
    24     9    12    1
    25    13    12    2
    26    13    14    1
    27    12    18    1
    28    14    15    2
    29    18    19    1
    30    18    16    2
    31    15    16    1
    32    16    17    1
