@<TRIPOS>MOLECULE
15879_out_ligand_01.pdbqt
 33 37 0 0 0
SMALL
GASTEIGER

@<TRIPOS>ATOM
      1  C         19.9970  -22.5390  -10.6000 C.2     1  UNL1        0.0420
      2  C         21.2820  -23.0730  -10.7320 C.2     1  UNL1        0.0310
      3  C         22.1590  -22.5650  -11.6950 C.2     1  UNL1        0.0190
      4  C         21.7490  -21.5330  -12.5480 C.2     1  UNL1        0.0320
      5  C         20.4630  -20.9970  -12.4190 C.2     1  UNL1        0.0190
      6  C         19.5890  -21.5060  -11.4530 C.2     1  UNL1        0.0310
      7  N         19.0970  -23.0680   -9.6260 N.am    1  UNL1       -0.2670
      8  C         17.8300  -22.4930   -9.5610 C.2     1  UNL1        0.3260
      9  N         17.0720  -22.7930   -8.4670 N.am    1  UNL1       -0.3340
     10  O         17.3300  -21.7760  -10.4280 O.2     1  UNL1       -0.2470
     11  C         17.6220  -23.3370   -7.2550 C.3     1  UNL1        0.1270
     12  H         16.2170  -22.2520   -8.4220 H       1  UNL1        0.1650
     13  C         18.5960  -24.4340   -7.6110 C.3     1  UNL1        0.0920
     14  C         18.3360  -22.2650   -6.4830 C.2     1  UNL1       -0.0020
     15  C         19.6850  -23.7400   -8.4360 C.3     1  UNL1        0.1490
     16  C         20.7260  -24.8200   -8.7860 C.3     1  UNL1        0.0720
     17  O         20.4100  -22.7660   -7.6440 O.2     1  UNL1       -0.3190
     18  C         19.6910  -22.0390   -6.7370 C.2     1  UNL1        0.0800
     19  C         20.3810  -21.0420   -6.0500 C.2     1  UNL1        0.0370
     20  C         19.7140  -20.2540   -5.1120 C.2     1  UNL1        0.0030
     21  C         18.3590  -20.4630   -4.8630 C.2     1  UNL1        0.0010
     22  C         17.6680  -21.4630   -5.5480 C.2     1  UNL1        0.0120
     23  C         22.7150  -21.0280  -13.5620 C.2     1  UNL1        0.2510
     24  O         22.3580  -20.2010  -14.3930 O.2     1  UNL1       -0.2680
     25  N         24.0020  -21.5150  -13.4720 N.am    1  UNL1       -0.3530
     26  H         24.2770  -21.9990  -12.6280 H       1  UNL1        0.1630
     27  C         25.0620  -21.0100  -14.3180 C.3     1  UNL1        0.1620
     28  C         25.0050  -21.6220  -15.6860 C.2     1  UNL1       -0.0230
     29  C         24.9490  -20.8290  -16.8370 C.2     1  UNL1        0.0120
     30  C         24.9140  -21.4320  -18.0910 C.2     1  UNL1        0.0200
     31  C         24.9370  -22.8150  -18.1530 C.2     1  UNL1        0.1160
     32  N         24.9930  -23.6160  -17.0670 N.2     1  UNL1       -0.2730
     33  C         25.0260  -23.0020  -15.8620 C.2     1  UNL1        0.1240
@<TRIPOS>BOND
     1    31    30    2
     2    31    32    1
     3    30    29    1
     4    32    33    2
     5    29    28    2
     6    33    28    1
     7    28    27    1
     8    24    23    2
     9    27    25    1
    10    23    25   am
    11    23     4    1
    12    25    26    1
    13     4     5    2
    14     4     3    1
    15     5     6    1
    16     3     2    2
    17     6     1    2
    18     2     1    1
    19     1     7    1
    20    10     8    2
    21     7     8   am
    22     7    15    1
    23     8     9   am
    24    16    15    1
    25     9    12    1
    26     9    11    1
    27    15    17    1
    28    15    13    1
    29    17    18    1
    30    13    11    1
    31    11    14    1
    32    18    14    2
    33    18    19    1
    34    14    22    1
    35    19    20    2
    36    22    21    2
    37    20    21    1
