@<TRIPOS>MOLECULE
15880_out_ligand_01.pdbqt
 27 29 0 0 0
SMALL
GASTEIGER

@<TRIPOS>ATOM
      1  N         19.5900  -22.3750   -9.1690 N.am    1  UNL1       -0.3220
      2  C         19.4040  -23.5660   -8.4900 C.2     1  UNL1        0.2570
      3  O         20.0410  -24.6030   -8.6240 O.2     1  UNL1       -0.2670
      4  H         19.0770  -21.5790   -8.8090 H       1  UNL1        0.1690
      5  C         20.4710  -22.1300  -10.2460 C.2     1  UNL1        0.0420
      6  C         21.8520  -22.3220  -10.1270 C.2     1  UNL1        0.0540
      7  C         22.6980  -22.0480  -11.2060 C.2     1  UNL1        0.0760
      8  C         22.1880  -21.6010  -12.4200 C.2     1  UNL1        0.0250
      9  C         20.8120  -21.4330  -12.5570 C.2     1  UNL1        0.0100
     10  C         19.9410  -21.6950  -11.4810 C.2     1  UNL1       -0.0350
     11  C         18.4650  -21.4880  -11.6940 C.3     1  UNL1        0.0500
     12  S         24.4430  -22.2790  -11.0030 S.O2    1  UNL1        0.2390
     13  O         24.9410  -22.9580  -12.1760 O.2     1  UNL1       -0.2060
     14  O         25.0160  -21.0470  -10.5160 O.2     1  UNL1       -0.2060
     15  N         24.5110  -23.3950   -9.7420 N.3     1  UNL1       -0.2250
     16  H         23.7670  -24.0830   -9.8720 H       1  UNL1        0.1360
     17  H         24.4610  -22.9630   -8.8190 H       1  UNL1        0.1360
     18  C         18.3680  -23.4960   -7.4290 C.2     1  UNL1        0.0430
     19  C         17.3110  -24.4110   -7.5400 C.2     1  UNL1        0.0180
     20  C         16.3320  -24.4600   -6.5550 C.2     1  UNL1        0.0020
     21  C         16.4070  -23.5970   -5.4630 C.2     1  UNL1        0.0120
     22  C         17.4450  -22.6570   -5.3460 C.2     1  UNL1       -0.0250
     23  C         17.4880  -21.7850   -4.2460 C.2     1  UNL1        0.0120
     24  C         18.4460  -22.5810   -6.3460 C.2     1  UNL1       -0.0100
     25  C         18.4930  -20.8290   -4.1240 C.2     1  UNL1        0.0010
     26  C         19.4680  -20.7230   -5.1070 C.2     1  UNL1        0.0010
     27  C         19.4420  -21.5830   -6.2070 C.2     1  UNL1        0.0130
@<TRIPOS>BOND
     1     9     8    2
     2     9    10    1
     3     8     7    1
     4    13    12    2
     5    11    10    1
     6    10     5    2
     7     7    12    1
     8     7     6    2
     9    12    14    2
    10    12    15    1
    11     5     6    1
    12     5     1    1
    13    16    15    1
    14    15    17    1
    15     1     4    1
    16     1     2   am
    17     3     2    2
    18     2    18    1
    19    19    18    2
    20    19    20    1
    21    18    24    1
    22    20    21    2
    23    24    27    1
    24    24    22    2
    25    27    26    2
    26    21    22    1
    27    22    23    1
    28    26    25    1
    29    23    25    2
