@<TRIPOS>MOLECULE
15886_out_ligand_01.pdbqt
 38 43 0 0 0
SMALL
GASTEIGER

@<TRIPOS>ATOM
      1  C         20.6790  -22.6770   -9.4810 C.2     1  UNL1        0.0320
      2  C         20.6510  -22.0390  -10.7250 C.2     1  UNL1        0.0170
      3  C         21.7610  -22.1020  -11.5700 C.2     1  UNL1        0.0090
      4  C         22.9150  -22.7940  -11.1760 C.2     1  UNL1       -0.0480
      5  C         22.9440  -23.4100   -9.9150 C.2     1  UNL1        0.0090
      6  C         21.8340  -23.3530   -9.0710 C.2     1  UNL1        0.0170
      7  C         24.1260  -22.8440  -12.0790 C.3     1  UNL1        0.1210
      8  S         25.6740  -22.5370  -11.1800 S.3     1  UNL1       -0.0850
      9  C         26.1850  -21.0520  -11.9200 C.ar    1  UNL1        0.1970
     10  N         26.4490  -19.9560  -11.2460 N.ar    1  UNL1       -0.1220
     11  N         26.6080  -18.9380  -12.1450 N.ar    1  UNL1       -0.1260
     12  C         26.4570  -19.4310  -13.3580 C.ar    1  UNL1        0.1930
     13  N         26.1730  -20.7890  -13.2790 N.ar    1  UNL1       -0.2670
     14  C         26.6560  -18.6500  -14.5410 C.2     1  UNL1        0.1230
     15  C         27.1210  -17.3500  -14.6740 C.2     1  UNL1        0.0430
     16  C         27.1160  -17.0410  -16.0570 C.2     1  UNL1        0.0270
     17  C         26.6410  -18.1580  -16.6930 C.2     1  UNL1        0.1420
     18  O         26.3580  -19.1300  -15.7910 O.2     1  UNL1       -0.3190
     19  C         25.8640  -21.6670  -14.3430 C.2     1  UNL1        0.0820
     20  C         26.8090  -22.6090  -14.7730 C.2     1  UNL1        0.0330
     21  C         26.5000  -23.4680  -15.8300 C.2     1  UNL1        0.0020
     22  C         25.2530  -23.3970  -16.4520 C.2     1  UNL1        0.0030
     23  C         24.3070  -22.4710  -16.0140 C.2     1  UNL1        0.0440
     24  C         24.6140  -21.6130  -14.9620 C.2     1  UNL1        0.1430
     25  F         23.6530  -20.7980  -14.5100 F       1  UNL1       -0.2040
     26  C         19.4780  -22.5940   -8.6050 C.2     1  UNL1        0.2560
     27  O         18.3730  -22.5870   -9.1300 O.2     1  UNL1       -0.2670
     28  N         19.7570  -22.5730   -7.2510 N.am    1  UNL1       -0.3230
     29  H         20.7190  -22.7380   -6.9830 H       1  UNL1        0.1690
     30  C         18.8380  -22.4510   -6.1860 C.2     1  UNL1        0.0370
     31  C         18.8190  -21.3620   -5.2920 C.2     1  UNL1        0.0320
     32  C         17.8880  -21.3030   -4.2470 C.2     1  UNL1        0.0420
     33  C         16.9930  -22.3410   -4.1220 C.2     1  UNL1        0.1050
     34  C         17.0050  -23.4070   -4.9880 C.2     1  UNL1        0.1070
     35  O         16.0230  -22.4530   -3.1780 O.2     1  UNL1       -0.3230
     36  C         17.9120  -23.4940   -6.0240 C.2     1  UNL1        0.0690
     37  O         16.0410  -24.3240   -4.6990 O.2     1  UNL1       -0.3230
     38  C         15.4190  -23.7090   -3.5530 C.3     1  UNL1        0.3520
@<TRIPOS>BOND
     1    17    16    2
     2    17    18    1
     3    22    23    2
     4    22    21    1
     5    16    15    1
     6    23    24    1
     7    21    20    2
     8    18    14    1
     9    24    25    1
    10    24    19    2
    11    20    19    1
    12    15    14    2
    13    14    12    1
    14    19    13    1
    15    12    13   ar
    16    12    11   ar
    17    13     9   ar
    18    11    10   ar
    19     7     8    1
    20     7     4    1
    21     9    10   ar
    22     9     8    1
    23     3     4    2
    24     3     2    1
    25     4     5    1
    26     2     1    2
    27     5     6    2
    28     1     6    1
    29     1    26    1
    30    27    26    2
    31    26    28   am
    32    28    29    1
    33    28    30    1
    34    30    36    2
    35    30    31    1
    36    36    34    1
    37    31    32    2
    38    34    37    1
    39    34    33    2
    40    37    38    1
    41    32    33    1
    42    33    35    1
    43    38    35    1
