@<TRIPOS>MOLECULE
15890_out_ligand_01.pdbqt
 32 35 0 0 0
SMALL
GASTEIGER

@<TRIPOS>ATOM
      1  C         19.4080  -22.4690   -9.9920 C.2     1  UNL1        0.0400
      2  C         18.7770  -21.5230  -10.8120 C.2     1  UNL1        0.0180
      3  C         19.4830  -20.8880  -11.8410 C.2     1  UNL1        0.0030
      4  C         20.8290  -21.1880  -12.0680 C.2     1  UNL1        0.0300
      5  C         21.4500  -22.1290  -11.2600 C.2     1  UNL1        0.0460
      6  C         20.7550  -22.7460  -10.2090 C.2     1  UNL1       -0.0140
      7  C         21.6710  -23.6490   -9.4370 C.3     1  UNL1        0.0620
      8  C         23.0410  -23.2370   -9.9780 C.3     1  UNL1        0.1380
      9  N         22.7930  -22.5520  -11.2500 N.am    1  UNL1       -0.2990
     10  C         23.8470  -22.2550  -12.0970 C.2     1  UNL1        0.3270
     11  O         25.0110  -22.3740  -11.7180 O.2     1  UNL1       -0.2460
     12  N         23.4760  -21.9130  -13.3770 N.am    1  UNL1       -0.3090
     13  H         22.5620  -22.2510  -13.6420 H       1  UNL1        0.1700
     14  C         18.6080  -23.0940   -8.9110 C.2     1  UNL1        0.2520
     15  O         19.1270  -23.3490   -7.8310 O.2     1  UNL1       -0.2680
     16  N         17.2730  -23.2890   -9.1830 N.am    1  UNL1       -0.3570
     17  H         16.8720  -22.8020   -9.9760 H       1  UNL1        0.1620
     18  C         16.3540  -23.7420   -8.1550 C.3     1  UNL1        0.1270
     19  C         15.7170  -22.5900   -7.3690 C.3     1  UNL1        0.0600
     20  C         15.8590  -22.7560   -5.8780 C.2     1  UNL1       -0.0390
     21  C         16.9200  -23.4780   -5.3250 C.2     1  UNL1        0.0100
     22  C         17.0340  -23.5870   -3.9440 C.2     1  UNL1        0.0200
     23  C         16.0820  -22.9630   -3.1560 C.2     1  UNL1        0.1160
     24  N         15.0460  -22.2530   -3.6510 N.2     1  UNL1       -0.2730
     25  C         14.9550  -22.1710   -4.9970 C.2     1  UNL1        0.1230
     26  C         24.3010  -21.4440  -14.4170 C.2     1  UNL1        0.0360
     27  C         24.4400  -22.2620  -15.5470 C.2     1  UNL1        0.0320
     28  C         25.2290  -21.8550  -16.6250 C.2     1  UNL1        0.0440
     29  C         25.8730  -20.6260  -16.5750 C.2     1  UNL1        0.1160
     30  F         26.6300  -20.2330  -17.6080 F       1  UNL1       -0.2060
     31  C         25.7400  -19.7980  -15.4690 C.2     1  UNL1        0.0440
     32  C         24.9500  -20.2050  -14.3900 C.2     1  UNL1        0.0320
@<TRIPOS>BOND
     1    30    29    1
     2    28    29    2
     3    28    27    1
     4    29    31    1
     5    27    26    2
     6    31    32    2
     7    26    32    1
     8    26    12    1
     9    13    12    1
    10    12    10   am
    11    10    11    2
    12    10     9   am
    13     4     3    2
    14     4     5    1
    15     3     2    1
    16     5     9    1
    17     5     6    2
    18     9     8    1
    19     2     1    2
    20     6     1    1
    21     6     7    1
    22     1    14    1
    23     8     7    1
    24    17    16    1
    25    16    14   am
    26    16    18    1
    27    14    15    2
    28    18    19    1
    29    19    20    1
    30    20    21    2
    31    20    25    1
    32    21    22    1
    33    25    24    2
    34    22    23    2
    35    24    23    1
