@<TRIPOS>MOLECULE
15892_out_ligand_01.pdbqt
 33 36 0 0 0
SMALL
GASTEIGER

@<TRIPOS>ATOM
      1  O         21.0450  -22.1680   -7.5230 O.2     1  UNL1       -0.2720
      2  C         20.1640  -22.8290   -8.0720 C.2     1  UNL1        0.2350
      3  N         20.1710  -23.2020   -9.4090 N.am    1  UNL1       -0.3260
      4  H         19.4650  -23.8670   -9.7000 H       1  UNL1        0.1690
      5  C         21.1080  -22.8340  -10.3960 C.2     1  UNL1        0.0340
      6  C         22.4320  -23.2790  -10.4170 C.2     1  UNL1        0.0310
      7  C         23.3140  -22.8440  -11.4120 C.2     1  UNL1        0.0270
      8  C         22.8630  -21.9720  -12.4040 C.2     1  UNL1        0.0750
      9  C         21.5440  -21.5190  -12.3990 C.2     1  UNL1        0.0270
     10  C         20.6740  -21.9430  -11.3880 C.2     1  UNL1        0.0310
     11  S         23.9930  -21.3990  -13.6490 S.O2    1  UNL1        0.2470
     12  O         25.1400  -20.8670  -12.9480 O.2     1  UNL1       -0.2050
     13  O         23.2570  -20.5960  -14.6010 O.2     1  UNL1       -0.2050
     14  N         24.4970  -22.8370  -14.3620 N.pl3   1  UNL1       -0.1590
     15  H         25.2530  -23.2470  -13.8140 H       1  UNL1        0.1480
     16  C         24.8560  -22.7270  -15.7560 C.2     1  UNL1        0.1580
     17  N         23.9890  -23.1280  -16.6520 N.2     1  UNL1       -0.2400
     18  C         24.4950  -22.8690  -17.9120 C.2     1  UNL1        0.1260
     19  C         25.7190  -22.2340  -17.9460 C.2     1  UNL1        0.0720
     20  S         26.2580  -21.9440  -16.3450 S.3     1  UNL1       -0.0680
     21  C         18.9120  -23.2660   -7.2740 C.3     1  UNL1        0.1440
     22  C         17.6400  -23.3580   -8.1240 C.2     1  UNL1       -0.0410
     23  C         16.6740  -24.3600   -7.9420 C.2     1  UNL1        0.0080
     24  C         15.5080  -24.3760   -8.7100 C.2     1  UNL1        0.0010
     25  C         15.2870  -23.3880   -9.6670 C.2     1  UNL1        0.0000
     26  C         16.2340  -22.3850   -9.8610 C.2     1  UNL1        0.0010
     27  C         17.4010  -22.3670   -9.0950 C.2     1  UNL1        0.0080
     28  C         18.7490  -22.4980   -5.9610 C.2     1  UNL1       -0.0410
     29  C         18.1020  -23.1210   -4.8790 C.2     1  UNL1        0.0080
     30  C         17.9100  -22.4420   -3.6740 C.2     1  UNL1        0.0010
     31  C         18.3570  -21.1310   -3.5330 C.2     1  UNL1        0.0000
     32  C         18.9940  -20.4980   -4.5960 C.2     1  UNL1        0.0010
     33  C         19.1860  -21.1730   -5.8040 C.2     1  UNL1        0.0080
@<TRIPOS>BOND
     1    19    18    2
     2    19    20    1
     3    18    17    1
     4    17    16    2
     5    20    16    1
     6    16    14    1
     7    13    11    2
     8    14    15    1
     9    14    11    1
    10    11    12    2
    11    11     8    1
    12     8     9    2
    13     8     7    1
    14     9    10    1
    15     7     6    2
    16    10     5    2
    17     6     5    1
    18     5     3    1
    19    26    25    2
    20    26    27    1
    21     4     3    1
    22    25    24    1
    23     3     2   am
    24    27    22    2
    25    24    23    2
    26    22    23    1
    27    22    21    1
    28     2     1    2
    29     2    21    1
    30    21    28    1
    31    28    33    2
    32    28    29    1
    33    33    32    1
    34    29    30    2
    35    32    31    2
    36    30    31    1
