@<TRIPOS>MOLECULE
15891_out_ligand_01.pdbqt
 32 36 0 0 0
SMALL
GASTEIGER

@<TRIPOS>ATOM
      1  C         23.0450  -22.8820  -11.2670 C.2     1  UNL1        0.0320
      2  C         21.9710  -22.1540  -11.7880 C.2     1  UNL1        0.0180
      3  C         20.7580  -22.1250  -11.0970 C.2     1  UNL1        0.0150
      4  C         20.6130  -22.8350   -9.8980 C.2     1  UNL1       -0.0070
      5  C         21.6900  -23.5750   -9.3920 C.2     1  UNL1        0.0150
      6  C         22.9040  -23.6050  -10.0780 C.2     1  UNL1        0.0180
      7  C         19.3440  -22.8220   -9.1910 C.ar    1  UNL1        0.0690
      8  N         18.1930  -23.2820   -9.7560 N.ar    1  UNL1       -0.2760
      9  N         17.1280  -23.2000   -8.9570 N.ar    1  UNL1       -0.1730
     10  H         18.0720  -23.6690  -10.6840 H       1  UNL1        0.1890
     11  C         17.5890  -22.6720   -7.8070 C.ar    1  UNL1        0.0960
     12  C         18.9960  -22.4060   -7.9140 C.ar    1  UNL1        0.0020
     13  C         16.6550  -22.4550   -6.6840 C.2     1  UNL1        0.0010
     14  C         19.9540  -21.8410   -6.9220 C.3     1  UNL1        0.0440
     15  C         19.3470  -21.2840   -5.6450 C.3     1  UNL1        0.0090
     16  C         18.5080  -22.3220   -4.9090 C.3     1  UNL1        0.0400
     17  C         17.0630  -22.3010   -5.3440 C.2     1  UNL1       -0.0450
     18  C         16.0850  -22.1370   -4.3380 C.2     1  UNL1        0.0080
     19  C         14.7260  -22.1050   -4.6450 C.2     1  UNL1        0.0010
     20  C         14.3180  -22.2420   -5.9630 C.2     1  UNL1        0.0010
     21  C         15.2720  -22.4170   -6.9670 C.2     1  UNL1        0.0140
     22  C         24.3240  -22.9600  -12.0030 C.2     1  UNL1        0.2530
     23  N         25.3290  -22.0430  -11.7060 N.am    1  UNL1       -0.3480
     24  C         25.2470  -21.0380  -10.6540 C.3     1  UNL1        0.1530
     25  O         24.4260  -23.8390  -12.8550 O.2     1  UNL1       -0.2670
     26  C         26.4740  -21.9650  -12.6080 C.3     1  UNL1        0.1640
     27  C         26.4270  -20.7320  -13.4840 C.2     1  UNL1       -0.0400
     28  C         27.1210  -19.5710  -13.1070 C.2     1  UNL1        0.0090
     29  C         27.0890  -18.4340  -13.9180 C.2     1  UNL1        0.0010
     30  C         26.3620  -18.4460  -15.1080 C.2     1  UNL1        0.0000
     31  C         25.6670  -19.5930  -15.4900 C.2     1  UNL1        0.0010
     32  C         25.7010  -20.7320  -14.6840 C.2     1  UNL1        0.0090
@<TRIPOS>BOND
     1    31    30    2
     2    31    32    1
     3    30    29    1
     4    32    27    2
     5    29    28    2
     6    27    28    1
     7    27    26    1
     8    25    22    2
     9    26    23    1
    10    22    23   am
    11    22     1    1
    12     2     1    2
    13     2     3    1
    14    23    24    1
    15     1     6    1
    16     3     4    2
    17    10     8    1
    18     6     5    2
    19     4     5    1
    20     4     7    1
    21     8     7   ar
    22     8     9   ar
    23     7    12   ar
    24     9    11   ar
    25    12    11   ar
    26    12    14    1
    27    11    13    1
    28    21    13    2
    29    21    20    1
    30    14    15    1
    31    13    17    1
    32    20    19    2
    33    15    16    1
    34    17    16    1
    35    17    18    2
    36    19    18    1
