@<TRIPOS>MOLECULE
1589_out_ligand_01.pdbqt
 43 47 0 0 0
SMALL
GASTEIGER

@<TRIPOS>ATOM
      1  N         20.1780  -23.0060   -8.0170 N.pl3   1  UNL1       -0.3370
      2  C         20.3010  -21.9940   -7.0790 C.2     1  UNL1        0.1040
      3  C         21.5860  -21.4940   -7.1910 C.2     1  UNL1        0.0490
      4  C         22.2400  -22.1670   -8.2520 C.2     1  UNL1       -0.0050
      5  C         23.5310  -22.0720   -8.8070 C.2     1  UNL1        0.0440
      6  C         23.8930  -22.9240   -9.8510 C.2     1  UNL1        0.0430
      7  C         22.9890  -23.8560  -10.3540 C.2     1  UNL1        0.0320
      8  C         21.6960  -23.9580   -9.8280 C.2     1  UNL1        0.0330
      9  C         21.3400  -23.1050   -8.7690 C.2     1  UNL1        0.0450
     10  N         25.2270  -22.9080  -10.3490 N.pl3   1  UNL1       -0.2810
     11  H         25.9650  -23.1960   -9.7080 H       1  UNL1        0.1790
     12  S         25.7180  -21.5410  -11.2210 S.O2    1  UNL1        0.2630
     13  O         27.1210  -21.7550  -11.5230 O.2     1  UNL1       -0.2000
     14  O         25.2780  -20.3360  -10.5500 O.2     1  UNL1       -0.2000
     15  C         24.8200  -21.7070  -12.7470 C.2     1  UNL1        0.0800
     16  C         23.6290  -20.9960  -12.9280 C.2     1  UNL1        0.0250
     17  C         22.9380  -21.1100  -14.1330 C.2     1  UNL1        0.0020
     18  C         23.4480  -21.9120  -15.1600 C.2     1  UNL1        0.0160
     19  C         24.6560  -22.6130  -14.9950 C.2     1  UNL1        0.0490
     20  C         25.3440  -22.4990  -13.7760 C.2     1  UNL1        0.0410
     21  C         25.2310  -23.4510  -16.1130 C.3     1  UNL1        0.4170
     22  F         24.2720  -24.1210  -16.8110 F       1  UNL1       -0.1660
     23  F         25.9200  -22.7230  -17.0380 F       1  UNL1       -0.1660
     24  F         26.0970  -24.3980  -15.6590 F       1  UNL1       -0.1660
     25  C         19.2970  -21.5920   -6.1160 C.2     1  UNL1        0.2730
     26  O         19.4210  -20.5830   -5.4330 O.2     1  UNL1       -0.2660
     27  N         18.1940  -22.4230   -6.1410 N.am    1  UNL1       -0.3220
     28  H         18.1570  -23.0800   -6.9090 H       1  UNL1        0.1690
     29  C         17.0660  -22.3770   -5.2980 C.2     1  UNL1        0.0350
     30  C         17.1180  -22.5980   -3.9210 C.2     1  UNL1        0.0290
     31  C         15.9480  -22.5580   -3.1540 C.2     1  UNL1        0.0020
     32  C         14.7210  -22.2980   -3.7570 C.2     1  UNL1        0.0000
     33  C         14.6590  -22.0840   -5.1320 C.2     1  UNL1        0.0020
     34  C         15.8260  -22.1250   -5.8990 C.2     1  UNL1        0.0290
     35  C         19.0050  -23.8760   -8.1690 C.3     1  UNL1        0.1680
     36  C         17.9040  -23.2680   -9.0150 C.2     1  UNL1       -0.0340
     37  C         16.5530  -23.6440   -8.8530 C.2     1  UNL1       -0.0540
     38  C         15.5670  -23.0270   -9.6410 C.2     1  UNL1        0.0080
     39  C         16.1210  -24.7060   -7.8750 C.3     1  UNL1        0.0490
     40  C         15.8990  -22.0380  -10.5680 C.2     1  UNL1        0.0070
     41  C         17.2260  -21.6500  -10.7350 C.2     1  UNL1       -0.0610
     42  C         17.5920  -20.5810  -11.7190 C.3     1  UNL1        0.0480
     43  C         18.2130  -22.2480   -9.9420 C.2     1  UNL1        0.0160
@<TRIPOS>BOND
     1    23    21    1
     2    22    21    1
     3    21    24    1
     4    21    19    1
     5    18    19    2
     6    18    17    1
     7    19    20    1
     8    17    16    2
     9    20    15    2
    10    16    15    1
    11    15    12    1
    12    42    41    1
    13    13    12    2
    14    12    14    2
    15    12    10    1
    16    41    40    2
    17    41    43    1
    18    40    38    1
    19     7     6    2
    20     7     8    1
    21    10     6    1
    22    10    11    1
    23    43    36    2
    24     6     5    1
    25     8     9    2
    26    38    37    2
    27    36    37    1
    28    36    35    1
    29    37    39    1
    30     5     4    2
    31     9     4    1
    32     9     1    1
    33     4     3    1
    34    35     1    1
    35     1     2    1
    36     3     2    2
    37     2    25    1
    38    28    27    1
    39    27    25   am
    40    27    29    1
    41    25    26    2
    42    34    29    2
    43    34    33    1
    44    29    30    1
    45    33    32    2
    46    30    31    2
    47    32    31    1
