@<TRIPOS>MOLECULE
15905_out_ligand_01.pdbqt
 32 35 0 0 0
SMALL
GASTEIGER

@<TRIPOS>ATOM
      1  C         21.5880  -22.3270   -9.9350 C.2     1  UNL1        0.0320
      2  C         20.4430  -22.5930  -10.6920 C.2     1  UNL1        0.0190
      3  C         19.3010  -23.1130  -10.0760 C.2     1  UNL1        0.0310
      4  C         19.2840  -23.3670   -8.7000 C.2     1  UNL1        0.0420
      5  C         20.4490  -23.1510   -7.9600 C.2     1  UNL1        0.0310
      6  C         21.5950  -22.6260   -8.5690 C.2     1  UNL1        0.0190
      7  N         18.1030  -23.9680   -8.1730 N.pl3   1  UNL1       -0.2810
      8  H         17.9870  -24.9780   -8.2520 H       1  UNL1        0.1790
      9  S         16.6080  -23.1890   -8.0720 S.O2    1  UNL1        0.2650
     10  O         16.8170  -21.8230   -8.5030 O.2     1  UNL1       -0.2000
     11  O         15.6950  -24.0840   -8.7540 O.2     1  UNL1       -0.2000
     12  C         16.1960  -23.2460   -6.3500 C.2     1  UNL1        0.1090
     13  C         15.0690  -23.9730   -5.9270 C.2     1  UNL1        0.0280
     14  C         14.7550  -24.0370   -4.5760 C.2     1  UNL1        0.0030
     15  C         15.5560  -23.3710   -3.6570 C.2     1  UNL1        0.0140
     16  C         16.6710  -22.6280   -4.0850 C.2     1  UNL1       -0.0060
     17  C         17.4640  -21.9460   -3.1530 C.2     1  UNL1        0.0150
     18  C         17.0110  -22.5490   -5.4560 C.2     1  UNL1        0.0900
     19  C         18.5560  -21.2030   -3.5790 C.2     1  UNL1        0.0200
     20  C         18.8180  -21.1680   -4.9300 C.2     1  UNL1        0.1170
     21  N         18.0740  -21.8150   -5.8530 N.2     1  UNL1       -0.2590
     22  C         22.7870  -21.7710  -10.6220 C.2     1  UNL1        0.2560
     23  O         23.5360  -21.0470   -9.9790 O.2     1  UNL1       -0.2670
     24  N         22.9410  -22.1770  -11.9350 N.am    1  UNL1       -0.3230
     25  H         22.3040  -22.8860  -12.2740 H       1  UNL1        0.1690
     26  C         23.9510  -21.7830  -12.8390 C.2     1  UNL1        0.0350
     27  C         25.3130  -22.0220  -12.6390 C.2     1  UNL1        0.0310
     28  C         26.2550  -21.5940  -13.5810 C.2     1  UNL1        0.0210
     29  C         25.8360  -20.9230  -14.7270 C.2     1  UNL1        0.0110
     30 BR         27.1100  -20.3450  -15.9980 Br      1  UNL1       -0.0510
     31  C         24.4840  -20.6750  -14.9390 C.2     1  UNL1        0.0210
     32  C         23.5450  -21.1050  -13.9950 C.2     1  UNL1        0.0310
@<TRIPOS>BOND
     1    30    29    1
     2    31    29    2
     3    31    32    1
     4    29    28    1
     5    32    26    2
     6    28    27    2
     7    26    27    1
     8    26    24    1
     9    25    24    1
    10    24    22   am
    11     2     3    1
    12     2     1    2
    13    22    23    2
    14    22     1    1
    15     3     4    2
    16     1     6    1
    17    11     9    2
    18     4     7    1
    19     4     5    1
    20     6     5    2
    21    10     9    2
    22     8     7    1
    23     7     9    1
    24     9    12    1
    25    12    13    2
    26    12    18    1
    27    13    14    1
    28    21    18    1
    29    21    20    2
    30    18    16    2
    31    20    19    1
    32    14    15    2
    33    16    15    1
    34    16    17    1
    35    19    17    2
