@<TRIPOS>MOLECULE
15912_out_ligand_01.pdbqt
 36 40 0 0 0
SMALL
GASTEIGER

@<TRIPOS>ATOM
      1  S         16.3930  -23.2290   -9.7450 S.3     1  UNL1       -0.0870
      2  C         16.2720  -23.1800   -8.0160 C.ar    1  UNL1        0.1710
      3  N         17.1950  -23.7670   -7.1840 N.ar    1  UNL1       -0.3040
      4  C         16.7640  -23.5550   -5.8970 C.ar    1  UNL1        0.1610
      5  N         17.3430  -23.9770   -4.7560 N.2     1  UNL1       -0.2410
      6  C         15.6020  -22.8050   -6.0290 C.ar    1  UNL1        0.1050
      7  C         16.6600  -23.5830   -3.6530 C.2     1  UNL1        0.1190
      8  C         15.4910  -22.8280   -3.6460 C.2     1  UNL1        0.0220
      9  C         14.9350  -22.4210   -4.8610 C.2     1  UNL1        0.0370
     10  N         15.3100  -22.5780   -7.3480 N.ar    1  UNL1       -0.2210
     11  C         18.3730  -24.5370   -7.5370 C.3     1  UNL1        0.1710
     12  C         19.5980  -23.6660   -7.6870 C.2     1  UNL1       -0.0390
     13  C         19.6340  -22.3820   -7.1270 C.2     1  UNL1        0.0090
     14  C         20.7660  -21.5800   -7.2710 C.2     1  UNL1        0.0010
     15  C         21.8730  -22.0510   -7.9750 C.2     1  UNL1        0.0070
     16  C         21.8640  -23.3320   -8.5330 C.2     1  UNL1       -0.0610
     17  C         23.0420  -23.8310   -9.3180 C.3     1  UNL1        0.0480
     18  C         20.7180  -24.1260   -8.3980 C.2     1  UNL1        0.0150
     19  C         16.9120  -21.5320  -10.1270 C.3     1  UNL1        0.1210
     20  C         18.2550  -21.4840  -10.8160 C.2     1  UNL1       -0.0480
     21  C         19.0400  -22.6410  -10.9330 C.2     1  UNL1        0.0090
     22  C         20.2820  -22.5980  -11.5750 C.2     1  UNL1        0.0170
     23  C         20.7480  -21.3950  -12.1180 C.2     1  UNL1        0.0320
     24  C         19.9760  -20.2350  -11.9950 C.2     1  UNL1        0.0170
     25  C         18.7350  -20.2810  -11.3550 C.2     1  UNL1        0.0090
     26  C         22.0660  -21.2990  -12.8000 C.2     1  UNL1        0.2510
     27  O         22.1390  -20.8640  -13.9430 O.2     1  UNL1       -0.2680
     28  N         23.1580  -21.7350  -12.0830 N.am    1  UNL1       -0.3530
     29  H         23.0380  -22.1220  -11.1570 H       1  UNL1        0.1630
     30  C         24.5050  -21.5930  -12.5840 C.3     1  UNL1        0.1620
     31  C         24.8330  -22.6970  -13.5450 C.2     1  UNL1       -0.0230
     32  C         24.9460  -22.4710  -14.9190 C.2     1  UNL1        0.0120
     33  C         25.2330  -23.5350  -15.7710 C.2     1  UNL1        0.0200
     34  C         25.3910  -24.7940  -15.2180 C.2     1  UNL1        0.1160
     35  N         25.2820  -25.0530  -13.8980 N.2     1  UNL1       -0.2730
     36  C         25.0030  -24.0020  -13.0930 C.2     1  UNL1        0.1240
@<TRIPOS>BOND
     1    33    34    2
     2    33    32    1
     3    34    35    1
     4    32    31    2
     5    27    26    2
     6    35    36    2
     7    31    36    1
     8    31    30    1
     9    26    23    1
    10    26    28   am
    11    30    28    1
    12    23    24    2
    13    23    22    1
    14    28    29    1
    15    24    25    1
    16    22    21    2
    17    25    20    2
    18    21    20    1
    19    20    19    1
    20    19     1    1
    21     1     2    1
    22    17    16    1
    23    16    18    1
    24    16    15    2
    25    18    12    2
    26     2    10   ar
    27     2     3   ar
    28    15    14    1
    29    12    11    1
    30    12    13    1
    31    11     3    1
    32    10     6   ar
    33    14    13    2
    34     3     4   ar
    35     6     4   ar
    36     6     9    1
    37     4     5    1
    38     9     8    2
    39     5     7    2
    40     7     8    1
