@<TRIPOS>MOLECULE
15918_out_ligand_01.pdbqt
 29 32 0 0 0
SMALL
GASTEIGER

@<TRIPOS>ATOM
      1  C         20.7740  -24.7200   -8.4720 C.3     1  UNL1        0.0710
      2  C         20.1090  -23.6380   -9.2950 C.2     1  UNL1        0.0410
      3  N         20.8490  -23.0850  -10.2110 N.2     1  UNL1       -0.2330
      4  C         20.2880  -22.1160  -10.9850 C.2     1  UNL1        0.1680
      5  C         20.7950  -21.3520  -12.0260 C.2     1  UNL1        0.0980
      6  C         19.7040  -20.5450  -12.4080 C.2     1  UNL1        0.1600
      7  N         18.6130  -20.7400  -11.6700 N.2     1  UNL1       -0.1770
      8  N         18.9640  -21.7200  -10.7950 N.pl3   1  UNL1       -0.2190
      9  C         18.1550  -22.3020   -9.8010 C.2     1  UNL1        0.0430
     10  C         16.7510  -21.7660   -9.7170 C.3     1  UNL1        0.0710
     11  C         18.6600  -23.2820   -9.0140 C.2     1  UNL1       -0.0050
     12  C         22.1400  -21.4170  -12.5800 C.2     1  UNL1        0.2570
     13  O         22.4170  -21.0950  -13.7310 O.2     1  UNL1       -0.2670
     14  N         23.1040  -21.8830  -11.7040 N.am    1  UNL1       -0.3520
     15  H         22.7980  -22.3510  -10.8630 H       1  UNL1        0.1630
     16  C         24.4690  -22.1420  -12.1420 C.3     1  UNL1        0.0840
     17  C         24.6310  -23.5950  -12.5990 C.3     1  UNL1        0.0250
     18  C         26.0340  -23.8690  -13.1480 C.3     1  UNL1        0.0020
     19  C         27.1140  -22.9710  -12.5450 C.3     1  UNL1        0.0000
     20  C         26.7840  -22.5790  -11.1130 C.3     1  UNL1        0.0020
     21  C         25.4640  -21.8030  -11.0200 C.3     1  UNL1        0.0250
     22  C         17.9370  -23.9670   -7.8810 C.3     1  UNL1        0.0840
     23  C         17.8860  -23.1740   -6.5960 C.2     1  UNL1       -0.0150
     24  C         18.7850  -22.1270   -6.3430 C.2     1  UNL1        0.0100
     25  C         18.7360  -21.4260   -5.1360 C.2     1  UNL1        0.0010
     26  C         17.7960  -21.7630   -4.1640 C.2     1  UNL1        0.0030
     27  C         16.9050  -22.8070   -4.3970 C.2     1  UNL1        0.0430
     28  C         16.9590  -23.5030   -5.6000 C.2     1  UNL1        0.1220
     29  F         16.0930  -24.5060   -5.7990 F       1  UNL1       -0.2060
@<TRIPOS>BOND
     1    13    12    2
     2    18    17    1
     3    18    19    1
     4    17    16    1
     5    12     5    1
     6    12    14   am
     7    19    20    1
     8     6     5    1
     9     6     7    2
    10    16    14    1
    11    16    21    1
    12     5     4    2
    13    14    15    1
    14     7     8    1
    15    20    21    1
    16     4     8    1
    17     4     3    1
    18     8     9    1
    19     3     2    2
    20     9    10    1
    21     9    11    2
    22     2    11    1
    23     2     1    1
    24    11    22    1
    25    22    23    1
    26    23    24    2
    27    23    28    1
    28    24    25    1
    29    29    28    1
    30    28    27    2
    31    25    26    2
    32    27    26    1
