@<TRIPOS>MOLECULE
15917_out_ligand_01.pdbqt
 30 33 0 0 0
SMALL
GASTEIGER

@<TRIPOS>ATOM
      1  C         20.0920  -22.7940   -7.6350 C.2     1  UNL1        0.0350
      2  C         20.3690  -23.8650   -8.4840 C.2     1  UNL1        0.0300
      3  C         21.6190  -23.9800   -9.1010 C.2     1  UNL1        0.0090
      4  C         22.6130  -23.0190   -8.8860 C.2     1  UNL1       -0.0580
      5  C         22.3400  -21.9490   -8.0280 C.2     1  UNL1        0.0090
      6  C         21.0910  -21.8390   -7.4080 C.2     1  UNL1        0.0300
      7  N         18.8580  -22.5950   -6.9790 N.am    1  UNL1       -0.3230
      8  C         17.9260  -23.5550   -6.6130 C.2     1  UNL1        0.2620
      9  O         18.0390  -24.7570   -6.8140 O.2     1  UNL1       -0.2670
     10  H         18.6520  -21.6330   -6.7360 H       1  UNL1        0.1690
     11  C         16.7000  -23.0510   -5.9290 C.2     1  UNL1        0.1090
     12  C         15.5810  -22.5990   -6.6320 C.2     1  UNL1        0.1350
     13  F         15.5560  -22.6170   -7.9740 F       1  UNL1       -0.2050
     14  C         14.4460  -22.1180   -5.9750 C.2     1  UNL1        0.0430
     15  C         14.4130  -22.0820   -4.5840 C.2     1  UNL1        0.0060
     16  C         15.5160  -22.5300   -3.8630 C.2     1  UNL1        0.0430
     17  C         16.6460  -23.0090   -4.5310 C.2     1  UNL1        0.1350
     18  F         17.6620  -23.4480   -3.7760 F       1  UNL1       -0.2050
     19  C         23.9440  -23.1080   -9.5970 C.3     1  UNL1        0.0460
     20  C         24.2340  -21.9020  -10.4970 C.3     1  UNL1        0.0830
     21  C         24.4450  -22.2880  -11.9240 C.ar    1  UNL1        0.1050
     22  N         24.2640  -21.5240  -12.9820 N.ar    1  UNL1       -0.2330
     23  C         24.5830  -22.3110  -14.0640 C.ar    1  UNL1        0.0850
     24  C         24.5710  -22.0060  -15.4320 C.2     1  UNL1        0.0340
     25  C         24.9640  -23.5830  -13.6560 C.ar    1  UNL1        0.0620
     26  C         24.9430  -23.0010  -16.3450 C.2     1  UNL1        0.0020
     27  C         25.3170  -24.2740  -15.9060 C.2     1  UNL1        0.0020
     28  C         25.3360  -24.5960  -14.5440 C.2     1  UNL1        0.0320
     29  N         24.8720  -23.5430  -12.2900 N.ar    1  UNL1       -0.3430
     30  H         25.0440  -24.3130  -11.6580 H       1  UNL1        0.1670
@<TRIPOS>BOND
     1    26    27    2
     2    26    24    1
     3    27    28    1
     4    24    23    2
     5    28    25    2
     6    23    25   ar
     7    23    22   ar
     8    25    29   ar
     9    22    21   ar
    10    29    21   ar
    11    29    30    1
    12    21    20    1
    13    20    19    1
    14    19     4    1
    15     3     4    2
    16     3     2    1
    17     4     5    1
    18     2     1    2
    19     5     6    2
    20    13    12    1
    21     1     6    1
    22     1     7    1
    23     7    10    1
    24     7     8   am
    25     9     8    2
    26    12    14    1
    27    12    11    2
    28     8    11    1
    29    14    15    2
    30    11    17    1
    31    15    16    1
    32    17    16    2
    33    17    18    1
