@<TRIPOS>MOLECULE
15915_out_ligand_01.pdbqt
 35 39 0 0 0
SMALL
GASTEIGER

@<TRIPOS>ATOM
      1  C         22.2560  -22.7990   -8.8840 C.2     1  UNL1        0.0810
      2  C         22.3520  -21.7730   -7.9680 C.2     1  UNL1        0.0370
      3  C         21.1280  -21.7520   -7.2590 C.2     1  UNL1        0.0390
      4  C         20.3450  -22.7660   -7.7830 C.2     1  UNL1        0.0970
      5  O         21.0470  -23.4120   -8.7680 O.2     1  UNL1       -0.3140
      6  C         18.9330  -23.2480   -7.5090 C.3     1  UNL1        0.1610
      7  O         19.0060  -24.6850   -7.5880 O.3     1  UNL1       -0.3730
      8  H         19.4890  -24.8910   -8.4060 H       1  UNL1        0.2120
      9  C         17.8910  -22.8430   -8.5730 C.2     1  UNL1       -0.0100
     10  C         16.5130  -23.1000   -8.4430 C.2     1  UNL1        0.0110
     11  C         15.6040  -22.6950   -9.4280 C.2     1  UNL1        0.0040
     12  C         16.0530  -22.0200  -10.5580 C.2     1  UNL1        0.0420
     13  C         17.4050  -21.7470  -10.6940 C.2     1  UNL1        0.1170
     14  F         17.8400  -21.0930  -11.7780 F       1  UNL1       -0.2060
     15  C         18.3170  -22.1400   -9.7200 C.2     1  UNL1        0.0530
     16  C         18.5230  -22.8520   -6.0780 C.2     1  UNL1       -0.0100
     17  C         18.8000  -21.5720   -5.5530 C.2     1  UNL1        0.0110
     18  C         18.3760  -21.2090   -4.2700 C.2     1  UNL1        0.0040
     19  C         17.6580  -22.1130   -3.4910 C.2     1  UNL1        0.0420
     20  C         17.3720  -23.3750   -4.0000 C.2     1  UNL1        0.1170
     21  F         16.6630  -24.2390   -3.2620 F       1  UNL1       -0.2060
     22  C         17.7930  -23.7490   -5.2720 C.2     1  UNL1        0.0530
     23  C         23.1660  -23.3230   -9.9450 C.3     1  UNL1        0.3380
     24  N         23.2270  -22.4370  -11.1240 N.3     1  UNL1        0.1030
     25  C         24.2820  -22.8980  -12.0510 C.3     1  UNL1        0.3110
     26  C         25.0290  -21.7600  -12.7140 C.2     1  UNL1       -0.0300
     27  C         25.6470  -20.7720  -11.9350 C.2     1  UNL1        0.0090
     28  C         26.3310  -19.7150  -12.5400 C.2     1  UNL1        0.0070
     29  C         26.4150  -19.6310  -13.9330 C.2     1  UNL1       -0.0620
     30  C         27.1190  -18.4730  -14.5780 C.3     1  UNL1        0.0480
     31  C         25.7870  -20.6070  -14.7130 C.2     1  UNL1        0.0070
     32  C         25.1040  -21.6660  -14.1100 C.2     1  UNL1        0.0090
     33  C         21.9050  -22.3490  -11.7870 C.3     1  UNL1        0.2240
     34  C         21.7310  -21.4240  -12.9620 C.3     1  UNL1        0.0380
     35  C         21.0920  -21.0870  -11.6510 C.3     1  UNL1        0.0380
@<TRIPOS>BOND
     1    31    32    1
     2    31    29    2
     3    30    29    1
     4    32    26    2
     5    29    28    1
     6    34    33    1
     7    34    35    1
     8    26    25    1
     9    26    27    1
    10    28    27    2
    11    25    24    1
    12    33    35    1
    13    33    24    1
    14    14    13    1
    15    24    23    1
    16    13    12    2
    17    13    15    1
    18    12    11    1
    19    23     1    1
    20    15     9    2
    21    11    10    2
    22     1     5    1
    23     1     2    2
    24     5     4    1
    25     9    10    1
    26     9     6    1
    27     8     7    1
    28     2     3    1
    29     4     6    1
    30     4     3    2
    31     7     6    1
    32     6    16    1
    33    16    17    2
    34    16    22    1
    35    17    18    1
    36    22    20    2
    37    18    19    2
    38    20    19    1
    39    20    21    1
