@<TRIPOS>MOLECULE
15931_out_ligand_01.pdbqt
 34 37 0 0 0
SMALL
GASTEIGER

@<TRIPOS>ATOM
      1  C         18.2890  -21.4420  -10.8540 C.2     1  UNL1       -0.0480
      2  C         18.8060  -20.2600  -11.4070 C.2     1  UNL1        0.0090
      3  C         20.0370  -20.2640  -12.0720 C.2     1  UNL1        0.0170
      4  C         20.7620  -21.4550  -12.1930 C.2     1  UNL1        0.0320
      5  C         20.2390  -22.6410  -11.6690 C.2     1  UNL1        0.0170
      6  C         19.0140  -22.6330  -10.9980 C.2     1  UNL1        0.0090
      7  C         16.9570  -21.4350  -10.1390 C.3     1  UNL1        0.1210
      8  S         16.4890  -23.0810   -9.5310 S.3     1  UNL1       -0.0850
      9  C         16.6070  -22.8390   -7.8160 C.ar    1  UNL1        0.1960
     10  N         17.7800  -22.8920   -7.0850 N.ar    1  UNL1       -0.2750
     11  C         17.3740  -22.6690   -5.7710 C.ar    1  UNL1        0.1390
     12  N         16.0550  -22.5960   -5.7410 N.ar    1  UNL1       -0.1330
     13  N         15.5780  -22.7020   -7.0150 N.ar    1  UNL1       -0.1220
     14  C         19.0850  -23.1200   -7.5730 C.2     1  UNL1        0.0430
     15  C         20.0280  -22.0890   -7.5250 C.2     1  UNL1        0.0300
     16  C         21.3170  -22.3100   -8.0120 C.2     1  UNL1        0.0090
     17  C         21.6740  -23.5570   -8.5420 C.2     1  UNL1       -0.0620
     18  C         23.0620  -23.7720   -9.0730 C.3     1  UNL1        0.0480
     19  C         20.7250  -24.5870   -8.5700 C.2     1  UNL1        0.0090
     20  C         19.4340  -24.3760   -8.0800 C.2     1  UNL1        0.0300
     21  C         18.2200  -22.3790   -4.5590 C.3     1  UNL1        0.0500
     22  C         17.6880  -22.9670   -3.2560 C.3     1  UNL1        0.0180
     23  C         18.5860  -20.9050   -4.4210 C.3     1  UNL1        0.0180
     24  C         22.0800  -21.5090  -12.8810 C.2     1  UNL1        0.2510
     25  O         22.2550  -20.8960  -13.9280 O.2     1  UNL1       -0.2680
     26  N         23.0380  -22.3060  -12.2950 N.am    1  UNL1       -0.3530
     27  H         22.8110  -22.8590  -11.4810 H       1  UNL1        0.1630
     28  C         24.3410  -22.4860  -12.8940 C.3     1  UNL1        0.1610
     29  C         25.2320  -21.3190  -12.5690 C.2     1  UNL1       -0.0380
     30  C         25.6250  -21.0770  -11.2480 C.2     1  UNL1        0.0280
     31  C         26.4210  -19.9760  -10.9800 C.2     1  UNL1        0.1160
     32  N         26.8440  -19.1110  -11.9260 N.2     1  UNL1       -0.2730
     33  C         26.4570  -19.3600  -13.1960 C.2     1  UNL1        0.1160
     34  C         25.6580  -20.4330  -13.5630 C.2     1  UNL1        0.0280
@<TRIPOS>BOND
     1    25    24    2
     2    34    33    1
     3    34    29    2
     4    33    32    2
     5    28    29    1
     6    28    26    1
     7    24    26   am
     8    24     4    1
     9    29    30    1
    10    26    27    1
    11     4     3    2
    12     4     5    1
    13     3     2    1
    14    32    31    1
    15     5     6    2
    16     2     1    2
    17    30    31    2
    18     6     1    1
    19     1     7    1
    20     7     8    1
    21     8     9    1
    22    18    17    1
    23    19    17    2
    24    19    20    1
    25    17    16    1
    26    20    14    2
    27    16    15    2
    28     9    10   ar
    29     9    13   ar
    30    14    15    1
    31    14    10    1
    32    10    11   ar
    33    13    12   ar
    34    11    12   ar
    35    11    21    1
    36    21    23    1
    37    21    22    1
