@<TRIPOS>MOLECULE
15942_out_ligand_01.pdbqt
 31 33 0 0 0
SMALL
GASTEIGER

@<TRIPOS>ATOM
      1  C         21.4190  -22.3880  -10.1520 C.2     1  UNL1        0.0800
      2  C         20.8230  -21.8020  -11.2720 C.2     1  UNL1        0.0280
      3  C         19.4350  -21.6940  -11.3290 C.2     1  UNL1        0.0450
      4  C         18.6550  -22.1660  -10.2720 C.2     1  UNL1        0.1320
      5  F         17.3240  -22.0460  -10.3770 F       1  UNL1       -0.2050
      6  C         19.2390  -22.7450   -9.1410 C.2     1  UNL1        0.0720
      7  C         20.6390  -22.8450   -9.0830 C.2     1  UNL1        0.0450
      8  S         23.1890  -22.5120  -10.0660 S.O2    1  UNL1        0.2590
      9  O         23.5350  -23.5770   -9.1530 O.2     1  UNL1       -0.2010
     10  O         23.7100  -21.1730   -9.9090 O.2     1  UNL1       -0.2010
     11  N         23.5720  -22.9800  -11.6260 N.3     1  UNL1       -0.3100
     12  H         22.8720  -23.5820  -12.0580 H       1  UNL1        0.1720
     13  C         24.3930  -22.1100  -12.4890 C.3     1  UNL1        0.0970
     14  C         23.5100  -21.6080  -13.6440 C.3     1  UNL1        0.0260
     15  C         24.2750  -21.4850  -14.9520 C.3     1  UNL1        0.0020
     16  C         24.8670  -22.8240  -15.3930 C.3     1  UNL1        0.0050
     17  C         25.3180  -23.7290  -14.2260 C.3     1  UNL1       -0.0130
     18  C         25.6540  -22.8800  -12.9780 C.3     1  UNL1        0.0090
     19  C         26.4650  -24.6280  -14.6910 C.3     1  UNL1        0.0100
     20  C         26.3220  -23.6700  -11.8480 C.3     1  UNL1        0.0120
     21  C         18.4440  -23.2790   -7.9920 C.2     1  UNL1        0.2590
     22  O         18.6170  -24.4540   -7.6840 O.2     1  UNL1       -0.2670
     23  N         17.5770  -22.4000   -7.3740 N.am    1  UNL1       -0.3220
     24  H         17.5190  -21.4550   -7.7420 H       1  UNL1        0.1690
     25  C         16.7240  -22.6450   -6.2680 C.2     1  UNL1        0.0520
     26  C         15.5270  -23.3620   -6.3680 C.2     1  UNL1        0.0310
     27  C         14.7230  -23.5740   -5.2420 C.2     1  UNL1        0.0020
     28  C         15.1030  -23.0750   -4.0000 C.2     1  UNL1        0.0020
     29  C         16.2910  -22.3600   -3.8780 C.2     1  UNL1        0.0210
     30  C         17.0960  -22.1480   -5.0030 C.2     1  UNL1        0.0370
     31 BR         18.7060  -21.1640   -4.7540 Br      1  UNL1       -0.0490
@<TRIPOS>BOND
     1    16    15    1
     2    16    17    1
     3    15    14    1
     4    19    17    1
     5    17    18    1
     6    14    13    1
     7    18    13    1
     8    18    20    1
     9    13    11    1
    10    12    11    1
    11    11     8    1
    12     3     2    1
    13     3     4    2
    14     2     1    2
    15     5     4    1
    16     4     6    1
    17     1     8    1
    18     1     7    1
    19     8    10    2
    20     8     9    2
    21     6     7    2
    22     6    21    1
    23    21    22    2
    24    21    23   am
    25    24    23    1
    26    23    25    1
    27    26    25    2
    28    26    27    1
    29    25    30    1
    30    27    28    2
    31    30    31    1
    32    30    29    2
    33    28    29    1
