@<TRIPOS>MOLECULE
15976_out_ligand_01.pdbqt
 32 35 0 0 0
SMALL
GASTEIGER

@<TRIPOS>ATOM
      1  C         20.5920  -22.9820   -8.7340 C.2     1  UNL1        0.2580
      2  O         21.6820  -23.4660   -8.4430 O.2     1  UNL1       -0.2670
      3  N         20.2760  -22.3030   -9.9000 N.am    1  UNL1       -0.3130
      4  C         19.0050  -21.6170  -10.1920 C.2     1  UNL1        0.1370
      5  C         19.1840  -20.8530  -11.5100 C.2     1  UNL1        0.0610
      6  C         20.5390  -21.3020  -11.9520 C.2     1  UNL1       -0.0290
      7  C         21.1900  -20.9700  -13.1330 C.2     1  UNL1        0.0180
      8  C         22.4850  -21.4630  -13.3510 C.2     1  UNL1       -0.0390
      9  C         23.0850  -22.2890  -12.3770 C.2     1  UNL1        0.0110
     10  C         22.4180  -22.6130  -11.1910 C.2     1  UNL1        0.0310
     11  C         21.1440  -22.1130  -10.9920 C.2     1  UNL1        0.0430
     12  C         23.2280  -21.1460  -14.6260 C.3     1  UNL1        0.1700
     13  N         24.0730  -19.9730  -14.4530 N.3     1  UNL1       -0.3110
     14  H         23.7590  -19.2330  -13.8290 H       1  UNL1        0.1720
     15  S         25.7280  -20.1200  -14.6150 S.O2    1  UNL1        0.2590
     16  O         26.2970  -18.8430  -14.2490 O.2     1  UNL1       -0.2010
     17  O         25.9980  -20.7410  -15.8930 O.2     1  UNL1       -0.2010
     18  C         26.1390  -21.2810  -13.3360 C.2     1  UNL1        0.0800
     19  C         26.1230  -20.8810  -12.0010 C.2     1  UNL1        0.0260
     20  C         26.4500  -21.8060  -11.0080 C.2     1  UNL1        0.0090
     21  C         26.7850  -23.1300  -11.3380 C.2     1  UNL1       -0.0560
     22  C         27.1210  -24.0970  -10.2350 C.3     1  UNL1        0.0490
     23  C         26.7800  -23.5320  -12.6910 C.2     1  UNL1       -0.0550
     24  C         27.1120  -24.9450  -13.0890 C.3     1  UNL1        0.0490
     25  C         26.4530  -22.5980  -13.6850 C.2     1  UNL1        0.0320
     26  C         19.5170  -23.1170   -7.7290 C.2     1  UNL1        0.0320
     27  C         19.2470  -22.0720   -6.8420 C.2     1  UNL1        0.0170
     28  C         18.2210  -22.2140   -5.9050 C.2     1  UNL1        0.0070
     29  C         17.4650  -23.3930   -5.8530 C.2     1  UNL1       -0.0620
     30  C         16.3370  -23.5260   -4.8720 C.3     1  UNL1        0.0480
     31  C         17.7250  -24.4190   -6.7740 C.2     1  UNL1        0.0070
     32  C         18.7480  -24.2820   -7.7130 C.2     1  UNL1        0.0170
@<TRIPOS>BOND
     1    17    15    2
     2    12    13    1
     3    12     8    1
     4    15    13    1
     5    15    16    2
     6    15    18    1
     7    13    14    1
     8    25    18    2
     9    25    23    1
    10     8     7    1
    11     8     9    2
    12    18    19    1
    13     7     6    2
    14    24    23    1
    15    23    21    2
    16     9    10    1
    17    19    20    2
    18     6     5    1
    19     6    11    1
    20     5     4    2
    21    21    20    1
    22    21    22    1
    23    10    11    2
    24    11     3    1
    25     4     3    1
    26     3     1   am
    27     1     2    2
    28     1    26    1
    29    26    32    2
    30    26    27    1
    31    32    31    1
    32    27    28    2
    33    31    29    2
    34    28    29    1
    35    29    30    1
