@<TRIPOS>MOLECULE
15972_out_ligand_01.pdbqt
 29 32 0 0 0
SMALL
GASTEIGER

@<TRIPOS>ATOM
      1  C         19.8820  -22.9250   -7.6150 C.2     1  UNL1        0.0350
      2  C         20.1580  -24.0160   -8.4390 C.2     1  UNL1        0.0300
      3  C         21.4060  -24.1440   -9.0570 C.2     1  UNL1        0.0090
      4  C         22.4010  -23.1790   -8.8600 C.2     1  UNL1       -0.0580
      5  C         22.1250  -22.0870   -8.0280 C.2     1  UNL1        0.0090
      6  C         20.8780  -21.9650   -7.4110 C.2     1  UNL1        0.0300
      7  C         23.7340  -23.2890   -9.5650 C.3     1  UNL1        0.0460
      8  C         24.0880  -22.0420  -10.3810 C.3     1  UNL1        0.0830
      9  C         24.3570  -22.3590  -11.8150 C.ar    1  UNL1        0.1050
     10  N         24.1650  -21.5640  -12.8460 N.ar    1  UNL1       -0.2330
     11  C         24.5300  -22.2970  -13.9500 C.ar    1  UNL1        0.0850
     12  C         24.5230  -21.9430  -15.3060 C.2     1  UNL1        0.0340
     13  C         24.9540  -23.5690  -13.5830 C.ar    1  UNL1        0.0620
     14  C         24.9430  -22.8890  -16.2510 C.2     1  UNL1        0.0020
     15  C         25.3610  -24.1610  -15.8520 C.2     1  UNL1        0.0020
     16  C         25.3750  -24.5330  -14.5020 C.2     1  UNL1        0.0320
     17  N         24.8400  -23.5820  -12.2170 N.ar    1  UNL1       -0.3430
     18  H         25.0340  -24.3660  -11.6100 H       1  UNL1        0.1670
     19  N         18.6520  -22.7300   -6.9550 N.am    1  UNL1       -0.3230
     20  C         17.8030  -23.7000   -6.4590 C.2     1  UNL1        0.2560
     21  O         17.9070  -24.9140   -6.5690 O.2     1  UNL1       -0.2670
     22  H         18.3400  -21.7700   -6.8670 H       1  UNL1        0.1690
     23  C         16.6030  -23.1510   -5.7750 C.2     1  UNL1        0.0380
     24  C         15.5560  -22.7090   -6.5940 C.2     1  UNL1        0.0170
     25  C         14.4140  -22.1470   -6.0270 C.2     1  UNL1        0.0010
     26  C         14.3150  -22.0310   -4.6420 C.2     1  UNL1        0.0010
     27  C         15.3490  -22.4930   -3.8210 C.2     1  UNL1        0.0070
     28  C         16.4990  -23.0770   -4.3720 C.2     1  UNL1       -0.0460
     29  C         17.5670  -23.5940   -3.4510 C.3     1  UNL1        0.0490
@<TRIPOS>BOND
     1    14    15    2
     2    14    12    1
     3    15    16    1
     4    12    11    2
     5    16    13    2
     6    11    13   ar
     7    11    10   ar
     8    13    17   ar
     9    10     9   ar
    10    17     9   ar
    11    17    18    1
    12     9     8    1
    13     8     7    1
    14     7     4    1
    15     3     4    2
    16     3     2    1
    17     4     5    1
    18     2     1    2
    19     5     6    2
    20     1     6    1
    21     1    19    1
    22    19    22    1
    23    19    20   am
    24    24    25    1
    25    24    23    2
    26    21    20    2
    27    20    23    1
    28    25    26    2
    29    23    28    1
    30    26    27    1
    31    28    27    2
    32    28    29    1
