@<TRIPOS>MOLECULE
1598_out_ligand_01.pdbqt
 35 37 0 0 0
SMALL
GASTEIGER

@<TRIPOS>ATOM
      1  N         25.9820  -21.5100  -13.6890 N.am    1  UNL1       -0.3080
      2  C         26.1520  -20.1780  -14.0720 C.2     1  UNL1        0.0120
      3  C         26.6900  -19.1700  -13.0920 C.3     1  UNL1        0.0680
      4  C         25.8180  -19.8000  -15.3160 C.2     1  UNL1        0.0330
      5  C         25.2930  -20.7360  -16.2910 C.2     1  UNL1       -0.0340
      6  C         25.0090  -20.1520  -17.6490 C.3     1  UNL1        0.0500
      7  C         25.0900  -22.0220  -15.9390 C.2     1  UNL1        0.1180
      8  C         24.5670  -22.9990  -16.8310 C.1     1  UNL1        0.1050
      9  N         24.1380  -23.7660  -17.5890 N.1     1  UNL1       -0.1910
     10  C         25.4130  -22.4590  -14.5460 C.2     1  UNL1        0.2690
     11  O         25.1570  -23.6060  -14.1710 O.2     1  UNL1       -0.2660
     12  C         26.3280  -21.9710  -12.3370 C.3     1  UNL1        0.2350
     13  C         25.1690  -21.7680  -11.3550 C.2     1  UNL1        0.2400
     14  N         24.2300  -22.7850  -11.4120 N.am    1  UNL1       -0.3260
     15  H         24.4300  -23.5380  -12.0740 H       1  UNL1        0.1690
     16  O         25.1460  -20.7950  -10.6070 O.2     1  UNL1       -0.2710
     17  C         23.0300  -22.9030  -10.6860 C.2     1  UNL1        0.0350
     18  C         23.0720  -23.6780   -9.5190 C.2     1  UNL1        0.0290
     19  C         21.9300  -23.8580   -8.7360 C.2     1  UNL1        0.0030
     20  C         20.7300  -23.2580   -9.1110 C.2     1  UNL1        0.0170
     21  C         20.6780  -22.4780  -10.2720 C.2     1  UNL1        0.0340
     22  C         21.8230  -22.3110  -11.0640 C.2     1  UNL1        0.0460
     23  C         19.4100  -21.8350  -10.7090 C.2     1  UNL1        0.2510
     24  N         18.2470  -22.4550  -10.2950 N.am    1  UNL1       -0.3570
     25  H         18.3000  -23.1770   -9.5900 H       1  UNL1        0.1620
     26  O         19.4310  -20.8040  -11.3690 O.2     1  UNL1       -0.2680
     27  C         16.9470  -21.8770  -10.5820 C.3     1  UNL1        0.1270
     28  C         15.8300  -22.5220   -9.7580 C.3     1  UNL1        0.0580
     29  C         16.2960  -22.8760   -8.3690 C.2     1  UNL1       -0.0570
     30  C         16.2230  -24.1980   -7.9160 C.2     1  UNL1        0.0070
     31  C         16.6710  -24.5350   -6.6370 C.2     1  UNL1        0.0070
     32  C         17.2130  -23.5580   -5.7940 C.2     1  UNL1       -0.0620
     33  C         17.6610  -23.9150   -4.4080 C.3     1  UNL1        0.0480
     34  C         17.2760  -22.2350   -6.2420 C.2     1  UNL1        0.0070
     35  C         16.8280  -21.8960   -7.5210 C.2     1  UNL1        0.0070
@<TRIPOS>BOND
     1     6     5    1
     2     9     8    3
     3     8     7    1
     4     5     7    2
     5     5     4    1
     6     7    10    1
     7     4     2    2
     8    10    11    2
     9    10     1   am
    10     2     1    1
    11     2     3    1
    12     1    12    1
    13    12    13    1
    14    15    14    1
    15    14    13   am
    16    14    17    1
    17    26    23    2
    18    13    16    2
    19    22    17    2
    20    22    21    1
    21    23    24   am
    22    23    21    1
    23    17    18    1
    24    27    24    1
    25    27    28    1
    26    24    25    1
    27    21    20    2
    28    28    29    1
    29    18    19    2
    30    20    19    1
    31    29    30    2
    32    29    35    1
    33    30    31    1
    34    35    34    2
    35    31    32    2
    36    34    32    1
    37    32    33    1
