@<TRIPOS>MOLECULE
15995_out_ligand_01.pdbqt
 32 35 0 0 0
SMALL
GASTEIGER

@<TRIPOS>ATOM
      1  C         22.9570  -22.9620   -9.1120 C.2     1  UNL1       -0.0400
      2  C         22.7010  -21.8230   -8.3210 C.2     1  UNL1        0.0110
      3  C         21.4980  -21.6830   -7.6200 C.2     1  UNL1        0.0310
      4  C         20.5530  -22.6880   -7.7210 C.2     1  UNL1        0.0430
      5  C         20.8000  -23.8210   -8.4990 C.2     1  UNL1       -0.0290
      6  C         21.9930  -23.9760   -9.1930 C.2     1  UNL1        0.0180
      7  C         19.6660  -24.7910   -8.4190 C.2     1  UNL1        0.0610
      8  C         18.6280  -24.0040   -7.6100 C.2     1  UNL1        0.1370
      9  N         19.2810  -22.7740   -7.1270 N.am    1  UNL1       -0.3130
     10  C         18.7630  -21.8730   -6.2110 C.2     1  UNL1        0.2580
     11  O         19.3500  -20.9130   -5.7200 O.2     1  UNL1       -0.2670
     12  C         24.2800  -23.1020   -9.8250 C.3     1  UNL1        0.1620
     13  N         24.0810  -23.2750  -11.2490 N.am    1  UNL1       -0.3390
     14  C         24.7550  -22.4860  -12.1560 C.2     1  UNL1        0.3210
     15  O         25.4650  -21.5460  -11.8230 O.2     1  UNL1       -0.2470
     16  N         24.4930  -22.8920  -13.4430 N.am    1  UNL1       -0.3060
     17  H         23.7270  -23.5420  -13.5610 H       1  UNL1        0.1710
     18  H         23.8950  -24.2210  -11.5460 H       1  UNL1        0.1640
     19  C         25.0480  -22.3900  -14.6390 C.2     1  UNL1        0.0750
     20  C         26.1210  -22.9750  -15.3150 C.2     1  UNL1        0.0360
     21  C         26.5930  -22.4060  -16.5040 C.2     1  UNL1        0.0440
     22  C         25.9910  -21.2600  -17.0130 C.2     1  UNL1        0.1190
     23  F         26.4470  -20.7250  -18.1530 F       1  UNL1       -0.2060
     24  C         24.9230  -20.6640  -16.3590 C.2     1  UNL1        0.0860
     25  C         24.4610  -21.2360  -15.1800 C.2     1  UNL1        0.1460
     26  F         23.4240  -20.6650  -14.5460 F       1  UNL1       -0.2040
     27  C         17.3770  -22.1060   -5.7510 C.2     1  UNL1        0.0320
     28  C         16.3180  -22.0990   -6.6640 C.2     1  UNL1        0.0170
     29  C         15.0160  -22.3080   -6.2070 C.2     1  UNL1        0.0010
     30  C         14.7780  -22.5090   -4.8460 C.2     1  UNL1        0.0000
     31  C         15.8370  -22.4970   -3.9350 C.2     1  UNL1        0.0010
     32  C         17.1410  -22.2870   -4.3850 C.2     1  UNL1        0.0170
@<TRIPOS>BOND
     1    23    22    1
     2    22    21    2
     3    22    24    1
     4    21    20    1
     5    24    25    2
     6    20    19    2
     7    25    19    1
     8    25    26    1
     9    19    16    1
    10    17    16    1
    11    16    14   am
    12    14    15    2
    13    14    13   am
    14    18    13    1
    15    13    12    1
    16    12     1    1
    17     6     1    2
    18     6     5    1
    19     1     2    1
    20     5     7    1
    21     5     4    2
    22     7     8    2
    23     2     3    2
    24     4     3    1
    25     4     9    1
    26     8     9    1
    27     9    10   am
    28    28    29    1
    29    28    27    2
    30    10    27    1
    31    10    11    2
    32    29    30    2
    33    27    32    1
    34    30    31    1
    35    32    31    2
