@<TRIPOS>MOLECULE
1599_out_ligand_01.pdbqt
 35 38 0 0 0
SMALL
GASTEIGER

@<TRIPOS>ATOM
      1  C         23.4030  -21.3850  -13.5520 C.2     1  UNL1        0.2580
      2  O         22.2750  -21.0500  -13.9050 O.2     1  UNL1       -0.2670
      3  N         23.7390  -21.9860  -12.3500 N.am    1  UNL1       -0.3130
      4  C         25.1030  -22.2400  -11.8470 C.2     1  UNL1        0.1370
      5  C         24.9780  -22.6920  -10.3860 C.2     1  UNL1        0.0610
      6  C         23.5010  -22.8780  -10.2450 C.2     1  UNL1       -0.0300
      7  C         22.8180  -23.3760   -9.1460 C.2     1  UNL1        0.0100
      8  C         21.4240  -23.4280   -9.2020 C.2     1  UNL1        0.0090
      9  C         20.7250  -22.9840  -10.3440 C.2     1  UNL1       -0.0380
     10  C         21.4390  -22.4700  -11.4400 C.2     1  UNL1        0.0390
     11  C         22.8230  -22.4290  -11.3780 C.2     1  UNL1        0.0440
     12  C         19.2200  -23.0270  -10.3710 C.3     1  UNL1        0.1630
     13  N         18.6730  -22.2760   -9.2630 N.am    1  UNL1       -0.3390
     14  C         18.0610  -22.9570   -8.2290 C.2     1  UNL1        0.3210
     15  O         18.0100  -24.1780   -8.1850 O.2     1  UNL1       -0.2470
     16  N         17.5760  -22.0680   -7.2930 N.am    1  UNL1       -0.3080
     17  H         17.9030  -21.1180   -7.4260 H       1  UNL1        0.1700
     18  H         18.2400  -21.4000   -9.5150 H       1  UNL1        0.1640
     19  C         16.8250  -22.3470   -6.1260 C.2     1  UNL1        0.0510
     20  C         15.5870  -23.0030   -6.1900 C.2     1  UNL1        0.0300
     21  C         14.8450  -23.2650   -5.0340 C.2     1  UNL1        0.0020
     22  C         15.3270  -22.8750   -3.7930 C.2     1  UNL1        0.0010
     23  C         16.5510  -22.2170   -3.7080 C.2     1  UNL1        0.0180
     24  C         17.3110  -21.9380   -4.8660 C.2     1  UNL1        0.0740
     25  C         18.6410  -21.2570   -4.6730 C.3     1  UNL1        0.4190
     26  F         19.6100  -21.6770   -5.5380 F       1  UNL1       -0.1660
     27  F         18.5760  -19.9040   -4.8290 F       1  UNL1       -0.1660
     28  F         19.1520  -21.4630   -3.4270 F       1  UNL1       -0.1660
     29  C         24.5080  -21.0880  -14.4890 C.2     1  UNL1        0.0330
     30  C         24.9090  -22.0740  -15.3940 C.2     1  UNL1        0.0170
     31  C         25.9540  -21.8100  -16.2780 C.2     1  UNL1        0.0020
     32  C         26.6010  -20.5710  -16.2460 C.2     1  UNL1        0.0070
     33  C         26.2280  -19.5920  -15.3140 C.2     1  UNL1       -0.0610
     34  C         26.9210  -18.2600  -15.2990 C.3     1  UNL1        0.0480
     35  C         25.1740  -19.8570  -14.4330 C.2     1  UNL1        0.0230
@<TRIPOS>BOND
     1    31    32    2
     2    31    30    1
     3    32    33    1
     4    30    29    2
     5    33    34    1
     6    33    35    2
     7    29    35    1
     8    29     1    1
     9     2     1    2
    10     1     3   am
    11     3     4    1
    12     3    11    1
    13     4     5    2
    14    10    11    1
    15    10     9    2
    16    11     6    2
    17     5     6    1
    18    12     9    1
    19    12    13    1
    20     9     8    1
    21     6     7    1
    22    18    13    1
    23    13    14   am
    24     8     7    2
    25    14    15    2
    26    14    16   am
    27    17    16    1
    28    16    19    1
    29    20    19    2
    30    20    21    1
    31    19    24    1
    32    26    25    1
    33    21    22    2
    34    24    25    1
    35    24    23    2
    36    27    25    1
    37    25    28    1
    38    22    23    1
