@<TRIPOS>MOLECULE
15_out_ligand_01.pdbqt
 29 32 0 0 0
SMALL
GASTEIGER

@<TRIPOS>ATOM
      1  C         19.1920  -22.1660  -10.3530 C.2     1  UNL1        0.0740
      2  C         18.9280  -22.9370   -9.2330 C.2     1  UNL1        0.0500
      3  C         17.5320  -23.0110   -8.9400 C.2     1  UNL1        0.0880
      4  C         16.7690  -22.2910   -9.8300 C.2     1  UNL1        0.0750
      5  S         17.7320  -21.5620  -11.0370 S.3     1  UNL1       -0.0950
      6  S         16.8530  -23.9000   -7.6050 S.O2    1  UNL1        0.2650
      7  O         15.8140  -24.6990   -8.2210 O.2     1  UNL1       -0.2000
      8  O         18.0290  -24.5030   -7.0180 O.2     1  UNL1       -0.2000
      9  N         16.1400  -22.7540   -6.5410 N.pl3   1  UNL1       -0.2710
     10  C         14.7500  -23.0770   -6.1100 C.3     1  UNL1        0.1420
     11  C         14.7540  -23.9020   -4.8330 C.3     1  UNL1        0.0260
     12  C         15.4250  -23.1270   -3.7090 C.3     1  UNL1        0.0420
     13  C         16.7010  -22.4580   -4.1420 C.2     1  UNL1       -0.0310
     14  C         17.5680  -21.9610   -3.1530 C.2     1  UNL1        0.0090
     15  C         17.0080  -22.2470   -5.4980 C.2     1  UNL1        0.0510
     16  C         18.7230  -21.2660   -3.5040 C.2     1  UNL1        0.0010
     17  C         19.0160  -21.0430   -4.8450 C.2     1  UNL1        0.0020
     18  C         18.1580  -21.5250   -5.8360 C.2     1  UNL1        0.0310
     19  C         20.4650  -21.8320  -10.9980 C.2     1  UNL1        0.2630
     20  O         20.5300  -21.1000  -11.9810 O.2     1  UNL1       -0.2670
     21  N         21.5690  -22.4110  -10.3840 N.am    1  UNL1       -0.3220
     22  H         21.4000  -22.9100   -9.5220 H       1  UNL1        0.1690
     23  C         22.9230  -22.3250  -10.7770 C.2     1  UNL1        0.0370
     24  C         23.8620  -21.4710  -10.1900 C.2     1  UNL1        0.0290
     25  C         25.1870  -21.4450  -10.6440 C.2     1  UNL1        0.0050
     26  C         25.5830  -22.2710  -11.6910 C.2     1  UNL1        0.0420
     27  C         24.6500  -23.1170  -12.2750 C.2     1  UNL1        0.1180
     28  F         25.0240  -23.9140  -13.2850 F       1  UNL1       -0.2060
     29  C         23.3320  -23.1510  -11.8320 C.2     1  UNL1        0.0710
@<TRIPOS>BOND
     1    28    27    1
     2    27    29    1
     3    27    26    2
     4    20    19    2
     5    29    23    2
     6    26    25    1
     7     5     1    1
     8     5     4    1
     9    19    21   am
    10    19     1    1
    11    23    21    1
    12    23    24    1
    13    25    24    2
    14    21    22    1
    15     1     2    2
    16     4     3    2
    17     2     3    1
    18     3     6    1
    19     7     6    2
    20     6     8    2
    21     6     9    1
    22     9    10    1
    23     9    15    1
    24    10    11    1
    25    18    15    1
    26    18    17    2
    27    15    13    2
    28    17    16    1
    29    11    12    1
    30    13    12    1
    31    13    14    1
    32    16    14    2
