@<TRIPOS>MOLECULE
16006_out_ligand_01.pdbqt
 34 37 0 0 0
SMALL
GASTEIGER

@<TRIPOS>ATOM
      1  C         16.8870  -21.8680  -10.2440 C.ar    1  UNL1        0.1580
      2  N         16.8550  -20.8620  -11.1220 N.ar    1  UNL1       -0.1110
      3  O         18.1730  -20.7830  -11.5620 O.2     1  UNL1       -0.1910
      4  C         18.8600  -21.7690  -10.9250 C.ar    1  UNL1        0.2060
      5  N         18.1110  -22.4730  -10.0970 N.ar    1  UNL1       -0.2040
      6  C         20.2690  -21.9140  -11.2710 C.2     1  UNL1        0.0190
      7  C         20.8190  -21.2780  -12.3910 C.2     1  UNL1        0.0170
      8  C         22.1640  -21.4560  -12.7300 C.2     1  UNL1        0.0180
      9  C         22.9800  -22.2830  -11.9590 C.2     1  UNL1        0.0320
     10  C         22.4540  -22.8950  -10.8160 C.2     1  UNL1        0.0180
     11  C         21.1080  -22.7080  -10.4780 C.2     1  UNL1        0.0170
     12  C         24.3970  -22.4650  -12.3780 C.2     1  UNL1        0.2510
     13  O         25.1570  -21.5050  -12.3860 O.2     1  UNL1       -0.2680
     14  N         24.7590  -23.7280  -12.7980 N.am    1  UNL1       -0.3530
     15  H         24.0330  -24.4050  -12.9920 H       1  UNL1        0.1630
     16  C         26.0600  -23.9760  -13.3830 C.3     1  UNL1        0.1620
     17  C         26.1350  -23.4820  -14.7960 C.2     1  UNL1       -0.0230
     18  C         27.0950  -22.5470  -15.1970 C.2     1  UNL1        0.0120
     19  C         27.1210  -22.1090  -16.5170 C.2     1  UNL1        0.0200
     20  C         26.1970  -22.6290  -17.4030 C.2     1  UNL1        0.1160
     21  N         25.2700  -23.5400  -17.0590 N.2     1  UNL1       -0.2730
     22  C         25.2560  -23.9390  -15.7670 C.2     1  UNL1        0.1240
     23  C         15.6780  -22.3260   -9.5170 C.3     1  UNL1        0.1030
     24  C         15.8930  -22.4860   -8.0080 C.3     1  UNL1        0.1330
     25  N         16.3480  -23.8190   -7.5810 N.am    1  UNL1       -0.3520
     26  C         15.4890  -24.9500   -7.9010 C.3     1  UNL1        0.1520
     27  C         17.3490  -24.0400   -6.6300 C.2     1  UNL1        0.2530
     28  O         17.5280  -25.1120   -6.0550 O.2     1  UNL1       -0.2670
     29  C         18.2810  -22.9440   -6.3160 C.2     1  UNL1        0.0320
     30  C         19.3970  -22.7500   -7.1240 C.2     1  UNL1        0.0170
     31  C         20.2650  -21.6900   -6.8530 C.2     1  UNL1        0.0010
     32  C         19.9960  -20.8190   -5.7930 C.2     1  UNL1        0.0000
     33  C         18.8620  -21.0020   -5.0050 C.2     1  UNL1        0.0010
     34  C         17.9960  -22.0640   -5.2680 C.2     1  UNL1        0.0170
@<TRIPOS>BOND
     1    20    21    2
     2    20    19    1
     3    21    22    1
     4    19    18    2
     5    22    17    2
     6    18    17    1
     7    17    16    1
     8    16    14    1
     9    15    14    1
    10    14    12   am
    11     8     7    1
    12     8     9    2
    13     7     6    2
    14    13    12    2
    15    12     9    1
    16     9    10    1
    17     3     2   ar
    18     3     4   ar
    19     6     4    1
    20     6    11    1
    21     2     1   ar
    22     4     5   ar
    23    10    11    2
    24     1     5   ar
    25     1    23    1
    26    23    24    1
    27    24    25    1
    28    26    25    1
    29    25    27   am
    30    30    31    1
    31    30    29    2
    32    31    32    2
    33    27    29    1
    34    27    28    2
    35    29    34    1
    36    32    33    1
    37    34    33    2
