@<TRIPOS>MOLECULE
16007_out_ligand_01.pdbqt
 32 35 0 0 0
SMALL
GASTEIGER

@<TRIPOS>ATOM
      1  C         20.4790  -22.2020  -10.9640 C.2     1  UNL1       -0.0070
      2  C         20.4680  -21.3750  -12.1050 C.2     1  UNL1        0.0150
      3  C         21.6000  -21.2210  -12.9120 C.2     1  UNL1        0.0180
      4  C         22.7800  -21.8980  -12.5940 C.2     1  UNL1        0.0320
      5  C         22.8290  -22.6900  -11.4440 C.2     1  UNL1        0.0180
      6  C         21.6910  -22.8420  -10.6430 C.2     1  UNL1        0.0150
      7  C         19.2550  -22.3790  -10.1520 C.2     1  UNL1        0.0720
      8  C         19.2650  -22.9770   -8.9070 C.2     1  UNL1        0.0900
      9  C         18.0430  -23.1350   -8.2840 C.2     1  UNL1        0.1730
     10  N         16.8890  -22.6810   -8.8000 N.2     1  UNL1       -0.2170
     11  C         16.9840  -22.1100  -10.0040 C.2     1  UNL1        0.2360
     12  N         18.1070  -21.9450  -10.7170 N.2     1  UNL1       -0.2410
     13  O         17.9130  -23.7190   -7.0410 O.2     1  UNL1       -0.2890
     14  C         18.0440  -22.9150   -5.9320 C.2     1  UNL1        0.1110
     15  C         18.8340  -21.7720   -6.0850 C.2     1  UNL1        0.0400
     16  C         19.0300  -20.9090   -5.0050 C.2     1  UNL1        0.0030
     17  C         18.4370  -21.1820   -3.7740 C.2     1  UNL1        0.0030
     18  C         17.6200  -22.3040   -3.6260 C.2     1  UNL1        0.0390
     19  C         17.3980  -23.1520   -4.7120 C.2     1  UNL1        0.1020
     20  O         16.5950  -24.2430   -4.5090 O.2     1  UNL1       -0.3530
     21  C         15.2190  -23.8740   -4.6190 C.3     1  UNL1        0.2100
     22  C         24.0030  -21.7860  -13.4360 C.2     1  UNL1        0.2560
     23  O         25.0940  -21.8010  -12.8800 O.2     1  UNL1       -0.2670
     24  N         23.7600  -21.7250  -14.7950 N.am    1  UNL1       -0.3230
     25  H         22.8030  -21.8550  -15.0960 H       1  UNL1        0.1690
     26  C         24.7090  -21.6020  -15.8330 C.2     1  UNL1        0.0350
     27  C         25.1410  -22.6670  -16.6230 C.2     1  UNL1        0.0290
     28  C         26.0840  -22.4610  -17.6340 C.2     1  UNL1        0.0030
     29  C         26.6080  -21.1890  -17.8600 C.2     1  UNL1        0.0070
     30  C         26.2010  -20.1110  -17.0670 C.2     1  UNL1       -0.0600
     31  C         26.7340  -18.7320  -17.3280 C.3     1  UNL1        0.0480
     32  C         25.2440  -20.3270  -16.0640 C.2     1  UNL1        0.0360
@<TRIPOS>BOND
     1    29    28    2
     2    29    30    1
     3    28    27    1
     4    31    30    1
     5    30    32    2
     6    27    26    2
     7    32    26    1
     8    26    24    1
     9    25    24    1
    10    24    22   am
    11    22    23    2
    12    22     4    1
    13     3     4    2
    14     3     2    1
    15     4     5    1
    16     2     1    2
    17     5     6    2
    18     1     6    1
    19     1     7    1
    20    12     7    1
    21    12    11    2
    22     7     8    2
    23    11    10    1
    24     8     9    1
    25    10     9    2
    26     9    13    1
    27    13    14    1
    28    15    14    2
    29    15    16    1
    30    14    19    1
    31    16    17    2
    32    19    20    1
    33    19    18    2
    34    21    20    1
    35    17    18    1
