@<TRIPOS>MOLECULE
16017_out_ligand_01.pdbqt
 37 40 0 0 0
SMALL
GASTEIGER

@<TRIPOS>ATOM
      1  C         21.8170  -22.2060  -11.2940 C.2     1  UNL1        0.0980
      2  C         21.1730  -21.4240  -12.1770 C.2     1  UNL1        0.1090
      3  N         19.8380  -21.1110  -12.1380 N.pl3   1  UNL1       -0.3640
      4  C         18.9990  -21.6770  -11.1720 C.2     1  UNL1        0.0460
      5  C         17.6310  -21.3850  -11.1460 C.2     1  UNL1        0.0320
      6  C         16.8130  -21.9240  -10.1490 C.2     1  UNL1        0.0270
      7  C         17.3710  -22.7440   -9.1620 C.2     1  UNL1        0.0810
      8  C         18.7330  -23.0500   -9.1710 C.2     1  UNL1        0.0430
      9  C         19.5430  -22.5030  -10.1700 C.2     1  UNL1        0.0430
     10  C         21.0010  -22.7930  -10.1930 C.2     1  UNL1        0.2010
     11  O         21.5030  -23.5030   -9.3240 O.2     1  UNL1       -0.2860
     12  H         19.4290  -20.6440  -12.9400 H       1  UNL1        0.1650
     13  C         23.2780  -22.4360  -11.4820 C.2     1  UNL1        0.2570
     14  N         24.0950  -21.4610  -10.9700 N.am    1  UNL1       -0.3560
     15  H         23.6680  -20.6800  -10.4700 H       1  UNL1        0.1620
     16  O         23.7050  -23.4360  -12.0520 O.2     1  UNL1       -0.2670
     17  C         25.5400  -21.5520  -11.0130 C.3     1  UNL1        0.1270
     18  C         26.1420  -20.6210  -12.0670 C.3     1  UNL1        0.0580
     19  C         25.8300  -21.0870  -13.4670 C.2     1  UNL1       -0.0570
     20  C         26.4260  -22.2470  -13.9760 C.2     1  UNL1        0.0070
     21  C         26.1260  -22.6920  -15.2660 C.2     1  UNL1        0.0070
     22  C         25.2150  -21.9910  -16.0630 C.2     1  UNL1       -0.0620
     23  C         24.9180  -22.4470  -17.4610 C.3     1  UNL1        0.0480
     24  C         24.6270  -20.8260  -15.5600 C.2     1  UNL1        0.0070
     25  C         24.9270  -20.3810  -14.2700 C.2     1  UNL1        0.0070
     26  S         16.3340  -23.4320   -7.8890 S.O2    1  UNL1        0.2630
     27  O         15.4870  -22.3710   -7.3850 O.2     1  UNL1       -0.2000
     28  O         15.7710  -24.6580   -8.4120 O.2     1  UNL1       -0.2000
     29  N         17.4410  -23.8780   -6.6920 N.pl3   1  UNL1       -0.2780
     30  H         18.2310  -24.3840   -7.0970 H       1  UNL1        0.1790
     31  C         17.7750  -22.9160   -5.6880 C.2     1  UNL1        0.0810
     32  C         18.6450  -21.8630   -5.9640 C.2     1  UNL1        0.0330
     33  C         18.9880  -20.9620   -4.9520 C.2     1  UNL1        0.0020
     34  C         18.4650  -21.1140   -3.6660 C.2     1  UNL1        0.0030
     35  C         17.5950  -22.1680   -3.3860 C.2     1  UNL1        0.0440
     36  C         17.2570  -23.0600   -4.3980 C.2     1  UNL1        0.1430
     37  F         16.4310  -24.0820   -4.1240 F       1  UNL1       -0.2040
@<TRIPOS>BOND
     1    23    22    1
     2    22    24    2
     3    22    21    1
     4    24    25    1
     5    21    20    2
     6    25    19    2
     7    20    19    1
     8    19    18    1
     9    12     3    1
    10     2     3    1
    11     2     1    2
    12     3     4    1
    13    18    17    1
    14    16    13    2
    15    13     1    1
    16    13    14   am
    17     1    10    1
    18     4     5    2
    19     4     9    1
    20     5     6    1
    21    17    14    1
    22    14    15    1
    23    10     9    1
    24    10    11    2
    25     9     8    2
    26     6     7    2
    27     8     7    1
    28     7    26    1
    29    28    26    2
    30    26    27    2
    31    26    29    1
    32    30    29    1
    33    29    31    1
    34    32    31    2
    35    32    33    1
    36    31    36    1
    37    33    34    2
    38    36    37    1
    39    36    35    2
    40    34    35    1
