@<TRIPOS>MOLECULE
16012_out_ligand_01.pdbqt
 34 38 0 0 0
SMALL
GASTEIGER

@<TRIPOS>ATOM
      1  C         23.1720  -21.8210  -12.4810 C.2     1  UNL1        0.2400
      2  N         23.3530  -22.6570  -11.3960 N.2     1  UNL1       -0.1980
      3  C         22.1470  -22.7540  -10.8780 C.3     1  UNL1        0.2230
      4  C         21.7330  -23.5060   -9.7240 C.2     1  UNL1        0.2960
      5  O         22.5090  -24.1880   -9.0570 O.2     1  UNL1       -0.2640
      6  N         20.3580  -23.4160   -9.4090 N.am    1  UNL1       -0.3050
      7  C         19.4480  -22.6250  -10.1960 C.2     1  UNL1        0.0670
      8  C         18.0820  -22.5190   -9.8990 C.2     1  UNL1        0.0390
      9  C         17.2170  -21.7330  -10.6820 C.2     1  UNL1       -0.0600
     10  C         15.7510  -21.6740  -10.3580 C.3     1  UNL1        0.0480
     11  C         17.7180  -21.0550  -11.7980 C.2     1  UNL1        0.0090
     12  C         19.0700  -21.1370  -12.1160 C.2     1  UNL1        0.0340
     13  C         19.9150  -21.9150  -11.3160 C.2     1  UNL1        0.0870
     14  N         21.2760  -22.0160  -11.6100 N.pl3   1  UNL1       -0.2060
     15  N         21.8950  -21.4040  -12.6430 N.pl3   1  UNL1       -0.1390
     16  C         24.2630  -21.4050  -13.3990 C.2     1  UNL1        0.2950
     17  N         23.9950  -21.7740  -14.7080 N.am    1  UNL1       -0.3200
     18  H         23.1110  -22.2610  -14.8250 H       1  UNL1        0.1690
     19  O         25.2590  -20.8090  -13.0030 O.2     1  UNL1       -0.2640
     20  C         24.7760  -21.5610  -15.8560 C.2     1  UNL1        0.0350
     21  C         25.3470  -22.6900  -16.4560 C.2     1  UNL1        0.0290
     22  C         26.1420  -22.5650  -17.5960 C.2     1  UNL1        0.0030
     23  C         26.3710  -21.3080  -18.1520 C.2     1  UNL1        0.0070
     24  C         25.7960  -20.1710  -17.5770 C.2     1  UNL1       -0.0600
     25  C         26.0650  -18.8100  -18.1490 C.3     1  UNL1        0.0480
     26  C         25.0110  -20.3050  -16.4200 C.2     1  UNL1        0.0360
     27  C         19.8890  -24.1900   -8.2560 C.3     1  UNL1        0.1710
     28  C         19.2400  -23.3430   -7.1810 C.2     1  UNL1       -0.0370
     29  C         18.0960  -23.7880   -6.4980 C.2     1  UNL1        0.0090
     30  C         17.5070  -23.0080   -5.4990 C.2     1  UNL1        0.0040
     31  C         18.0610  -21.7750   -5.1610 C.2     1  UNL1        0.0420
     32  C         19.2030  -21.3400   -5.8190 C.2     1  UNL1        0.1170
     33  F         19.7450  -20.1590   -5.4920 F       1  UNL1       -0.2060
     34  C         19.7990  -22.1090   -6.8150 C.2     1  UNL1        0.0510
@<TRIPOS>BOND
     1    23    22    2
     2    23    24    1
     3    25    24    1
     4    22    21    1
     5    24    26    2
     6    21    20    2
     7    26    20    1
     8    20    17    1
     9    18    17    1
    10    17    16   am
    11    16    19    2
    12    16     1    1
    13    15     1    1
    14    15    14    1
    15     1     2    2
    16    12    11    2
    17    12    13    1
    18    11     9    1
    19    14    13    1
    20    14     3    1
    21     2     3    1
    22    13     7    2
    23     3     4    1
    24     9    10    1
    25     9     8    2
    26     7     8    1
    27     7     6    1
    28     4     6   am
    29     4     5    2
    30     6    27    1
    31    27    28    1
    32    28    34    2
    33    28    29    1
    34    34    32    1
    35    29    30    2
    36    32    33    1
    37    32    31    2
    38    30    31    1
