@<TRIPOS>MOLECULE
16010_out_ligand_01.pdbqt
 34 37 0 0 0
SMALL
GASTEIGER

@<TRIPOS>ATOM
      1  C         23.4230  -22.1780  -12.9020 C.2     1  UNL1        0.0780
      2  C         23.7130  -22.9330  -11.7640 C.2     1  UNL1        0.0390
      3  C         22.8160  -22.9440  -10.6960 C.2     1  UNL1        0.0330
      4  C         21.6280  -22.2120  -10.7780 C.2     1  UNL1        0.0420
      5  C         21.3330  -21.4750  -11.9240 C.2     1  UNL1        0.0330
      6  C         22.2270  -21.4660  -12.9960 C.2     1  UNL1        0.0390
      7  N         20.7450  -22.1960   -9.6620 N.pl3   1  UNL1       -0.2810
      8  H         20.3880  -21.2920   -9.3580 H       1  UNL1        0.1790
      9  S         19.5590  -23.3980   -9.5440 S.O2    1  UNL1        0.2630
     10  O         18.5850  -23.2270  -10.6020 O.2     1  UNL1       -0.2000
     11  O         20.2770  -24.6470   -9.3830 O.2     1  UNL1       -0.2000
     12  C         18.7690  -23.0270   -7.9930 C.2     1  UNL1        0.0800
     13  C         19.4090  -22.2030   -7.0680 C.2     1  UNL1        0.0260
     14  C         18.7800  -21.9170   -5.8570 C.2     1  UNL1        0.0090
     15  C         17.5060  -22.4350   -5.5710 C.2     1  UNL1       -0.0520
     16  C         16.8660  -23.2700   -6.5060 C.2     1  UNL1       -0.0500
     17  C         16.8760  -22.1220   -4.2340 C.3     1  UNL1        0.0390
     18  C         17.4980  -23.5460   -7.7290 C.2     1  UNL1        0.0330
     19  C         15.4860  -23.8280   -6.2510 C.3     1  UNL1        0.0390
     20  C         15.0810  -23.7840   -4.7800 C.3     1  UNL1        0.0050
     21  C         15.3760  -22.4120   -4.1880 C.3     1  UNL1        0.0050
     22  O         24.2530  -22.1930  -13.9960 O.2     1  UNL1       -0.2910
     23  C         25.0890  -21.0950  -14.1730 C.2     1  UNL1        0.1850
     24  N         25.6090  -20.5050  -13.0610 N.2     1  UNL1       -0.2360
     25  C         26.3920  -19.4220  -13.2390 C.2     1  UNL1        0.1190
     26  C         26.6810  -18.8860  -14.4800 C.2     1  UNL1        0.0200
     27  C         26.1330  -19.4990  -15.6040 C.2     1  UNL1        0.0230
     28  C         25.3120  -20.6290  -15.4690 C.2     1  UNL1        0.0850
     29  C         24.7690  -21.2380  -16.7190 C.2     1  UNL1        0.2560
     30  N         24.8680  -22.6020  -16.8850 N.am    1  UNL1       -0.3570
     31  H         25.2510  -23.1720  -16.1390 H       1  UNL1        0.1620
     32  O         24.2470  -20.5120  -17.5620 O.2     1  UNL1       -0.2680
     33  C         24.3340  -23.2810  -18.0480 C.3     1  UNL1        0.1180
     34  C         22.9290  -23.7970  -17.8010 C.3     1  UNL1        0.0260
@<TRIPOS>BOND
     1    33    34    1
     2    33    30    1
     3    32    29    2
     4    30    29   am
     5    30    31    1
     6    29    28    1
     7    27    28    2
     8    27    26    1
     9    28    23    1
    10    26    25    2
    11    23    22    1
    12    23    24    2
    13    22     1    1
    14    25    24    1
    15     6     1    2
    16     6     5    1
    17     1     2    1
    18     5     4    2
    19     2     3    2
    20     4     3    1
    21     4     7    1
    22    10     9    2
    23     7     9    1
    24     7     8    1
    25     9    11    2
    26     9    12    1
    27    12    18    2
    28    12    13    1
    29    18    16    1
    30    13    14    2
    31    16    19    1
    32    16    15    2
    33    19    20    1
    34    14    15    1
    35    15    17    1
    36    20    21    1
    37    17    21    1
