@<TRIPOS>MOLECULE
16028_out_ligand_01.pdbqt
 34 38 0 0 0
SMALL
GASTEIGER

@<TRIPOS>ATOM
      1  C         22.8800  -21.8340  -12.5980 C.2     1  UNL1        0.0320
      2  C         22.9350  -22.7090  -11.5100 C.2     1  UNL1        0.0180
      3  C         21.8040  -22.8890  -10.7090 C.2     1  UNL1        0.0150
      4  C         20.6150  -22.1910  -10.9800 C.2     1  UNL1       -0.0080
      5  C         20.5880  -21.2980  -12.0640 C.2     1  UNL1        0.0150
      6  C         21.7160  -21.1140  -12.8690 C.2     1  UNL1        0.0180
      7  C         19.4280  -22.3690  -10.1460 C.2     1  UNL1        0.0620
      8  C         19.2830  -22.6220   -8.7940 C.2     1  UNL1        0.0660
      9  C         17.8860  -22.6900   -8.5490 C.2     1  UNL1        0.0900
     10  N         17.1970  -22.5070   -9.6860 N.2     1  UNL1       -0.1740
     11  N         18.1410  -22.2910  -10.6130 N.pl3   1  UNL1       -0.2770
     12  H         17.8380  -22.0900  -11.5590 H       1  UNL1        0.1890
     13  C         17.2120  -22.9740   -7.2820 C.2     1  UNL1        0.0050
     14  C         16.1400  -23.8820   -7.3160 C.2     1  UNL1        0.0150
     15  C         15.4790  -24.2430   -6.1470 C.2     1  UNL1        0.0020
     16  C         15.8820  -23.6980   -4.9310 C.2     1  UNL1        0.0120
     17  C         16.9380  -22.7750   -4.8660 C.2     1  UNL1       -0.0250
     18  C         17.3120  -22.2300   -3.6260 C.2     1  UNL1        0.0120
     19  C         17.6200  -22.3890   -6.0490 C.2     1  UNL1       -0.0130
     20  C         18.3450  -21.2970   -3.5320 C.2     1  UNL1        0.0010
     21  C         19.0120  -20.8920   -4.6790 C.2     1  UNL1        0.0010
     22  C         18.6540  -21.4270   -5.9190 C.2     1  UNL1        0.0130
     23  C         24.0750  -21.6050  -13.4340 C.2     1  UNL1        0.2530
     24  N         25.2390  -21.1240  -12.8340 N.am    1  UNL1       -0.3520
     25  C         25.4270  -20.9680  -11.3950 C.3     1  UNL1        0.1520
     26  O         23.9680  -21.8370  -14.6360 O.2     1  UNL1       -0.2670
     27  C         26.3810  -20.8080  -13.6970 C.3     1  UNL1        0.1310
     28  C         26.6530  -19.3090  -13.8890 C.3     1  UNL1        0.0790
     29  C         26.4610  -18.7910  -15.2920 C.2     1  UNL1        0.0350
     30  C         26.6400  -17.4430  -15.5950 C.2     1  UNL1        0.0270
     31  C         26.4630  -17.0190  -16.9100 C.2     1  UNL1        0.0030
     32  C         26.1270  -17.9460  -17.8860 C.2     1  UNL1        0.0190
     33  C         25.9760  -19.2680  -17.5040 C.2     1  UNL1        0.1170
     34  N         26.1350  -19.7090  -16.2370 N.2     1  UNL1       -0.2660
@<TRIPOS>BOND
     1    32    33    2
     2    32    31    1
     3    33    34    1
     4    31    30    2
     5    34    29    2
     6    30    29    1
     7    29    28    1
     8    26    23    2
     9    28    27    1
    10    27    24    1
    11    23    24   am
    12    23     1    1
    13     6     1    2
    14     6     5    1
    15    24    25    1
    16     1     2    1
    17     5     4    2
    18    12    11    1
    19     2     3    2
    20     4     3    1
    21     4     7    1
    22    11     7    1
    23    11    10    1
    24     7     8    2
    25    10     9    2
    26     8     9    1
    27     9    13    1
    28    14    13    2
    29    14    15    1
    30    13    19    1
    31    15    16    2
    32    19    22    1
    33    19    17    2
    34    22    21    2
    35    16    17    1
    36    17    18    1
    37    21    20    1
    38    18    20    2
