@<TRIPOS>MOLECULE
16039_out_ligand_01.pdbqt
 34 36 0 0 0
SMALL
GASTEIGER

@<TRIPOS>ATOM
      1  C         26.3550  -18.5430  -16.4400 C.3     1  UNL1        0.0500
      2  C         26.0850  -19.5030  -15.3120 C.2     1  UNL1       -0.0340
      3  C         26.5480  -19.0670  -14.0080 C.2     1  UNL1        0.0330
      4  C         26.4110  -19.8290  -12.9100 C.2     1  UNL1        0.0120
      5  C         26.9070  -19.3320  -11.5760 C.3     1  UNL1        0.0680
      6  N         25.7970  -21.0770  -13.0120 N.am    1  UNL1       -0.3080
      7  C         25.2600  -21.5400  -14.2210 C.2     1  UNL1        0.2690
      8  O         24.6130  -22.5870  -14.2870 O.2     1  UNL1       -0.2660
      9  C         25.4630  -20.6920  -15.4340 C.2     1  UNL1        0.1180
     10  C         24.9700  -21.1870  -16.6710 C.1     1  UNL1        0.1050
     11  N         24.5920  -21.5670  -17.7000 N.1     1  UNL1       -0.1910
     12  C         25.6100  -21.9410  -11.8370 C.3     1  UNL1        0.2350
     13  C         24.2710  -21.6700  -11.1370 C.2     1  UNL1        0.2400
     14  O         24.2150  -20.9360  -10.1510 O.2     1  UNL1       -0.2710
     15  N         23.2140  -22.3480  -11.7150 N.am    1  UNL1       -0.3260
     16  H         23.4520  -22.9460  -12.5100 H       1  UNL1        0.1690
     17  C         21.8500  -22.2860  -11.3780 C.2     1  UNL1        0.0340
     18  C         21.4110  -23.1250  -10.3460 C.2     1  UNL1        0.0300
     19  C         20.0670  -23.1450   -9.9580 C.2     1  UNL1        0.0190
     20  C         19.1430  -22.3120  -10.5950 C.2     1  UNL1        0.0320
     21  C         19.5770  -21.4810  -11.6330 C.2     1  UNL1        0.0190
     22  C         20.9230  -21.4660  -12.0200 C.2     1  UNL1        0.0300
     23  C         17.6970  -22.3030  -10.2370 C.2     1  UNL1        0.2510
     24  O         16.9850  -21.3660  -10.5790 O.2     1  UNL1       -0.2680
     25  N         17.2380  -23.3700   -9.4920 N.am    1  UNL1       -0.3570
     26  H         17.9060  -23.9890   -9.0550 H       1  UNL1        0.1620
     27  C         15.8640  -23.4230   -9.0230 C.3     1  UNL1        0.1270
     28  C         15.6970  -24.3920   -7.8460 C.3     1  UNL1        0.0530
     29  C         16.0000  -23.7520   -6.5080 C.2     1  UNL1       -0.0820
     30  C         15.1190  -22.9290   -5.9120 C.2     1  UNL1       -0.0240
     31  C         15.3760  -22.2160   -4.6170 C.3     1  UNL1        0.0270
     32  C         16.8410  -22.2610   -4.1830 C.3     1  UNL1        0.0040
     33  C         17.4460  -23.6380   -4.4190 C.3     1  UNL1        0.0050
     34  C         17.3460  -24.0450   -5.8930 C.3     1  UNL1        0.0340
@<TRIPOS>BOND
     1    11    10    3
     2    10     9    1
     3     1     2    1
     4     9     2    2
     5     9     7    1
     6     2     3    1
     7     8     7    2
     8     7     6   am
     9     3     4    2
    10     6     4    1
    11     6    12    1
    12     4     5    1
    13    16    15    1
    14    22    21    1
    15    22    17    2
    16    12    13    1
    17    15    17    1
    18    15    13   am
    19    21    20    2
    20    17    18    1
    21    13    14    2
    22    20    23    1
    23    20    19    1
    24    24    23    2
    25    18    19    2
    26    23    25   am
    27    25    26    1
    28    25    27    1
    29    27    28    1
    30    28    29    1
    31    29    30    2
    32    29    34    1
    33    30    31    1
    34    34    33    1
    35    31    32    1
    36    33    32    1
