@<TRIPOS>MOLECULE
16041_out_ligand_01.pdbqt
 34 37 0 0 0
SMALL
GASTEIGER

@<TRIPOS>ATOM
      1  C         24.2500  -22.5210  -10.3000 C.ar    1  UNL1        0.1050
      2  N         23.7090  -21.7340   -9.3900 N.ar    1  UNL1       -0.2330
      3  C         22.5570  -22.3610   -8.9900 C.ar    1  UNL1        0.0860
      4  C         21.6140  -21.9640   -8.0300 C.2     1  UNL1        0.0510
      5  C         20.5030  -22.7910   -7.8080 C.2     1  UNL1        0.0340
      6  C         20.3590  -24.0000   -8.5110 C.2     1  UNL1        0.0190
      7  C         21.2930  -24.4050   -9.4730 C.2     1  UNL1        0.0330
      8  C         22.3750  -23.5510   -9.6840 C.ar    1  UNL1        0.0620
      9  N         23.4520  -23.6150  -10.5300 N.ar    1  UNL1       -0.3430
     10  H         23.6330  -24.3510  -11.1950 H       1  UNL1        0.1670
     11  C         25.5320  -22.2710  -11.0260 C.3     1  UNL1        0.0830
     12  C         26.0190  -20.8190  -10.9660 C.3     1  UNL1        0.0460
     13  C         26.0940  -20.1300  -12.3080 C.2     1  UNL1       -0.0580
     14  C         25.1950  -20.4570  -13.3290 C.2     1  UNL1        0.0090
     15  C         25.2560  -19.8180  -14.5730 C.2     1  UNL1        0.0300
     16  C         26.2170  -18.8410  -14.8190 C.2     1  UNL1        0.0340
     17  C         27.1170  -18.5100  -13.7990 C.2     1  UNL1        0.0300
     18  C         27.0590  -19.1490  -12.5560 C.2     1  UNL1        0.0090
     19  N         26.3420  -18.1450  -16.0380 N.am    1  UNL1       -0.3280
     20  C         26.7040  -16.8230  -16.2230 C.2     1  UNL1        0.2180
     21  C         26.7660  -16.4500  -17.6840 C.3     1  UNL1        0.1170
     22  O         26.9330  -15.9900  -15.3540 O.2     1  UNL1       -0.2740
     23  H         26.1340  -18.6800  -16.8710 H       1  UNL1        0.1690
     24  C         19.4580  -22.4340   -6.8120 C.2     1  UNL1        0.2520
     25  O         19.5750  -21.4120   -6.1450 O.2     1  UNL1       -0.2680
     26  N         18.4130  -23.3240   -6.6740 N.am    1  UNL1       -0.3520
     27  H         18.3770  -24.1520   -7.2520 H       1  UNL1        0.1630
     28  C         17.2930  -23.0710   -5.7670 C.3     1  UNL1        0.0840
     29  C         17.5450  -23.7800   -4.4290 C.3     1  UNL1        0.0250
     30  C         16.5470  -23.5000   -3.2960 C.3     1  UNL1        0.0020
     31  C         15.6610  -22.2710   -3.4870 C.3     1  UNL1        0.0000
     32  C         14.5830  -22.3980   -4.5710 C.3     1  UNL1        0.0000
     33  C         14.7430  -23.5500   -5.5600 C.3     1  UNL1        0.0020
     34  C         15.9790  -23.4660   -6.4530 C.3     1  UNL1        0.0250
@<TRIPOS>BOND
     1    21    20    1
     2    23    19    1
     3    20    19   am
     4    20    22    2
     5    19    16    1
     6    16    15    2
     7    16    17    1
     8    15    14    1
     9    17    18    2
    10    14    13    2
    11    18    13    1
    12    13    12    1
    13    10     9    1
    14    11    12    1
    15    11     1    1
    16     9     1   ar
    17     9     8   ar
    18     1     2   ar
    19     8     7    1
    20     8     3   ar
    21     7     6    2
    22     2     3   ar
    23     3     4    1
    24     6     5    1
    25     4     5    2
    26     5    24    1
    27    27    26    1
    28    24    26   am
    29    24    25    2
    30    26    28    1
    31    34    28    1
    32    34    33    1
    33    28    29    1
    34    33    32    1
    35    32    31    1
    36    29    30    1
    37    31    30    1
