@<TRIPOS>MOLECULE
1605_out_ligand_01.pdbqt
 33 36 0 0 0
SMALL
GASTEIGER

@<TRIPOS>ATOM
      1  C         21.1410  -22.9380  -10.2020 C.2     1  UNL1       -0.0380
      2  C         20.7680  -22.1670  -11.3260 C.2     1  UNL1        0.0090
      3  C         19.4750  -21.6580  -11.4530 C.2     1  UNL1        0.0100
      4  C         18.5610  -21.9220  -10.4440 C.2     1  UNL1       -0.0290
      5  C         18.9120  -22.6830   -9.3270 C.2     1  UNL1        0.0440
      6  C         20.1940  -23.1900   -9.1910 C.2     1  UNL1        0.0390
      7  N         17.8160  -22.7900   -8.4410 N.am    1  UNL1       -0.3090
      8  C         17.8340  -23.4870   -7.2420 C.2     1  UNL1        0.2580
      9  O         18.7210  -24.2470   -6.8640 O.2     1  UNL1       -0.2670
     10  C         16.6270  -22.1930   -9.1150 C.3     1  UNL1        0.0930
     11  C         15.6380  -23.2730   -9.5630 C.3     1  UNL1        0.0330
     12  C         17.1620  -21.4080  -10.3350 C.3     1  UNL1        0.0660
     13  C         22.5540  -23.4560  -10.0650 C.3     1  UNL1        0.1630
     14  N         23.3660  -23.0980  -11.2120 N.am    1  UNL1       -0.3390
     15  C         24.0890  -21.9190  -11.2190 C.2     1  UNL1        0.3210
     16  N         24.7310  -21.7540  -12.4300 N.am    1  UNL1       -0.3080
     17  O         24.1260  -21.1700  -10.2500 O.2     1  UNL1       -0.2470
     18  H         24.7190  -22.5720  -13.0190 H       1  UNL1        0.1700
     19  H         23.0240  -23.4330  -12.1040 H       1  UNL1        0.1640
     20  C         25.5210  -20.6570  -12.8590 C.2     1  UNL1        0.0430
     21  C         26.3420  -19.9510  -11.9700 C.2     1  UNL1        0.0300
     22  C         27.1210  -18.8760  -12.4020 C.2     1  UNL1        0.0040
     23  C         27.0860  -18.4890  -13.7350 C.2     1  UNL1        0.0240
     24  C         26.2670  -19.1720  -14.6390 C.2     1  UNL1        0.0420
     25  C         25.4660  -20.2590  -14.2210 C.2     1  UNL1       -0.0130
     26 CL         26.2980  -18.6130  -16.2780 Cl      1  UNL1       -0.0840
     27  C         24.5760  -20.9970  -15.1930 C.3     1  UNL1        0.0520
     28  C         16.6880  -23.3040   -6.3210 C.2     1  UNL1        0.0320
     29  C         15.6140  -24.1980   -6.3890 C.2     1  UNL1        0.0170
     30  C         14.5350  -24.0530   -5.5170 C.2     1  UNL1        0.0010
     31  C         14.5360  -23.0270   -4.5720 C.2     1  UNL1        0.0000
     32  C         15.6250  -22.1570   -4.4800 C.2     1  UNL1        0.0010
     33  C         16.7100  -22.2990   -5.3480 C.2     1  UNL1        0.0170
@<TRIPOS>BOND
     1    26    24    1
     2    27    25    1
     3    24    25    1
     4    24    23    2
     5    25    20    2
     6    23    22    1
     7    18    16    1
     8    20    16    1
     9    20    21    1
    10    16    15   am
    11    22    21    2
    12    19    14    1
    13     3     2    1
    14     3     4    2
    15     2     1    2
    16    15    14   am
    17    15    17    2
    18    14    13    1
    19     4    12    1
    20     4     5    1
    21    12    10    1
    22     1    13    1
    23     1     6    1
    24    11    10    1
    25     5     6    2
    26     5     7    1
    27    10     7    1
    28     7     8   am
    29     8     9    2
    30     8    28    1
    31    29    28    2
    32    29    30    1
    33    28    33    1
    34    30    31    2
    35    33    32    2
    36    31    32    1
