@<TRIPOS>MOLECULE
16064_out_ligand_01.pdbqt
 29 31 0 0 0
SMALL
GASTEIGER

@<TRIPOS>ATOM
      1  C         18.6540  -22.9410   -6.6080 C.2     1  UNL1       -0.0050
      2  C         19.5850  -21.8880   -6.5850 C.2     1  UNL1        0.0150
      3  C         20.7330  -21.9160   -7.3850 C.2     1  UNL1        0.0180
      4  C         20.9740  -23.0090   -8.2250 C.2     1  UNL1        0.0320
      5  C         20.0380  -24.0500   -8.2820 C.2     1  UNL1        0.0180
      6  C         18.8910  -24.0130   -7.4840 C.2     1  UNL1        0.0150
      7  C         17.4460  -22.8900   -5.7620 C.2     1  UNL1        0.0930
      8  N         17.6910  -23.2070   -4.4610 N.2     1  UNL1       -0.2580
      9  C         16.6560  -23.1530   -3.6000 C.2     1  UNL1        0.1170
     10  C         15.3730  -22.8060   -3.9720 C.2     1  UNL1        0.0220
     11  C         15.1270  -22.5030   -5.3100 C.2     1  UNL1        0.0330
     12  C         16.1640  -22.5470   -6.2440 C.2     1  UNL1        0.0640
     13  N         15.9650  -22.2920   -7.6270 N.am    1  UNL1       -0.3250
     14  C         15.7090  -23.2100   -8.6320 C.2     1  UNL1        0.2210
     15  O         15.5890  -24.4210   -8.5000 O.2     1  UNL1       -0.2730
     16  H         16.0340  -21.3230   -7.9120 H       1  UNL1        0.1690
     17  C         15.5790  -22.5240   -9.9840 C.3     1  UNL1        0.0980
     18  C         16.8200  -21.7330  -10.3590 C.3     1  UNL1        0.0140
     19  C         22.1790  -23.0870   -9.1010 C.2     1  UNL1        0.2560
     20  O         22.9050  -24.0680   -9.0000 O.2     1  UNL1       -0.2670
     21  N         22.3780  -21.9940   -9.9260 N.am    1  UNL1       -0.3230
     22  H         21.7630  -21.2010   -9.7960 H       1  UNL1        0.1690
     23  C         23.4020  -21.8180  -10.8800 C.2     1  UNL1        0.0350
     24  C         23.0700  -22.0390  -12.2240 C.2     1  UNL1        0.0310
     25  C         24.0280  -21.8920  -13.2300 C.2     1  UNL1        0.0260
     26  C         25.3290  -21.5250  -12.8970 C.2     1  UNL1        0.0340
     27 CL         26.5110  -21.3450  -14.1320 Cl      1  UNL1       -0.0840
     28  C         25.6740  -21.3050  -11.5680 C.2     1  UNL1        0.0260
     29  C         24.7120  -21.4530  -10.5610 C.2     1  UNL1        0.0310
@<TRIPOS>BOND
     1    27    26    1
     2    25    26    2
     3    25    24    1
     4    26    28    1
     5    24    23    2
     6    28    29    2
     7    23    29    1
     8    23    21    1
     9    18    17    1
    10    17    14    1
    11    21    22    1
    12    21    19   am
    13    19    20    2
    14    19     4    1
    15    14    15    2
    16    14    13   am
    17     5     4    2
    18     5     6    1
    19     4     3    1
    20    16    13    1
    21    13    12    1
    22     6     1    2
    23     3     2    2
    24     1     2    1
    25     1     7    1
    26    12     7    2
    27    12    11    1
    28     7     8    1
    29    11    10    2
    30     8     9    2
    31    10     9    1
