@<TRIPOS>MOLECULE
1606_out_ligand_01.pdbqt
 34 38 0 0 0
SMALL
GASTEIGER

@<TRIPOS>ATOM
      1  C         15.9760  -23.2730   -7.7910 C.ar    1  UNL1        0.1710
      2  N         15.1210  -22.5550   -7.0940 N.ar    1  UNL1       -0.2210
      3  C         15.5070  -22.7050   -5.7910 C.ar    1  UNL1        0.1050
      4  C         14.9740  -22.1830   -4.6080 C.2     1  UNL1        0.0370
      5  C         15.6250  -22.5080   -3.4160 C.2     1  UNL1        0.0220
      6  C         16.7530  -23.3190   -3.4610 C.2     1  UNL1        0.1190
      7  N         17.3040  -23.8540   -4.5780 N.2     1  UNL1       -0.2410
      8  C         16.6310  -23.5140   -5.6970 C.ar    1  UNL1        0.1610
      9  N         16.9000  -23.8990   -6.9900 N.ar    1  UNL1       -0.3040
     10  S         15.9400  -23.4350   -9.5180 S.3     1  UNL1       -0.0870
     11  C         16.3970  -21.7590  -10.0470 C.3     1  UNL1        0.1210
     12  C         17.7810  -21.6450  -10.6420 C.2     1  UNL1       -0.0480
     13  C         18.3070  -20.4020  -11.0310 C.2     1  UNL1        0.0090
     14  C         19.5880  -20.3130  -11.5910 C.2     1  UNL1        0.0170
     15  C         20.3630  -21.4680  -11.7580 C.2     1  UNL1        0.0320
     16  C         19.8370  -22.7120  -11.3880 C.2     1  UNL1        0.0170
     17  C         18.5570  -22.7990  -10.8320 C.2     1  UNL1        0.0090
     18  C         21.7340  -21.4270  -12.3400 C.2     1  UNL1        0.2520
     19  O         21.8920  -21.0920  -13.5090 O.2     1  UNL1       -0.2680
     20  N         22.7660  -21.8180  -11.5080 N.am    1  UNL1       -0.3520
     21  H         22.5360  -22.2860  -10.6380 H       1  UNL1        0.1630
     22  C         24.1230  -21.9210  -11.9960 C.3     1  UNL1        0.0840
     23  C         25.1710  -21.4910  -10.9640 C.3     1  UNL1        0.0250
     24  C         26.4410  -22.2610  -11.3280 C.3     1  UNL1        0.0020
     25  C         26.0370  -23.2740  -12.3960 C.3     1  UNL1        0.0020
     26  C         24.5210  -23.3560  -12.3040 C.3     1  UNL1        0.0250
     27  C         18.0180  -24.7450   -7.3770 C.3     1  UNL1        0.1710
     28  C         19.2720  -23.9410   -7.6580 C.2     1  UNL1       -0.0370
     29  C         19.3960  -22.6190   -7.2010 C.2     1  UNL1        0.0090
     30  C         20.5540  -21.8700   -7.4710 C.2     1  UNL1        0.0040
     31  C         21.5990  -22.4390   -8.1920 C.2     1  UNL1        0.0420
     32  C         21.4830  -23.7480   -8.6410 C.2     1  UNL1        0.1170
     33  F         22.4910  -24.2930   -9.3400 F       1  UNL1       -0.2060
     34  C         20.3360  -24.5010   -8.3840 C.2     1  UNL1        0.0510
@<TRIPOS>BOND
     1    19    18    2
     2    25    26    1
     3    25    24    1
     4    18    15    1
     5    18    20   am
     6    26    22    1
     7    22    20    1
     8    22    23    1
     9    15    14    2
    10    15    16    1
    11    14    13    1
    12    20    21    1
    13    16    17    2
    14    24    23    1
    15    13    12    2
    16    17    12    1
    17    12    11    1
    18    11    10    1
    19    10     1    1
    20    33    32    1
    21    32    34    1
    22    32    31    2
    23    34    28    2
    24    31    30    1
    25     1     2   ar
    26     1     9   ar
    27    28    27    1
    28    28    29    1
    29    30    29    2
    30    27     9    1
    31     2     3   ar
    32     9     8   ar
    33     3     8   ar
    34     3     4    1
    35     8     7    1
    36     4     5    2
    37     7     6    2
    38     6     5    1
