@<TRIPOS>MOLECULE
16076_out_ligand_01.pdbqt
 29 32 0 0 0
SMALL
GASTEIGER

@<TRIPOS>ATOM
      1  N         16.9200  -23.1550   -8.8580 N.pl3   1  UNL1       -0.2560
      2  C         15.9440  -22.4710   -9.5230 C.2     1  UNL1        0.1170
      3  C         16.5840  -21.7490  -10.5010 C.2     1  UNL1        0.0580
      4  C         17.9700  -22.0440  -10.3580 C.2     1  UNL1        0.1460
      5  N         18.1550  -22.9060   -9.3390 N.2     1  UNL1       -0.1650
      6  C         19.1110  -21.5430  -11.1660 C.2     1  UNL1        0.2760
      7  O         19.0260  -20.5200  -11.8370 O.2     1  UNL1       -0.2660
      8  N         20.2380  -22.3520  -11.0850 N.am    1  UNL1       -0.3220
      9  H         20.1250  -23.2330  -10.6030 H       1  UNL1        0.1690
     10  C         21.5040  -22.1310  -11.6680 C.2     1  UNL1        0.0370
     11  C         22.6220  -22.5640  -10.9380 C.2     1  UNL1        0.0320
     12  C         23.9160  -22.3680  -11.4260 C.2     1  UNL1        0.0420
     13  C         24.1050  -21.7320  -12.6490 C.2     1  UNL1        0.1020
     14  C         22.9970  -21.3200  -13.3950 C.2     1  UNL1        0.1040
     15  O         25.4010  -21.5510  -13.0570 O.2     1  UNL1       -0.3460
     16  C         21.7030  -21.5060  -12.9010 C.2     1  UNL1        0.0690
     17  O         23.1070  -20.7130  -14.6220 O.2     1  UNL1       -0.3460
     18  C         24.4150  -20.8900  -15.1770 C.3     1  UNL1        0.2020
     19  C         25.4810  -20.6070  -14.1320 C.3     1  UNL1        0.2020
     20  C         16.7770  -24.0860   -7.7380 C.3     1  UNL1        0.3250
     21  O         16.0950  -23.4470   -6.6620 O.2     1  UNL1       -0.3300
     22  C         16.8630  -22.7700   -5.7510 C.2     1  UNL1        0.0770
     23  C         16.4940  -22.9380   -4.4040 C.2     1  UNL1       -0.0290
     24  C         17.2260  -22.2880   -3.4020 C.2     1  UNL1        0.0100
     25  C         15.3270  -23.8110   -4.0270 C.3     1  UNL1        0.0510
     26  C         18.3120  -21.4770   -3.7300 C.2     1  UNL1        0.0070
     27  C         18.6780  -21.2940   -5.0650 C.2     1  UNL1       -0.0590
     28  C         19.8660  -20.4480   -5.4170 C.3     1  UNL1        0.0480
     29  C         17.9560  -21.9550   -6.0710 C.2     1  UNL1        0.0440
@<TRIPOS>BOND
     1    18    17    1
     2    18    19    1
     3    17    14    1
     4    19    15    1
     5    14    16    1
     6    14    13    2
     7    15    13    1
     8    16    10    2
     9    13    12    1
    10     7     6    2
    11    10     8    1
    12    10    11    1
    13    12    11    2
    14     6     8   am
    15     6     4    1
    16     8     9    1
    17     3     4    1
    18     3     2    2
    19     4     5    2
    20     2     1    1
    21     5     1    1
    22     1    20    1
    23    20    21    1
    24    21    22    1
    25    29    22    2
    26    29    27    1
    27    22    23    1
    28    28    27    1
    29    27    26    2
    30    23    25    1
    31    23    24    2
    32    26    24    1
