@<TRIPOS>MOLECULE
16086_out_ligand_01.pdbqt
 31 34 0 0 0
SMALL
GASTEIGER

@<TRIPOS>ATOM
      1  C         19.7050  -21.9490  -10.9130 C.2     1  UNL1        0.1430
      2  C         19.9720  -21.2120  -12.0560 C.2     1  UNL1        0.0450
      3  C         21.3240  -21.4570  -12.4020 C.2     1  UNL1        0.0380
      4  C         21.8140  -22.3350  -11.4600 C.2     1  UNL1        0.0780
      5  O         20.8400  -22.6300  -10.5530 O.2     1  UNL1       -0.3070
      6  C         18.5220  -22.1200  -10.0790 C.2     1  UNL1        0.2800
      7  O         17.4060  -21.7550  -10.4430 O.2     1  UNL1       -0.2650
      8  N         18.7760  -22.7220   -8.8620 N.am    1  UNL1       -0.3190
      9  H         19.7320  -22.9860   -8.6370 H       1  UNL1        0.1690
     10  C         17.8770  -23.0430   -7.8140 C.2     1  UNL1        0.0650
     11  C         16.8280  -23.9540   -7.9510 C.2     1  UNL1        0.0330
     12  C         15.9900  -24.2150   -6.8730 C.2     1  UNL1        0.0220
     13  C         16.1980  -23.5650   -5.6560 C.2     1  UNL1        0.0230
     14 BR         14.9930  -23.9940   -4.2450 Br      1  UNL1       -0.0500
     15  C         17.2560  -22.6370   -5.4960 C.2     1  UNL1        0.0120
     16  C         17.5390  -21.9360   -4.3010 C.2     1  UNL1        0.0170
     17  C         18.1050  -22.3790   -6.5980 C.2     1  UNL1        0.0940
     18  C         18.5990  -21.0410   -4.2310 C.2     1  UNL1        0.0200
     19  C         19.3650  -20.8620   -5.3620 C.2     1  UNL1        0.1170
     20  N         19.1400  -21.5050   -6.5260 N.2     1  UNL1       -0.2580
     21  C         23.1340  -22.9780  -11.2330 C.3     1  UNL1        0.2400
     22  O         23.9330  -22.7090  -12.3860 O.2     1  UNL1       -0.3420
     23  C         24.7970  -21.6520  -12.3190 C.2     1  UNL1        0.1020
     24  C         25.4500  -21.2460  -11.1520 C.2     1  UNL1        0.0390
     25  C         26.3570  -20.1780  -11.1790 C.2     1  UNL1        0.0030
     26  C         26.6340  -19.5090  -12.3720 C.2     1  UNL1        0.0030
     27  C         26.0010  -19.9030  -13.5470 C.2     1  UNL1        0.0390
     28  C         25.0890  -20.9670  -13.5060 C.2     1  UNL1        0.1360
     29  N         24.4310  -21.3410  -14.7460 N.pl3   1  UNL1       -0.1130
     30  O         25.0150  -22.1650  -15.4650 O.2     1  UNL1       -0.5320
     31  O         23.3620  -20.7770  -15.0240 O.2     1  UNL1       -0.5320
@<TRIPOS>BOND
     1    30    29    2
     2    31    29    2
     3    29    28    1
     4    27    28    1
     5    27    26    2
     6    28    23    2
     7     3     2    1
     8     3     4    2
     9    22    23    1
    10    22    21    1
    11    26    25    1
    12    23    24    1
    13     2     1    2
    14     4    21    1
    15     4     5    1
    16    25    24    2
    17     1     5    1
    18     1     6    1
    19     7     6    2
    20     6     8   am
    21     8     9    1
    22     8    10    1
    23    11    10    2
    24    11    12    1
    25    10    17    1
    26    12    13    2
    27    17    20    1
    28    17    15    2
    29    20    19    2
    30    13    15    1
    31    13    14    1
    32    15    16    1
    33    19    18    1
    34    16    18    2
