@<TRIPOS>MOLECULE
16090_out_ligand_01.pdbqt
 38 41 0 0 0
SMALL
GASTEIGER

@<TRIPOS>ATOM
      1  C         20.1730  -22.4860  -10.3460 C.ar    1  UNL1        0.0980
      2  S         18.5040  -22.4680  -10.6420 S.2     1  UNL1       -0.0750
      3  C         18.1070  -22.4990   -8.9750 C.ar    1  UNL1       -0.0070
      4  C         19.2460  -22.5500   -8.1780 C.ar    1  UNL1       -0.0210
      5  C         20.4400  -22.5330   -8.9920 C.ar    1  UNL1        0.0850
      6  C         21.7780  -22.5690   -8.4790 C.1     1  UNL1        0.1030
      7  N         22.8780  -22.6030   -8.1100 N.1     1  UNL1       -0.1910
      8  C         19.2460  -22.6480   -6.6730 C.3     1  UNL1        0.0410
      9  C         18.9900  -21.3250   -5.9550 C.3     1  UNL1        0.0050
     10  C         18.4770  -21.5040   -4.5120 C.3     1  UNL1        0.0000
     11  C         16.9980  -21.9180   -4.4320 C.3     1  UNL1        0.0000
     12  C         16.7750  -23.4240   -4.2470 C.3     1  UNL1        0.0000
     13  C         15.3810  -23.9110   -4.6730 C.3     1  UNL1        0.0000
     14  C         15.0080  -23.6790   -6.1450 C.3     1  UNL1        0.0000
     15  C         15.8840  -24.4340   -7.1550 C.3     1  UNL1        0.0000
     16  C         15.9210  -23.7730   -8.5400 C.3     1  UNL1        0.0050
     17  C         16.6470  -22.4180   -8.5900 C.3     1  UNL1        0.0470
     18  N         21.0980  -22.4830  -11.3850 N.am    1  UNL1       -0.3160
     19  C         22.1180  -21.5690  -11.5830 C.2     1  UNL1        0.2560
     20  O         22.4620  -20.6550  -10.8460 O.2     1  UNL1       -0.2670
     21  H         21.0630  -23.2750  -12.0170 H       1  UNL1        0.1690
     22  C         22.9030  -21.7800  -12.8340 C.2     1  UNL1        0.0330
     23  C         22.6250  -21.0680  -14.0070 C.2     1  UNL1        0.0200
     24  C         23.3920  -21.2900  -15.1530 C.2     1  UNL1        0.0380
     25  C         24.4340  -22.2210  -15.1270 C.2     1  UNL1        0.0760
     26  C         24.7570  -22.9090  -13.9490 C.2     1  UNL1        0.0000
     27  C         23.9720  -22.6860  -12.8060 C.2     1  UNL1        0.0290
     28  O         25.2090  -22.4160  -16.2390 O.2     1  UNL1       -0.3550
     29  C         24.4960  -23.1470  -17.2390 C.3     1  UNL1        0.2100
     30  C         25.8950  -23.8970  -13.9050 C.3     1  UNL1        0.2170
     31  O         27.0990  -23.1730  -13.6660 O.2     1  UNL1       -0.3450
     32  C         26.9960  -21.9500  -13.0580 C.2     1  UNL1        0.0860
     33  C         26.9930  -20.7270  -13.7380 C.2     1  UNL1        0.0380
     34  C         26.8690  -19.5230  -13.0360 C.2     1  UNL1        0.0030
     35  C         26.7460  -19.5270  -11.6490 C.2     1  UNL1        0.0020
     36  C         26.7440  -20.7380  -10.9590 C.2     1  UNL1        0.0220
     37  C         26.8680  -21.9420  -11.6600 C.2     1  UNL1        0.0440
     38 BR         26.8650  -23.5560  -10.6530 Br      1  UNL1       -0.0480
@<TRIPOS>BOND
     1    29    28    1
     2    28    25    1
     3    24    25    2
     4    24    23    1
     5    25    26    1
     6    23    22    2
     7    26    30    1
     8    26    27    2
     9    30    31    1
    10    33    32    2
    11    33    34    1
    12    31    32    1
    13    32    37    1
    14    34    35    2
    15    22    27    1
    16    22    19    1
    17    21    18    1
    18    37    36    2
    19    37    38    1
    20    35    36    1
    21    19    18   am
    22    19    20    2
    23    18     1    1
    24     2     1   ar
    25     2     3   ar
    26     1     5   ar
    27     5     6    1
    28     5     4   ar
    29     3    17    1
    30     3     4   ar
    31    17    16    1
    32    16    15    1
    33     6     7    3
    34     4     8    1
    35    15    14    1
    36     8     9    1
    37    14    13    1
    38     9    10    1
    39    13    12    1
    40    10    11    1
    41    11    12    1
