@<TRIPOS>MOLECULE
160_out_ligand_01.pdbqt
 31 33 0 0 0
SMALL
GASTEIGER

@<TRIPOS>ATOM
      1  N         20.6960  -22.5640  -10.7450 N.am    1  UNL1       -0.3230
      2  C         19.7400  -21.5770  -10.8770 C.2     1  UNL1        0.2560
      3  O         19.8670  -20.4800  -11.4100 O.2     1  UNL1       -0.2670
      4  H         20.3810  -23.4610  -10.3950 H       1  UNL1        0.1690
      5  C         18.4040  -21.9300  -10.3280 C.2     1  UNL1        0.0330
      6  C         17.2260  -21.4490  -10.9140 C.2     1  UNL1        0.0170
      7  C         15.9840  -21.8090  -10.3830 C.2     1  UNL1        0.0030
      8  C         15.9180  -22.6600   -9.2800 C.2     1  UNL1        0.0250
      9  C         17.0960  -23.1650   -8.7210 C.2     1  UNL1        0.0800
     10  C         18.3420  -22.7900   -9.2280 C.2     1  UNL1        0.0420
     11  S         17.0110  -24.2350   -7.2970 S.O2    1  UNL1        0.2600
     12  O         15.9130  -25.1520   -7.5140 O.2     1  UNL1       -0.2000
     13  O         18.3530  -24.7210   -7.0520 O.2     1  UNL1       -0.2000
     14  N         16.5950  -23.1740   -6.0420 N.3     1  UNL1       -0.3070
     15  C         15.3050  -23.4120   -5.3530 C.3     1  UNL1        0.1350
     16  C         15.0810  -22.3560   -4.2770 C.3     1  UNL1        0.0210
     17  C         16.1670  -22.4100   -3.2040 C.3     1  UNL1        0.0030
     18  C         17.4940  -22.9410   -3.7420 C.3     1  UNL1        0.0210
     19  C         17.6860  -22.6020   -5.2140 C.3     1  UNL1        0.1350
     20  C         22.0530  -22.4970  -11.1270 C.2     1  UNL1        0.0360
     21  C         23.1050  -23.0010  -10.3590 C.2     1  UNL1        0.0290
     22  C         24.4280  -22.9140  -10.8120 C.2     1  UNL1        0.0040
     23  C         24.7110  -22.3190  -12.0380 C.2     1  UNL1        0.0250
     24  C         23.6630  -21.8050  -12.8020 C.2     1  UNL1        0.0760
     25  C         22.3390  -21.8990  -12.3600 C.2     1  UNL1        0.0540
     26  S         24.0130  -21.0700  -14.3700 S.O2    1  UNL1        0.2390
     27  O         23.9000  -22.0760  -15.4010 O.2     1  UNL1       -0.2060
     28  O         25.1690  -20.2160  -14.2440 O.2     1  UNL1       -0.2060
     29  N         22.6960  -20.0520  -14.5800 N.3     1  UNL1       -0.2250
     30  H         21.8900  -20.5840  -14.9080 H       1  UNL1        0.1360
     31  H         22.9500  -19.2740  -15.1890 H       1  UNL1        0.1360
@<TRIPOS>BOND
     1    27    26    2
     2    31    29    1
     3    30    29    1
     4    29    26    1
     5    26    28    2
     6    26    24    1
     7    24    25    1
     8    24    23    2
     9    25    20    2
    10    23    22    1
    11     3     2    2
    12    20     1    1
    13    20    21    1
    14     6     7    1
    15     6     5    2
    16     2     1   am
    17     2     5    1
    18    22    21    2
    19     1     4    1
    20     7     8    2
    21     5    10    1
    22     8     9    1
    23    10     9    2
    24     9    11    1
    25    12    11    2
    26    11    13    2
    27    11    14    1
    28    14    15    1
    29    14    19    1
    30    15    16    1
    31    19    18    1
    32    16    17    1
    33    18    17    1
