@<TRIPOS>MOLECULE
16105_out_ligand_01.pdbqt
 30 33 0 0 0
SMALL
GASTEIGER

@<TRIPOS>ATOM
      1  C         17.7810  -22.0420  -10.3930 C.2     1  UNL1        0.1430
      2  C         16.4590  -21.6990  -10.6340 C.2     1  UNL1        0.0450
      3  C         15.6600  -22.4960   -9.7780 C.2     1  UNL1        0.0380
      4  C         16.5280  -23.2870   -9.0570 C.2     1  UNL1        0.0780
      5  O         17.8120  -23.0150   -9.4260 O.2     1  UNL1       -0.3070
      6  C         19.0590  -21.5930  -10.9370 C.2     1  UNL1        0.2790
      7  O         19.1300  -20.6770  -11.7510 O.2     1  UNL1       -0.2650
      8  N         20.1560  -22.2920  -10.4490 N.am    1  UNL1       -0.3210
      9  H         19.9670  -23.0270   -9.7840 H       1  UNL1        0.1690
     10  C         21.5190  -22.1070  -10.7700 C.2     1  UNL1        0.0350
     11  C         22.3890  -21.8220   -9.6940 C.2     1  UNL1        0.0300
     12  C         23.7580  -21.6150   -9.8970 C.2     1  UNL1        0.0100
     13  C         24.2490  -21.7090  -11.1840 C.2     1  UNL1       -0.0520
     14  C         23.3980  -21.9900  -12.2550 C.2     1  UNL1       -0.0500
     15  C         25.6520  -21.4960  -11.6600 C.3     1  UNL1        0.0390
     16  C         22.0360  -22.1850  -12.0650 C.2     1  UNL1        0.0370
     17  C         24.1510  -21.9910  -13.5490 C.3     1  UNL1        0.0390
     18  C         25.5960  -22.1400  -13.0520 C.3     1  UNL1        0.0090
     19  C         16.3650  -24.3280   -8.0070 C.3     1  UNL1        0.2400
     20  O         17.5370  -24.2910   -7.1900 O.2     1  UNL1       -0.3390
     21  C         17.5860  -23.3630   -6.1850 C.2     1  UNL1        0.1520
     22  C         16.6890  -23.2260   -5.1230 C.2     1  UNL1        0.1910
     23  F         15.6370  -24.0460   -4.9910 F       1  UNL1       -0.2000
     24  C         16.8690  -22.2250   -4.1650 C.2     1  UNL1        0.1600
     25  F         16.0000  -22.1080   -3.1530 F       1  UNL1       -0.2030
     26  C         17.9380  -21.3420   -4.2410 C.2     1  UNL1        0.0910
     27  C         18.8320  -21.4730   -5.2930 C.2     1  UNL1        0.1600
     28  F         19.8670  -20.6280   -5.3800 F       1  UNL1       -0.2030
     29  C         18.6610  -22.4680   -6.2540 C.2     1  UNL1        0.1910
     30  F         19.5460  -22.5640   -7.2580 F       1  UNL1       -0.2000
@<TRIPOS>BOND
     1    17    18    1
     2    17    14    1
     3    18    15    1
     4    14    16    1
     5    14    13    2
     6    16    10    2
     7     7     6    2
     8    15    13    1
     9    13    12    1
    10     6     8   am
    11     6     1    1
    12    10     8    1
    13    10    11    1
    14     2     1    2
    15     2     3    1
    16     8     9    1
    17     1     5    1
    18    12    11    2
    19     3     4    2
    20     5     4    1
    21     4    19    1
    22    19    20    1
    23    30    29    1
    24    20    21    1
    25    29    21    2
    26    29    27    1
    27    21    22    1
    28    28    27    1
    29    27    26    2
    30    22    23    1
    31    22    24    2
    32    26    24    1
    33    24    25    1
