@<TRIPOS>MOLECULE
16128_out_ligand_01.pdbqt
 34 37 0 0 0
SMALL
GASTEIGER

@<TRIPOS>ATOM
      1  N         20.6940  -22.1450  -11.0190 N.am    1  UNL1       -0.3150
      2  C         19.5330  -21.4510  -11.3250 C.2     1  UNL1        0.2770
      3  O         19.4400  -20.5370  -12.1400 O.2     1  UNL1       -0.2660
      4  H         20.6280  -22.9190  -10.3650 H       1  UNL1        0.1700
      5  C         21.9600  -21.9850  -11.5690 C.ar    1  UNL1        0.0930
      6  C         23.1610  -22.1750  -10.8980 C.ar    1  UNL1        0.0730
      7  C         24.3120  -22.0400  -11.8020 C.ar    1  UNL1       -0.0260
      8  C         23.8840  -21.6580  -13.0710 C.ar    1  UNL1       -0.0080
      9  C         25.7330  -22.3460  -11.3630 C.3     1  UNL1        0.0410
     10  S         22.1840  -21.5090  -13.1670 S.2     1  UNL1       -0.0750
     11  C         24.6670  -21.4190  -14.3300 C.3     1  UNL1        0.0460
     12  C         25.0760  -22.7170  -15.0320 C.3     1  UNL1        0.0050
     13  C         25.5800  -23.8600  -14.1490 C.3     1  UNL1        0.0000
     14  C         26.8550  -23.5850  -13.3590 C.3     1  UNL1        0.0000
     15  C         26.8630  -22.4020  -12.3910 C.3     1  UNL1        0.0050
     16  C         23.1590  -22.5190   -9.4720 C.2     1  UNL1        0.2520
     17  N         23.5050  -23.7950   -9.1420 N.am    1  UNL1       -0.3660
     18  H         24.0780  -24.3330   -9.7790 H       1  UNL1        0.1590
     19  H         23.6720  -23.9460   -8.1560 H       1  UNL1        0.1590
     20  O         22.9640  -21.6900   -8.5850 O.2     1  UNL1       -0.2680
     21  C         18.3480  -21.9140  -10.5480 C.2     1  UNL1        0.1460
     22  C         16.9720  -21.5770  -10.7140 C.2     1  UNL1        0.0580
     23  C         16.2930  -22.2800   -9.7470 C.2     1  UNL1        0.1170
     24  N         17.2350  -22.9950   -9.0700 N.pl3   1  UNL1       -0.2560
     25  N         18.4860  -22.7800   -9.5230 N.2     1  UNL1       -0.1650
     26  C         17.0410  -23.8710   -7.9140 C.3     1  UNL1        0.3250
     27  O         18.2120  -23.8540   -7.1000 O.2     1  UNL1       -0.3270
     28  C         18.1770  -23.0450   -5.9970 C.2     1  UNL1        0.1090
     29  C         17.4270  -23.2740   -4.8410 C.2     1  UNL1        0.0400
     30  C         17.4830  -22.3660   -3.7760 C.2     1  UNL1        0.0030
     31  C         18.2840  -21.2280   -3.8580 C.2     1  UNL1        0.0030
     32  C         19.0380  -20.9950   -5.0050 C.2     1  UNL1        0.0450
     33  C         18.9820  -21.9020   -6.0590 C.2     1  UNL1        0.1490
     34  F         19.7180  -21.6580   -7.1550 F       1  UNL1       -0.2030
@<TRIPOS>BOND
     1    12    11    1
     2    12    13    1
     3    11     8    1
     4    13    14    1
     5    14    15    1
     6    10     8   ar
     7    10     5   ar
     8     8     7   ar
     9    15     9    1
    10     3     2    2
    11     7     9    1
    12     7     6   ar
    13     5     1    1
    14     5     6   ar
    15     2     1   am
    16     2    21    1
    17     1     4    1
    18     6    16    1
    19    22    21    1
    20    22    23    2
    21    21    25    2
    22    18    17    1
    23    23    24    1
    24    25    24    1
    25    16    17   am
    26    16    20    2
    27    17    19    1
    28    24    26    1
    29    26    27    1
    30    34    33    1
    31    27    28    1
    32    33    28    2
    33    33    32    1
    34    28    29    1
    35    32    31    2
    36    29    30    2
    37    31    30    1
