@<TRIPOS>MOLECULE
16145_out_ligand_01.pdbqt
 34 38 0 0 0
SMALL
GASTEIGER

@<TRIPOS>ATOM
      1  C         20.9760  -22.5490  -10.3290 C.2     1  UNL1        0.1790
      2  N         22.3100  -22.7280  -10.4630 N.2     1  UNL1       -0.1640
      3  N         22.6490  -22.1790  -11.6380 N.pl3   1  UNL1       -0.2680
      4  C         21.5760  -21.6510  -12.2920 C.2     1  UNL1        0.1520
      5  C         20.4800  -21.8760  -11.4810 C.2     1  UNL1        0.1550
      6  C         20.3270  -23.0120   -9.0710 C.2     1  UNL1        0.2790
      7  N         19.1540  -22.3670   -8.7120 N.am    1  UNL1       -0.3220
      8  H         18.8410  -21.5990   -9.2980 H       1  UNL1        0.1690
      9  O         20.8240  -23.9300   -8.4230 O.2     1  UNL1       -0.2650
     10  C         18.3220  -22.6350   -7.6020 C.2     1  UNL1        0.0350
     11  C         17.2550  -23.5230   -7.8120 C.2     1  UNL1        0.0310
     12  C         16.3800  -23.8540   -6.7740 C.2     1  UNL1        0.0270
     13  C         16.5700  -23.2900   -5.5130 C.2     1  UNL1        0.0740
     14  C         17.6330  -22.4170   -5.2820 C.2     1  UNL1        0.0270
     15  C         18.5040  -22.0880   -6.3290 C.2     1  UNL1        0.0310
     16  S         15.4930  -23.7200   -4.1780 S.O2    1  UNL1        0.2390
     17  O         14.2560  -24.2430   -4.7110 O.2     1  UNL1       -0.2060
     18  O         16.2540  -24.4090   -3.1610 O.2     1  UNL1       -0.2060
     19  N         15.1130  -22.2140   -3.5370 N.3     1  UNL1       -0.2250
     20  H         14.9180  -22.3020   -2.5390 H       1  UNL1        0.1360
     21  H         14.3510  -21.7950   -4.0720 H       1  UNL1        0.1360
     22  N         19.1550  -21.4540  -11.8110 N.pl3   1  UNL1       -0.1120
     23  O         19.0140  -20.2770  -12.1670 O.2     1  UNL1       -0.5320
     24  O         18.2470  -22.2830  -11.6810 O.2     1  UNL1       -0.5320
     25  C         24.0480  -22.1930  -12.0990 C.3     1  UNL1        0.0560
     26  C         24.2450  -21.3900  -13.4210 C.3     1  UNL1        0.0380
     27  C         25.7150  -21.4220  -13.8730 C.3     1  UNL1       -0.0110
     28  C         26.1400  -22.8800  -14.1070 C.3     1  UNL1        0.0090
     29  C         26.5940  -20.8030  -12.7760 C.3     1  UNL1        0.0090
     30  C         25.9850  -23.6850  -12.8080 C.3     1  UNL1       -0.0110
     31  C         26.8610  -23.0570  -11.7120 C.3     1  UNL1        0.0090
     32  C         24.5130  -23.6510  -12.3610 C.3     1  UNL1        0.0380
     33  C         26.4410  -21.5970  -11.4710 C.3     1  UNL1       -0.0110
     34  C         24.9710  -21.5620  -11.0210 C.3     1  UNL1        0.0380
@<TRIPOS>BOND
     1    28    27    1
     2    28    30    1
     3    27    26    1
     4    27    29    1
     5    26    25    1
     6    30    32    1
     7    30    31    1
     8    29    33    1
     9    32    25    1
    10     4     3    1
    11     4     5    2
    12    23    22    2
    13    25     3    1
    14    25    34    1
    15    22    24    2
    16    22     5    1
    17    31    33    1
    18     3     2    1
    19     5     1    1
    20    33    34    1
    21     2     1    2
    22     1     6    1
    23     8     7    1
    24     6     7   am
    25     6     9    2
    26     7    10    1
    27    11    10    2
    28    11    12    1
    29    10    15    1
    30    12    13    2
    31    15    14    2
    32    13    14    1
    33    13    16    1
    34    17    16    2
    35    16    19    1
    36    16    18    2
    37    21    19    1
    38    19    20    1
