@<TRIPOS>MOLECULE
16153_out_ligand_01.pdbqt
 34 38 0 0 0
SMALL
GASTEIGER

@<TRIPOS>ATOM
      1  C         22.9440  -21.8120  -12.8900 C.2     1  UNL1        0.0350
      2  C         21.6450  -21.4290  -12.5450 C.2     1  UNL1        0.0310
      3  C         21.1040  -21.7950  -11.3070 C.2     1  UNL1        0.0270
      4  C         21.8730  -22.5360  -10.4060 C.2     1  UNL1        0.0790
      5  C         23.1630  -22.9410  -10.7460 C.2     1  UNL1        0.0270
      6  C         23.6950  -22.5730  -11.9850 C.2     1  UNL1        0.0310
      7  S         21.1720  -22.9950   -8.8440 S.O2    1  UNL1        0.2590
      8  O         21.2150  -24.4390   -8.7710 O.2     1  UNL1       -0.2010
      9  O         21.7670  -22.1770   -7.8110 O.2     1  UNL1       -0.2010
     10  N         19.5590  -22.6000   -8.9960 N.3     1  UNL1       -0.3050
     11  H         19.3630  -22.0210   -9.8110 H       1  UNL1        0.1730
     12  C         18.4750  -22.8300   -8.0280 C.3     1  UNL1        0.0410
     13  C         18.6130  -22.0410   -6.7120 C.3     1  UNL1        0.0360
     14  C         17.4630  -22.3900   -5.7490 C.3     1  UNL1       -0.0120
     15  C         17.5050  -23.8920   -5.4300 C.3     1  UNL1        0.0090
     16  C         16.1210  -22.0520   -6.4210 C.3     1  UNL1        0.0090
     17  C         17.3550  -24.7060   -6.7230 C.3     1  UNL1       -0.0120
     18  C         16.0130  -24.3620   -7.3890 C.3     1  UNL1        0.0090
     19  C         18.4990  -24.3440   -7.6830 C.3     1  UNL1        0.0360
     20  C         15.9610  -22.8610   -7.7180 C.3     1  UNL1       -0.0120
     21  C         17.1110  -22.5100   -8.6790 C.3     1  UNL1        0.0360
     22  N         23.5580  -21.4800  -14.1090 N.am    1  UNL1       -0.3220
     23  C         24.9050  -21.4400  -14.4130 C.2     1  UNL1        0.2790
     24  O         25.8330  -21.6720  -13.6490 O.2     1  UNL1       -0.2650
     25  H         22.9600  -21.2140  -14.8890 H       1  UNL1        0.1690
     26  C         25.1360  -21.0390  -15.8100 C.2     1  UNL1        0.1790
     27  C         24.9740  -21.8140  -16.9780 C.2     1  UNL1        0.1550
     28  C         25.4000  -21.0210  -18.0240 C.2     1  UNL1        0.1500
     29  N         25.7520  -19.8340  -17.4590 N.pl3   1  UNL1       -0.2820
     30  C         26.2590  -18.6670  -18.1430 C.3     1  UNL1        0.1790
     31  N         25.5890  -19.7990  -16.1210 N.2     1  UNL1       -0.1650
     32  N         24.4670  -23.1390  -17.0940 N.pl3   1  UNL1       -0.1120
     33  O         25.2050  -24.0530  -16.7130 O.2     1  UNL1       -0.5320
     34  O         23.3020  -23.2490  -17.4960 O.2     1  UNL1       -0.5320
@<TRIPOS>BOND
     1    30    29    1
     2    28    29    1
     3    28    27    2
     4    34    32    2
     5    29    31    1
     6    32    27    1
     7    32    33    2
     8    27    26    1
     9    31    26    2
    10    26    23    1
    11    25    22    1
    12    23    22   am
    13    23    24    2
    14    22     1    1
    15     1     2    2
    16     1     6    1
    17     2     3    1
    18     6     5    2
    19     3     4    2
    20     5     4    1
    21     4     7    1
    22    11    10    1
    23    10     7    1
    24    10    12    1
    25     7     8    2
    26     7     9    2
    27    21    12    1
    28    21    20    1
    29    12    19    1
    30    12    13    1
    31    20    18    1
    32    20    16    1
    33    19    17    1
    34    18    17    1
    35    17    15    1
    36    13    14    1
    37    16    14    1
    38    14    15    1
