@<TRIPOS>MOLECULE
16164_out_ligand_01.pdbqt
 31 34 0 0 0
SMALL
GASTEIGER

@<TRIPOS>ATOM
      1  C         18.0120  -21.8750  -10.5870 C.2     1  UNL1        0.1430
      2  C         16.7040  -21.4160  -10.6190 C.2     1  UNL1        0.0450
      3  C         15.9850  -22.1380   -9.6330 C.2     1  UNL1        0.0380
      4  C         16.8850  -23.0010   -9.0480 C.2     1  UNL1        0.0780
      5  O         18.1110  -22.8440   -9.6220 O.2     1  UNL1       -0.3070
      6  C         19.2200  -21.5440  -11.3370 C.2     1  UNL1        0.2790
      7  O         19.2320  -20.6590  -12.1870 O.2     1  UNL1       -0.2650
      8  N         20.3240  -22.3150  -10.9980 N.am    1  UNL1       -0.3210
      9  H         20.1860  -23.0150  -10.2830 H       1  UNL1        0.1690
     10  C         21.6300  -22.2480  -11.5310 C.2     1  UNL1        0.0370
     11  C         22.7470  -22.8630  -10.9580 C.2     1  UNL1        0.0320
     12  C         24.0090  -22.7390  -11.5500 C.2     1  UNL1        0.0420
     13  C         24.1640  -22.0000  -12.7180 C.2     1  UNL1        0.1020
     14  C         23.0500  -21.4070  -13.3130 C.2     1  UNL1        0.1040
     15  O         25.4320  -21.9040  -13.2280 O.2     1  UNL1       -0.3460
     16  C         21.7940  -21.5180  -12.7160 C.2     1  UNL1        0.0690
     17  O         23.1140  -20.6920  -14.4830 O.2     1  UNL1       -0.3460
     18  C         24.3500  -20.9280  -15.1700 C.3     1  UNL1        0.2020
     19  C         25.5230  -20.8620  -14.2060 C.3     1  UNL1        0.2020
     20  C         16.8010  -24.0220   -7.9680 C.3     1  UNL1        0.2400
     21  O         18.0470  -23.9970   -7.2690 O.2     1  UNL1       -0.3390
     22  C         18.2450  -23.0000   -6.3510 C.2     1  UNL1        0.1520
     23  C         19.1800  -21.9650   -6.4240 C.2     1  UNL1        0.1910
     24  F         20.0140  -21.8520   -7.4680 F       1  UNL1       -0.2000
     25  C         19.2680  -21.0150   -5.4050 C.2     1  UNL1        0.1600
     26  F         20.1700  -20.0280   -5.4910 F       1  UNL1       -0.2030
     27  C         18.4350  -21.0710   -4.2960 C.2     1  UNL1        0.0910
     28  C         17.5050  -22.0970   -4.2170 C.2     1  UNL1        0.1600
     29  F         16.6940  -22.1650   -3.1530 F       1  UNL1       -0.2030
     30  C         17.4100  -23.0510   -5.2300 C.2     1  UNL1        0.1910
     31  F         16.4970  -24.0290   -5.1190 F       1  UNL1       -0.2000
@<TRIPOS>BOND
     1    18    17    1
     2    18    19    1
     3    17    14    1
     4    19    15    1
     5    14    13    2
     6    14    16    1
     7    15    13    1
     8    13    12    1
     9    16    10    2
    10     7     6    2
    11    12    11    2
    12    10     8    1
    13    10    11    1
    14     6     8   am
    15     6     1    1
    16     8     9    1
    17     2     1    2
    18     2     3    1
    19     1     5    1
    20     3     4    2
    21     5     4    1
    22     4    20    1
    23    20    21    1
    24    24    23    1
    25    21    22    1
    26    23    22    2
    27    23    25    1
    28    22    30    1
    29    26    25    1
    30    25    27    2
    31    30    31    1
    32    30    28    2
    33    27    28    1
    34    28    29    1
