@<TRIPOS>MOLECULE
16179_out_ligand_01.pdbqt
 36 39 0 0 0
SMALL
GASTEIGER

@<TRIPOS>ATOM
      1  C         18.3620  -23.2650   -9.0140 C.2     1  UNL1        0.0800
      2  C         18.5620  -22.3810  -10.0760 C.2     1  UNL1        0.0270
      3  C         19.8550  -22.1670  -10.5700 C.2     1  UNL1        0.0310
      4  C         20.9510  -22.8150   -9.9940 C.2     1  UNL1        0.0350
      5  C         20.7380  -23.6800   -8.9100 C.2     1  UNL1        0.0310
      6  C         19.4500  -23.9030   -8.4150 C.2     1  UNL1        0.0270
      7  N         22.2790  -22.6500  -10.4280 N.am    1  UNL1       -0.3210
      8  C         23.2520  -21.8060   -9.9210 C.2     1  UNL1        0.2790
      9  O         23.1020  -21.0270   -8.9860 O.2     1  UNL1       -0.2650
     10  H         22.5810  -23.2160  -11.2140 H       1  UNL1        0.1690
     11  C         24.5160  -21.9230  -10.6290 C.2     1  UNL1        0.1430
     12  C         25.5510  -21.0210  -10.7880 C.2     1  UNL1        0.0450
     13  C         26.5380  -21.6620  -11.5720 C.2     1  UNL1        0.0370
     14  C         26.0560  -22.9240  -11.8490 C.2     1  UNL1        0.0730
     15  O         24.8250  -23.0910  -11.2830 O.2     1  UNL1       -0.3080
     16  C         26.6010  -24.0720  -12.6170 C.3     1  UNL1        0.2150
     17  N         25.9480  -24.1710  -13.9170 N.pl3   1  UNL1       -0.2730
     18  C         25.6810  -23.1420  -14.7780 C.2     1  UNL1        0.1500
     19  C         25.0750  -23.7180  -15.8750 C.2     1  UNL1        0.1390
     20  C         25.0320  -25.0940  -15.5880 C.2     1  UNL1        0.1760
     21  N         25.5730  -25.3790  -14.3970 N.2     1  UNL1       -0.1820
     22  N         24.5990  -23.0550  -17.0470 N.pl3   1  UNL1       -0.1130
     23  O         24.5580  -23.7230  -18.0880 O.2     1  UNL1       -0.5320
     24  O         24.2740  -21.8670  -16.9300 O.2     1  UNL1       -0.5320
     25  S         16.7230  -23.5220   -8.3710 S.O2    1  UNL1        0.2630
     26  O         16.7470  -24.7130   -7.5500 O.2     1  UNL1       -0.2000
     27  O         15.8010  -23.4010   -9.4810 O.2     1  UNL1       -0.2000
     28  N         16.4600  -22.1630   -7.4090 N.pl3   1  UNL1       -0.2800
     29  H         16.8400  -21.3140   -7.8190 H       1  UNL1        0.1790
     30  C         16.4310  -22.2820   -5.9890 C.2     1  UNL1        0.0480
     31  C         15.2460  -22.6680   -5.3540 C.2     1  UNL1        0.0300
     32  C         15.2030  -22.8160   -3.9690 C.2     1  UNL1        0.0020
     33  C         16.3440  -22.5720   -3.2100 C.2     1  UNL1        0.0010
     34  C         17.5250  -22.1720   -3.8350 C.2     1  UNL1        0.0090
     35  C         17.5850  -22.0200   -5.2300 C.2     1  UNL1       -0.0350
     36  C         18.8750  -21.5780   -5.8610 C.3     1  UNL1        0.0500
@<TRIPOS>BOND
     1    23    22    2
     2    22    24    2
     3    22    19    1
     4    19    20    1
     5    19    18    2
     6    20    21    2
     7    18    17    1
     8    21    17    1
     9    17    16    1
    10    16    14    1
    11    14    13    2
    12    14    15    1
    13    13    12    1
    14    15    11    1
    15    10     7    1
    16    12    11    2
    17    11     8    1
    18     3     2    1
    19     3     4    2
    20     7     4    1
    21     7     8   am
    22     2     1    2
    23     4     5    1
    24     8     9    2
    25    27    25    2
    26     1     6    1
    27     1    25    1
    28     5     6    2
    29    25    26    2
    30    25    28    1
    31    29    28    1
    32    28    30    1
    33    30    31    2
    34    30    35    1
    35    36    35    1
    36    31    32    1
    37    35    34    2
    38    32    33    2
    39    34    33    1
