@<TRIPOS>MOLECULE
16170_out_ligand_01.pdbqt
 37 40 0 0 0
SMALL
GASTEIGER

@<TRIPOS>ATOM
      1  N         22.3780  -22.8740  -10.4450 N.am    1  UNL1       -0.3210
      2  C         23.3520  -21.9630  -10.0550 C.2     1  UNL1        0.2790
      3  O         23.1740  -21.0790   -9.2230 O.2     1  UNL1       -0.2650
      4  H         22.6270  -23.5120  -11.1870 H       1  UNL1        0.1690
      5  C         21.0540  -22.9830   -9.9700 C.2     1  UNL1        0.0350
      6  C         19.9790  -22.2350  -10.4570 C.2     1  UNL1        0.0310
      7  C         18.6930  -22.4090   -9.9320 C.2     1  UNL1        0.0270
      8  C         18.4800  -23.3430   -8.9180 C.2     1  UNL1        0.0800
      9  C         19.5440  -24.0850   -8.4060 C.2     1  UNL1        0.0270
     10  C         20.8250  -23.9030   -8.9340 C.2     1  UNL1        0.0310
     11  S         16.8470  -23.5580   -8.2560 S.O2    1  UNL1        0.2630
     12  O         16.9200  -24.6220   -7.2750 O.2     1  UNL1       -0.2000
     13  O         15.9070  -23.6240   -9.3560 O.2     1  UNL1       -0.2000
     14  N         16.6080  -22.1310   -7.3820 N.pl3   1  UNL1       -0.2800
     15  H         17.1200  -21.3560   -7.8000 H       1  UNL1        0.1790
     16  C         16.5720  -22.2070   -5.9590 C.2     1  UNL1        0.0480
     17  C         15.3840  -22.6140   -5.3450 C.2     1  UNL1        0.0300
     18  C         15.3200  -22.7500   -3.9590 C.2     1  UNL1        0.0020
     19  C         16.4450  -22.4840   -3.1840 C.2     1  UNL1        0.0010
     20  C         17.6350  -22.0790   -3.7950 C.2     1  UNL1        0.0090
     21  C         17.7130  -21.9320   -5.1890 C.2     1  UNL1       -0.0350
     22  C         19.0180  -21.5220   -5.8140 C.3     1  UNL1        0.0500
     23  C         24.6280  -22.1310  -10.7420 C.2     1  UNL1        0.1430
     24  C         25.6020  -23.1180  -10.7360 C.2     1  UNL1        0.0450
     25  C         26.6210  -22.7020  -11.6290 C.2     1  UNL1        0.0380
     26  C         26.2250  -21.4820  -12.1320 C.2     1  UNL1        0.0780
     27  O         25.0210  -21.1330  -11.5980 O.2     1  UNL1       -0.3070
     28  C         26.8120  -20.5120  -13.0940 C.3     1  UNL1        0.2400
     29  O         25.7330  -19.9530  -13.8430 O.2     1  UNL1       -0.3430
     30  C         25.5720  -20.3600  -15.1430 C.2     1  UNL1        0.0920
     31  C         25.0470  -21.5990  -15.5270 C.2     1  UNL1        0.0620
     32  C         24.9280  -21.9170  -16.8830 C.2     1  UNL1        0.0360
     33 CL         24.2810  -23.4460  -17.3440 Cl      1  UNL1       -0.0840
     34  C         25.3260  -21.0150  -17.8680 C.2     1  UNL1        0.0260
     35  C         25.8540  -19.7790  -17.4960 C.2     1  UNL1        0.0280
     36  C         25.9790  -19.4550  -16.1420 C.2     1  UNL1        0.0670
     37 CL         26.6470  -17.9100  -15.7390 Cl      1  UNL1       -0.0810
@<TRIPOS>BOND
     1    34    35    2
     2    34    32    1
     3    35    36    1
     4    33    32    1
     5    32    31    2
     6    36    37    1
     7    36    30    2
     8    31    30    1
     9    30    29    1
    10    29    28    1
    11    28    26    1
    12    26    25    2
    13    26    27    1
    14    25    24    1
    15    27    23    1
    16     4     1    1
    17    23    24    2
    18    23     2    1
    19     6     5    2
    20     6     7    1
    21     1     2   am
    22     1     5    1
    23     2     3    2
    24     5    10    1
    25     7     8    2
    26    13    11    2
    27    10     9    2
    28     8     9    1
    29     8    11    1
    30    11    14    1
    31    11    12    2
    32    15    14    1
    33    14    16    1
    34    16    17    2
    35    16    21    1
    36    22    21    1
    37    17    18    1
    38    21    20    2
    39    18    19    2
    40    20    19    1
