@<TRIPOS>MOLECULE
1618_out_ligand_01.pdbqt
 35 38 0 0 0
SMALL
GASTEIGER

@<TRIPOS>ATOM
      1  C         17.2020  -21.7730  -10.6680 C.2     1  UNL1        0.0700
      2  C         17.6630  -21.0110  -11.7370 C.2     1  UNL1        0.0380
      3  C         19.0300  -20.9470  -12.0060 C.2     1  UNL1        0.0160
      4  C         19.9460  -21.6440  -11.2090 C.2     1  UNL1       -0.0080
      5  C         21.3700  -21.5670  -11.5080 C.2     1  UNL1        0.0270
      6  C         22.2780  -22.2100  -10.7550 C.2     1  UNL1        0.0240
      7  C         21.8300  -22.9960   -9.5650 C.2     1  UNL1        0.2560
      8  O         22.6740  -23.4990   -8.8260 O.2     1  UNL1       -0.2670
      9  N         20.4630  -23.1020   -9.3270 N.am    1  UNL1       -0.3040
     10  C         19.4970  -22.4180  -10.1310 C.2     1  UNL1        0.0510
     11  C         18.1200  -22.4720   -9.8720 C.2     1  UNL1        0.0670
     12  C         20.0320  -23.9410   -8.2010 C.3     1  UNL1        0.2350
     13  C         19.2930  -23.2020   -7.0730 C.2     1  UNL1        0.2400
     14  O         19.7170  -22.1220   -6.6690 O.2     1  UNL1       -0.2710
     15  N         18.1370  -23.8300   -6.6470 N.am    1  UNL1       -0.3260
     16  H         17.9150  -24.7000   -7.1170 H       1  UNL1        0.1690
     17  C         17.2460  -23.4230   -5.6360 C.2     1  UNL1        0.0370
     18  C         17.4610  -23.6370   -4.2700 C.2     1  UNL1        0.0290
     19  C         16.5230  -23.2070   -3.3240 C.2     1  UNL1        0.0050
     20  C         15.3610  -22.5600   -3.7370 C.2     1  UNL1        0.0420
     21  C         15.1500  -22.3480   -5.0930 C.2     1  UNL1        0.1180
     22  F         14.0340  -21.7270   -5.4960 F       1  UNL1       -0.2060
     23  C         16.0760  -22.7710   -6.0410 C.2     1  UNL1        0.0710
     24  C         23.7720  -22.2110  -10.9680 C.3     1  UNL1        0.1360
     25  N         24.1830  -23.3460  -11.7960 N.pl3   1  UNL1       -0.2890
     26  H         24.8830  -23.9180  -11.3270 H       1  UNL1        0.1280
     27  C         24.5770  -23.1190  -13.1240 C.2     1  UNL1        0.0080
     28  C         25.2690  -24.1410  -13.7900 C.2     1  UNL1        0.0240
     29  C         25.6410  -24.0180  -15.1340 C.2     1  UNL1        0.0080
     30  C         25.2950  -22.8770  -15.8600 C.2     1  UNL1       -0.0620
     31  C         25.7190  -22.7300  -17.2900 C.3     1  UNL1        0.0480
     32  C         24.5830  -21.8640  -15.2160 C.2     1  UNL1        0.0080
     33  C         24.2120  -21.9950  -13.8710 C.2     1  UNL1        0.0240
     34  O         15.8960  -21.9210  -10.2910 O.2     1  UNL1       -0.3560
     35  C         15.5420  -23.1340   -9.6390 C.3     1  UNL1        0.2100
@<TRIPOS>BOND
     1    31    30    1
     2    30    32    2
     3    30    29    1
     4    32    33    1
     5    29    28    2
     6    33    27    2
     7    28    27    1
     8    27    25    1
     9     3     2    1
    10     3     4    2
    11    25    26    1
    12    25    24    1
    13     2     1    2
    14     5     4    1
    15     5     6    2
    16     4    10    1
    17    24     6    1
    18     6     7    1
    19     1    34    1
    20     1    11    1
    21    34    35    1
    22    10    11    2
    23    10     9    1
    24     7     9   am
    25     7     8    2
    26     9    12    1
    27    12    13    1
    28    16    15    1
    29    13    14    2
    30    13    15   am
    31    15    17    1
    32    23    17    2
    33    23    21    1
    34    17    18    1
    35    22    21    1
    36    21    20    2
    37    18    19    2
    38    20    19    1
