@<TRIPOS>MOLECULE
16181_out_ligand_01.pdbqt
 39 44 0 0 0
SMALL
GASTEIGER

@<TRIPOS>ATOM
      1  C         21.2800  -22.5310  -11.1780 C.2     1  UNL1        0.0350
      2  C         20.7990  -23.2610  -10.0800 C.2     1  UNL1        0.0310
      3  C         19.4660  -23.1500   -9.6770 C.2     1  UNL1        0.0270
      4  C         18.6070  -22.2950  -10.3720 C.2     1  UNL1        0.0790
      5  C         19.0620  -21.5870  -11.4860 C.2     1  UNL1        0.0270
      6  C         20.4000  -21.7010  -11.8790 C.2     1  UNL1        0.0310
      7  N         22.6400  -22.6870  -11.5000 N.am    1  UNL1       -0.3210
      8  C         23.7370  -22.0680  -10.9270 C.2     1  UNL1        0.2790
      9  O         23.6990  -21.2390  -10.0240 O.2     1  UNL1       -0.2650
     10  H         22.8680  -23.3370  -12.2460 H       1  UNL1        0.1690
     11  C         24.9920  -22.5100  -11.5110 C.2     1  UNL1        0.1430
     12  C         26.2940  -22.4040  -11.0640 C.2     1  UNL1        0.0450
     13  C         27.1140  -23.0150  -12.0440 C.2     1  UNL1        0.0370
     14  C         26.2690  -23.4590  -13.0400 C.2     1  UNL1        0.0730
     15  O         24.9760  -23.1670  -12.7140 O.2     1  UNL1       -0.3080
     16  C         26.4880  -24.1780  -14.3200 C.3     1  UNL1        0.2160
     17  N         25.8300  -23.4950  -15.4300 N.ar    1  UNL1       -0.2670
     18  N         24.8850  -24.1570  -16.1400 N.ar    1  UNL1       -0.1760
     19  C         24.5080  -23.2840  -17.0840 C.ar    1  UNL1        0.0700
     20  C         23.4560  -23.6520  -18.0640 C.3     1  UNL1        0.0740
     21  C         25.2380  -22.0840  -16.9830 C.ar    1  UNL1        0.0600
     22  C         26.0980  -22.2350  -15.9190 C.ar    1  UNL1        0.0460
     23 BR         25.0510  -20.6020  -18.1160 Br      1  UNL1       -0.0470
     24  C         27.1160  -21.3250  -15.3390 C.3     1  UNL1        0.0710
     25  S         16.9180  -22.1560   -9.8520 S.O2    1  UNL1        0.2590
     26  O         16.2420  -21.2030  -10.7020 O.2     1  UNL1       -0.2010
     27  O         16.4150  -23.5030   -9.6920 O.2     1  UNL1       -0.2010
     28  N         17.0280  -21.5350   -8.3060 N.3     1  UNL1       -0.3050
     29  H         17.1060  -20.5180   -8.2880 H       1  UNL1        0.1730
     30  C         16.8470  -22.2430   -7.0310 C.3     1  UNL1        0.0410
     31  C         15.3560  -22.0680   -6.6310 C.3     1  UNL1        0.0360
     32  C         15.0420  -22.8300   -5.3340 C.3     1  UNL1       -0.0120
     33  C         15.9310  -22.2890   -4.2050 C.3     1  UNL1        0.0090
     34  C         15.3350  -24.3230   -5.5440 C.3     1  UNL1        0.0090
     35  C         17.4110  -22.4730   -4.5730 C.3     1  UNL1       -0.0120
     36  C         17.7000  -23.9690   -4.7880 C.3     1  UNL1        0.0090
     37  C         17.7120  -21.7060   -5.8740 C.3     1  UNL1        0.0360
     38  C         16.8130  -24.5200   -5.9180 C.3     1  UNL1       -0.0120
     39  C         17.1170  -23.7510   -7.2170 C.3     1  UNL1        0.0360
@<TRIPOS>BOND
     1    23    21    1
     2    20    19    1
     3    19    21   ar
     4    19    18   ar
     5    21    22   ar
     6    18    17   ar
     7    22    17   ar
     8    22    24    1
     9    17    16    1
    10    16    14    1
    11    14    15    1
    12    14    13    2
    13    15    11    1
    14    10     7    1
    15    13    12    1
    16     6     5    1
    17     6     1    2
    18    11    12    2
    19    11     8    1
    20     7     1    1
    21     7     8   am
    22     5     4    2
    23     1     2    1
    24     8     9    2
    25    26    25    2
    26     4    25    1
    27     4     3    1
    28     2     3    2
    29    25    27    2
    30    25    28    1
    31    28    29    1
    32    28    30    1
    33    39    30    1
    34    39    38    1
    35    30    31    1
    36    30    37    1
    37    31    32    1
    38    38    34    1
    39    38    36    1
    40    37    35    1
    41    34    32    1
    42    32    33    1
    43    36    35    1
    44    35    33    1
