@<TRIPOS>MOLECULE
16196_out_ligand_01.pdbqt
 32 34 0 0 0
SMALL
GASTEIGER

@<TRIPOS>ATOM
      1  C         22.4730  -22.8070   -9.9690 C.2     1  UNL1        0.1760
      2  S         22.9100  -21.7260   -8.7660 S.2     1  UNL1       -0.0410
      3  N         23.4810  -23.1780  -10.8260 N.am    1  UNL1       -0.3330
      4  H         24.0750  -23.8970  -10.4260 H       1  UNL1        0.1680
      5  C         23.7910  -22.7930  -12.1470 C.2     1  UNL1        0.0340
      6  C         23.1600  -21.7510  -12.8330 C.2     1  UNL1        0.0310
      7  C         23.5230  -21.4420  -14.1490 C.2     1  UNL1        0.0270
      8  C         24.5140  -22.1880  -14.7860 C.2     1  UNL1        0.0740
      9  C         25.1230  -23.2580  -14.1320 C.2     1  UNL1        0.0270
     10  C         24.7570  -23.5580  -12.8170 C.2     1  UNL1        0.0310
     11  S         24.9510  -21.8240  -16.4610 S.O2    1  UNL1        0.2390
     12  O         24.1410  -22.6200  -17.3520 O.2     1  UNL1       -0.2060
     13  O         26.3910  -21.7640  -16.5700 O.2     1  UNL1       -0.2060
     14  N         24.4060  -20.2470  -16.6280 N.3     1  UNL1       -0.2250
     15  H         23.5790  -20.1010  -16.0480 H       1  UNL1        0.1360
     16  H         24.2660  -20.0280  -17.6140 H       1  UNL1        0.1360
     17  N         21.2260  -23.2900  -10.2600 N.am    1  UNL1       -0.3320
     18  H         21.2740  -24.2410  -10.6370 H       1  UNL1        0.1680
     19  C         19.9760  -22.6600  -10.4930 C.2     1  UNL1        0.0480
     20  C         19.7370  -21.8320  -11.5950 C.2     1  UNL1        0.0300
     21  C         18.4850  -21.2450  -11.8020 C.2     1  UNL1        0.0020
     22  C         17.4490  -21.4640  -10.9030 C.2     1  UNL1        0.0010
     23  C         17.6730  -22.2440   -9.7710 C.2     1  UNL1        0.0180
     24  C         18.9390  -22.8130   -9.5410 C.2     1  UNL1        0.0420
     25  C         19.1640  -23.5920   -8.2890 C.2     1  UNL1        0.1940
     26  O         19.7010  -24.6960   -8.3440 O.2     1  UNL1       -0.2870
     27  C         18.7960  -23.0530   -6.9560 C.2     1  UNL1        0.0150
     28  C         17.9380  -23.7510   -6.0970 C.2     1  UNL1        0.0150
     29  C         17.6020  -23.2030   -4.8570 C.2     1  UNL1        0.0010
     30  C         18.1080  -21.9580   -4.4830 C.2     1  UNL1        0.0000
     31  C         18.9460  -21.2520   -5.3470 C.2     1  UNL1        0.0010
     32  C         19.2850  -21.7950   -6.5860 C.2     1  UNL1        0.0150
@<TRIPOS>BOND
     1    16    14    1
     2    12    11    2
     3    14    11    1
     4    14    15    1
     5    13    11    2
     6    11     8    1
     7     8     7    2
     8     8     9    1
     9     7     6    1
    10     9    10    2
    11     6     5    2
    12    10     5    1
    13     5     3    1
    14    21    20    1
    15    21    22    2
    16    20    19    2
    17    22    23    1
    18     3     4    1
    19     3     1    1
    20    18    17    1
    21    19    17    1
    22    19    24    1
    23    17     1    1
    24     1     2    2
    25    23    24    2
    26    24    25    1
    27    26    25    2
    28    25    27    1
    29    27    32    2
    30    27    28    1
    31    32    31    1
    32    28    29    2
    33    31    30    2
    34    29    30    1
