@<TRIPOS>MOLECULE
1619_out_ligand_01.pdbqt
 31 34 0 0 0
SMALL
GASTEIGER

@<TRIPOS>ATOM
      1  C         18.5780  -22.2710  -10.2030 C.2     1  UNL1        0.0320
      2  C         19.5380  -23.1300   -9.6520 C.2     1  UNL1        0.0190
      3  C         20.8400  -23.1670  -10.1650 C.2     1  UNL1        0.0300
      4  C         21.2110  -22.3370  -11.2300 C.2     1  UNL1        0.0350
      5  C         20.2510  -21.4950  -11.7920 C.2     1  UNL1        0.0300
      6  C         18.9410  -21.4680  -11.2900 C.2     1  UNL1        0.0190
      7  N         22.5440  -22.4070  -11.6670 N.am    1  UNL1       -0.3220
      8  C         23.6760  -21.8710  -11.0730 C.2     1  UNL1        0.2760
      9  O         23.6980  -21.2240  -10.0300 O.2     1  UNL1       -0.2660
     10  H         22.7350  -22.9210  -12.5210 H       1  UNL1        0.1690
     11  C         24.9110  -22.1710  -11.8360 C.ar    1  UNL1        0.1440
     12  N         25.8610  -22.9250  -11.2570 N.ar    1  UNL1       -0.2050
     13  S         27.1210  -23.1170  -12.3020 S.2     1  UNL1        0.0120
     14  C         26.4690  -22.1670  -13.5750 C.ar    1  UNL1        0.0360
     15  C         27.0320  -21.8570  -14.8260 C.2     1  UNL1        0.0210
     16  C         25.2090  -21.7080  -13.1810 C.ar    1  UNL1        0.0170
     17  C         26.2980  -21.0610  -15.7060 C.2     1  UNL1        0.0010
     18  C         25.0350  -20.5990  -15.3570 C.2     1  UNL1        0.0010
     19  C         24.4860  -20.9140  -14.1060 C.2     1  UNL1        0.0150
     20  C         17.2150  -22.2550   -9.5870 C.2     1  UNL1        0.2510
     21  N         17.1170  -22.5890   -8.2540 N.am    1  UNL1       -0.3530
     22  H         17.9040  -22.9810   -7.7620 H       1  UNL1        0.1630
     23  O         16.2330  -21.9790  -10.2710 O.2     1  UNL1       -0.2680
     24  C         15.8250  -22.7450   -7.6220 C.3     1  UNL1        0.1620
     25  C         15.9800  -22.8460   -6.1240 C.2     1  UNL1       -0.0350
     26  C         17.1230  -23.4930   -5.6100 C.2     1  UNL1        0.0090
     27  C         17.3060  -23.6370   -4.2350 C.2     1  UNL1        0.0010
     28  C         16.3500  -23.1430   -3.3520 C.2     1  UNL1        0.0010
     29  C         15.2080  -22.5090   -3.8450 C.2     1  UNL1        0.0070
     30  C         15.0010  -22.3630   -5.2280 C.2     1  UNL1       -0.0540
     31  C         13.7620  -21.6500   -5.7060 C.3     1  UNL1        0.0490
@<TRIPOS>BOND
     1    17    18    2
     2    17    15    1
     3    18    19    1
     4    15    14    2
     5    19    16    2
     6    14    16   ar
     7    14    13   ar
     8    16    11   ar
     9    10     7    1
    10    13    12   ar
    11    11    12   ar
    12    11     8    1
    13     5     6    1
    14     5     4    2
    15     7     4    1
    16     7     8   am
    17     6     1    2
    18     4     3    1
    19     8     9    2
    20    23    20    2
    21     1     2    1
    22     1    20    1
    23     3     2    2
    24    20    21   am
    25    21    22    1
    26    21    24    1
    27    24    25    1
    28    25    26    2
    29    25    30    1
    30    31    30    1
    31    26    27    1
    32    30    29    2
    33    27    28    2
    34    29    28    1
