@<TRIPOS>MOLECULE
16208_out_ligand_01.pdbqt
 28 30 0 0 0
SMALL
GASTEIGER

@<TRIPOS>ATOM
      1  C         23.7880  -21.7830  -13.4830 C.2     1  UNL1        0.0800
      2  C         22.4620  -21.3700  -13.6190 C.2     1  UNL1        0.0270
      3  C         21.6180  -21.3860  -12.5060 C.2     1  UNL1        0.0310
      4  C         22.0860  -21.8210  -11.2570 C.2     1  UNL1        0.0350
      5  C         23.4120  -22.2470  -11.1410 C.2     1  UNL1        0.0310
      6  C         24.2630  -22.2370  -12.2520 C.2     1  UNL1        0.0270
      7  N         21.1720  -21.7970  -10.1860 N.am    1  UNL1       -0.3230
      8  C         20.8080  -22.8490   -9.3660 C.2     1  UNL1        0.2570
      9  O         21.1750  -24.0140   -9.4340 O.2     1  UNL1       -0.2670
     10  H         20.7210  -20.9080  -10.0040 H       1  UNL1        0.1690
     11  C         19.8110  -22.4800   -8.3300 C.2     1  UNL1        0.0430
     12  C         20.3300  -21.9840   -7.1260 C.2     1  UNL1        0.0180
     13  C         19.4710  -21.6720   -6.0800 C.2     1  UNL1        0.0020
     14  C         18.0970  -21.8530   -6.2360 C.2     1  UNL1        0.0120
     15  C         17.5580  -22.3280   -7.4430 C.2     1  UNL1       -0.0250
     16  C         16.1690  -22.4850   -7.5830 C.2     1  UNL1        0.0120
     17  C         18.4150  -22.6400   -8.5270 C.2     1  UNL1       -0.0100
     18  C         15.6120  -22.9320   -8.7800 C.2     1  UNL1        0.0010
     19  C         16.4360  -23.2190   -9.8600 C.2     1  UNL1        0.0010
     20  C         17.8190  -23.0710   -9.7390 C.2     1  UNL1        0.0130
     21  S         24.8600  -21.7930  -14.8960 S.O2    1  UNL1        0.2650
     22  O         24.9880  -20.4240  -15.3550 O.2     1  UNL1       -0.2000
     23  O         26.0310  -22.5870  -14.6040 O.2     1  UNL1       -0.2000
     24  N         23.9530  -22.5570  -16.0580 N.am    1  UNL1       -0.2510
     25  C         24.4510  -23.0860  -17.2540 C.2     1  UNL1        0.2270
     26  C         23.3930  -23.6620  -18.1530 C.3     1  UNL1        0.1180
     27  O         25.6380  -23.1070  -17.5410 O.2     1  UNL1       -0.2730
     28  H         22.9660  -22.6030  -15.8260 H       1  UNL1        0.1810
@<TRIPOS>BOND
     1    26    25    1
     2    27    25    2
     3    25    24   am
     4    24    28    1
     5    24    21    1
     6    22    21    2
     7    21    23    2
     8    21     1    1
     9     2     1    2
    10     2     3    1
    11     1     6    1
    12     3     4    2
    13     6     5    2
    14     4     5    1
    15     4     7    1
    16     7    10    1
    17     7     8   am
    18    19    20    2
    19    19    18    1
    20    20    17    1
    21     9     8    2
    22     8    11    1
    23    18    16    2
    24    17    11    2
    25    17    15    1
    26    11    12    1
    27    16    15    1
    28    15    14    2
    29    12    13    2
    30    14    13    1
