@<TRIPOS>MOLECULE
16215_out_ligand_01.pdbqt
 32 34 0 0 0
SMALL
GASTEIGER

@<TRIPOS>ATOM
      1  C         21.1320  -23.2820   -8.4770 C.2     1  UNL1        0.0340
      2  C         20.7780  -22.1920   -7.6810 C.2     1  UNL1        0.0310
      3  C         19.6360  -22.2420   -6.8720 C.2     1  UNL1        0.0270
      4  C         18.8490  -23.3940   -6.8570 C.2     1  UNL1        0.0790
      5  C         19.1790  -24.4860   -7.6590 C.2     1  UNL1        0.0270
      6  C         20.3210  -24.4270   -8.4650 C.2     1  UNL1        0.0310
      7  S         17.3980  -23.4430   -5.8370 S.O2    1  UNL1        0.2590
      8  O         17.4670  -24.6430   -5.0350 O.2     1  UNL1       -0.2010
      9  O         17.2090  -22.1360   -5.2460 O.2     1  UNL1       -0.2010
     10  N         16.1980  -23.6780   -6.9640 N.3     1  UNL1       -0.3080
     11  H         15.4580  -24.3420   -6.7100 H       1  UNL1        0.1720
     12  C         15.8390  -22.5970   -7.8850 C.3     1  UNL1        0.2160
     13  C         16.0440  -23.0950   -9.3080 C.2     1  UNL1        0.1770
     14  O         15.4080  -24.0490   -9.7580 O.2     1  UNL1       -0.2910
     15  C         17.0320  -22.3890  -10.1770 C.2     1  UNL1        0.0110
     16  C         18.2600  -22.9620  -10.5340 C.2     1  UNL1        0.0150
     17  C         19.1530  -22.2570  -11.3470 C.2     1  UNL1        0.0010
     18  C         18.8270  -20.9830  -11.8080 C.2     1  UNL1        0.0000
     19  C         17.6080  -20.4040  -11.4530 C.2     1  UNL1        0.0010
     20  C         16.7150  -21.1020  -10.6370 C.2     1  UNL1        0.0150
     21  N         22.2650  -23.3130   -9.3140 N.am    1  UNL1       -0.3270
     22  C         23.1450  -22.2780   -9.5860 C.2     1  UNL1        0.2260
     23  O         23.1020  -21.1390   -9.1240 O.2     1  UNL1       -0.2730
     24  H         22.4940  -24.2160   -9.7140 H       1  UNL1        0.1690
     25  C         24.2540  -22.6860  -10.5470 C.3     1  UNL1        0.1430
     26  C         24.1170  -22.0240  -11.9010 C.2     1  UNL1       -0.0320
     27  C         22.8230  -21.8910  -12.4410 C.2     1  UNL1        0.0090
     28  C         22.6210  -21.2830  -13.6800 C.2     1  UNL1        0.0010
     29  C         23.7080  -20.7890  -14.3990 C.2     1  UNL1        0.0010
     30  C         24.9950  -20.8950  -13.8730 C.2     1  UNL1        0.0190
     31  C         25.2000  -21.5060  -12.6290 C.2     1  UNL1        0.0170
     32 BR         26.9920  -21.6040  -11.9990 Br      1  UNL1       -0.0510
@<TRIPOS>BOND
     1    29    30    2
     2    29    28    1
     3    30    31    1
     4    28    27    2
     5    31    32    1
     6    31    26    2
     7    27    26    1
     8    26    25    1
     9    18    19    2
    10    18    17    1
    11    19    20    1
    12    17    16    2
    13    20    15    2
    14    25    22    1
    15    16    15    1
    16    15    13    1
    17    14    13    2
    18    24    21    1
    19    22    21   am
    20    22    23    2
    21    21     1    1
    22    13    12    1
    23     1     6    2
    24     1     2    1
    25     6     5    1
    26    12    10    1
    27     2     3    2
    28     5     4    2
    29    10    11    1
    30    10     7    1
    31     3     4    1
    32     4     7    1
    33     7     9    2
    34     7     8    2
