@<TRIPOS>MOLECULE
16230_out_ligand_01.pdbqt
 35 38 0 0 0
SMALL
GASTEIGER

@<TRIPOS>ATOM
      1  C         18.3860  -23.6460   -8.6090 C.3     1  UNL1        0.1180
      2  C         17.2700  -23.0230   -9.4620 C.3     1  UNL1        0.0660
      3  C         17.6480  -21.6130   -9.9570 C.3     1  UNL1        0.2210
      4  N         19.0000  -21.6180  -10.4890 N.pl3   1  UNL1       -0.2400
      5  N         19.4890  -20.6070  -11.2220 N.2     1  UNL1       -0.1810
      6  C         20.7590  -20.9660  -11.4360 C.2     1  UNL1        0.1600
      7  C         21.1140  -22.1860  -10.8070 C.2     1  UNL1        0.0960
      8  C         19.9450  -22.5590  -10.1680 C.2     1  UNL1        0.1380
      9  N         19.6410  -23.5980   -9.3510 N.pl3   1  UNL1       -0.3650
     10  H         20.4050  -24.1650   -8.9710 H       1  UNL1        0.1610
     11  C         22.3840  -22.9040  -10.7580 C.2     1  UNL1        0.2610
     12  O         22.6460  -23.6570   -9.8240 O.2     1  UNL1       -0.2670
     13  N         23.2180  -22.6520  -11.8350 N.am    1  UNL1       -0.3230
     14  H         22.8580  -22.0560  -12.5650 H       1  UNL1        0.1690
     15  C         24.5130  -23.1660  -12.0690 C.2     1  UNL1        0.0350
     16  C         25.3950  -23.1770  -10.9820 C.2     1  UNL1        0.0290
     17  C         26.6910  -23.6750  -11.1190 C.2     1  UNL1        0.0030
     18  C         27.1210  -24.1650  -12.3490 C.2     1  UNL1        0.0100
     19  C         26.2590  -24.1610  -13.4550 C.2     1  UNL1       -0.0280
     20  C         24.9540  -23.6610  -13.3000 C.2     1  UNL1        0.0390
     21  C         26.7180  -24.6850  -14.7990 C.3     1  UNL1        0.1470
     22  C         27.1210  -26.1540  -14.7510 C.3     1  UNL1        0.0440
     23  O         25.6730  -24.5280  -15.7590 O.3     1  UNL1       -0.3910
     24  H         24.8370  -24.7270  -15.3000 H       1  UNL1        0.2100
     25  C         18.4720  -23.0310   -7.2200 C.2     1  UNL1       -0.0350
     26  C         17.6330  -23.5320   -6.2080 C.2     1  UNL1        0.0100
     27  C         17.6410  -22.9820   -4.9220 C.2     1  UNL1        0.0070
     28  C         18.4980  -21.9240   -4.6110 C.2     1  UNL1       -0.0620
     29  C         18.4870  -21.3020   -3.2460 C.3     1  UNL1        0.0480
     30  C         19.3340  -21.4170   -5.6100 C.2     1  UNL1        0.0070
     31  C         19.3260  -21.9680   -6.8960 C.2     1  UNL1        0.0100
     32  C         16.6340  -21.1480  -10.9800 C.3     1  UNL1        0.4090
     33  F         16.9440  -21.5470  -12.2350 F       1  UNL1       -0.1690
     34  F         16.4510  -19.8120  -10.9920 F       1  UNL1       -0.1690
     35  F         15.4180  -21.6900  -10.6950 F       1  UNL1       -0.1690
@<TRIPOS>BOND
     1    23    24    1
     2    23    21    1
     3    21    22    1
     4    21    19    1
     5    19    20    1
     6    19    18    2
     7    20    15    2
     8    14    13    1
     9    18    17    1
    10    33    32    1
    11    15    13    1
    12    15    16    1
    13    13    11   am
    14     6     5    2
    15     6     7    1
    16     5     4    1
    17    17    16    2
    18    34    32    1
    19    32    35    1
    20    32     3    1
    21     7    11    1
    22     7     8    2
    23    11    12    2
    24     4     8    1
    25     4     3    1
    26     8     9    1
    27     3     2    1
    28     2     1    1
    29     9    10    1
    30     9     1    1
    31     1    25    1
    32    25    31    2
    33    25    26    1
    34    31    30    1
    35    26    27    2
    36    30    28    2
    37    27    28    1
    38    28    29    1
