@<TRIPOS>MOLECULE
16233_out_ligand_01.pdbqt
 36 39 0 0 0
SMALL
GASTEIGER

@<TRIPOS>ATOM
      1  C         18.9930  -23.6140   -7.5340 C.3     1  UNL1        0.1180
      2  C         17.6040  -24.0400   -8.0320 C.3     1  UNL1        0.0660
      3  C         16.9330  -22.9360   -8.8770 C.3     1  UNL1        0.2210
      4  N         17.8790  -22.4040   -9.8410 N.pl3   1  UNL1       -0.2400
      5  N         17.4990  -21.6270  -10.8680 N.2     1  UNL1       -0.1810
      6  C         18.6570  -21.2820  -11.4390 C.2     1  UNL1        0.1600
      7  C         19.7930  -21.8020  -10.7670 C.2     1  UNL1        0.0960
      8  C         19.2400  -22.5000   -9.7100 C.2     1  UNL1        0.1380
      9  N         19.7950  -23.1760   -8.6730 N.pl3   1  UNL1       -0.3650
     10  H         20.7960  -23.0550   -8.4880 H       1  UNL1        0.1610
     11  C         21.2170  -21.6360  -11.0380 C.2     1  UNL1        0.2610
     12  O         21.9970  -21.3500  -10.1340 O.2     1  UNL1       -0.2670
     13  N         21.5640  -21.8470  -12.3620 N.am    1  UNL1       -0.3230
     14  H         20.8370  -22.1840  -12.9760 H       1  UNL1        0.1690
     15  C         22.8410  -21.7220  -12.9490 C.2     1  UNL1        0.0350
     16  C         23.1310  -20.8770  -14.0200 C.2     1  UNL1        0.0290
     17  C         24.4260  -20.8190  -14.5470 C.2     1  UNL1        0.0030
     18  C         25.4400  -21.6060  -14.0070 C.2     1  UNL1        0.0100
     19  C         25.1740  -22.4650  -12.9320 C.2     1  UNL1       -0.0280
     20  C         23.8690  -22.5140  -12.4140 C.2     1  UNL1        0.0390
     21  C         26.2670  -23.3260  -12.3370 C.3     1  UNL1        0.1470
     22  C         26.4250  -23.1200  -10.8360 C.3     1  UNL1        0.0440
     23  O         25.9970  -24.7050  -12.5850 O.3     1  UNL1       -0.3910
     24  H         25.1210  -24.9020  -12.2120 H       1  UNL1        0.2100
     25  C         18.9280  -22.5950   -6.4040 C.2     1  UNL1       -0.0330
     26  C         19.6960  -21.4210   -6.3800 C.2     1  UNL1        0.0090
     27  C         19.5810  -20.5140   -5.3270 C.2     1  UNL1        0.0030
     28  C         18.6970  -20.7680   -4.2800 C.2     1  UNL1        0.0370
     29  C         17.9250  -21.9290   -4.2720 C.2     1  UNL1        0.0680
     30  C         18.0450  -22.8360   -5.3280 C.2     1  UNL1        0.0460
     31  O         17.1020  -22.0580   -3.1880 O.2     1  UNL1       -0.3560
     32  C         16.1470  -23.1120   -3.2200 C.3     1  UNL1        0.2100
     33  C         15.6940  -23.4950   -9.5420 C.3     1  UNL1        0.4090
     34  F         14.7700  -22.5580   -9.8390 F       1  UNL1       -0.1690
     35  F         15.9780  -24.1840  -10.6710 F       1  UNL1       -0.1690
     36  F         15.0810  -24.3720   -8.7010 F       1  UNL1       -0.1690
@<TRIPOS>BOND
     1    17    16    1
     2    17    18    2
     3    16    15    2
     4    18    19    1
     5    14    13    1
     6    15    20    1
     7    15    13    1
     8    19    20    2
     9    19    21    1
    10    23    21    1
    11    23    24    1
    12    13    11   am
    13    21    22    1
    14     6     5    2
    15     6     7    1
    16    11     7    1
    17    11    12    2
    18     5     4    1
    19     7     8    2
    20    35    33    1
    21     4     8    1
    22     4     3    1
    23    34    33    1
    24     8     9    1
    25    33     3    1
    26    33    36    1
    27     3     2    1
    28     9    10    1
    29     9     1    1
    30     2     1    1
    31     1    25    1
    32    25    26    2
    33    25    30    1
    34    26    27    1
    35    30    29    2
    36    27    28    2
    37    28    29    1
    38    29    31    1
    39    32    31    1
