@<TRIPOS>MOLECULE
16273_out_ligand_01.pdbqt
 29 32 0 0 0
SMALL
GASTEIGER

@<TRIPOS>ATOM
      1  N         18.2990  -22.6470   -8.7650 N.am    1  UNL1       -0.2440
      2  C         17.9190  -21.9660   -9.9060 C.2     1  UNL1        0.2660
      3  O         16.8510  -21.5140  -10.2790 O.2     1  UNL1       -0.2670
      4  C         19.1050  -21.8200  -10.7420 C.2     1  UNL1        0.0480
      5  C         19.2570  -21.2290  -11.9820 C.2     1  UNL1        0.0190
      6  C         20.5350  -21.2430  -12.5530 C.2     1  UNL1        0.0180
      7  C         21.6230  -21.8390  -11.8690 C.2     1  UNL1        0.0330
      8  C         21.4330  -22.4450  -10.6180 C.2     1  UNL1        0.0350
      9  C         20.1580  -22.4120  -10.0820 C.2     1  UNL1        0.0490
     10  C         19.6510  -22.9360   -8.8190 C.2     1  UNL1        0.2660
     11  O         20.4010  -23.4980   -8.0420 O.2     1  UNL1       -0.2670
     12  C         22.9860  -21.8760  -12.4690 C.2     1  UNL1        0.2560
     13  O         23.8860  -22.3710  -11.8040 O.2     1  UNL1       -0.2670
     14  N         23.0860  -21.3050  -13.7240 N.am    1  UNL1       -0.3230
     15  H         22.2710  -20.8240  -14.0820 H       1  UNL1        0.1690
     16  C         24.2340  -21.2350  -14.5410 C.2     1  UNL1        0.0350
     17  C         24.5870  -22.2090  -15.4760 C.2     1  UNL1        0.0290
     18  C         25.7360  -22.0570  -16.2560 C.2     1  UNL1        0.0030
     19  C         26.5450  -20.9320  -16.1080 C.2     1  UNL1        0.0070
     20  C         26.2160  -19.9490  -15.1700 C.2     1  UNL1       -0.0600
     21  C         27.0630  -18.7200  -15.0290 C.3     1  UNL1        0.0480
     22  C         25.0530  -20.1040  -14.4010 C.2     1  UNL1        0.0360
     23  C         17.4250  -22.9950   -7.6850 C.2     1  UNL1        0.0460
     24  C         16.5170  -24.0600   -7.7840 C.2     1  UNL1        0.0310
     25  C         15.6590  -24.4030   -6.7290 C.2     1  UNL1        0.0090
     26  C         15.6750  -23.6790   -5.5370 C.2     1  UNL1       -0.0620
     27  C         14.7840  -24.0640   -4.3950 C.3     1  UNL1        0.0480
     28  C         16.5810  -22.6270   -5.4120 C.2     1  UNL1        0.0090
     29  C         17.4350  -22.2890   -6.4710 C.2     1  UNL1        0.0310
@<TRIPOS>BOND
     1    18    19    2
     2    18    17    1
     3    19    20    1
     4    17    16    2
     5    20    21    1
     6    20    22    2
     7    16    22    1
     8    16    14    1
     9    15    14    1
    10    14    12   am
    11     6     5    1
    12     6     7    2
    13    12     7    1
    14    12    13    2
    15     5     4    2
    16     7     8    1
    17     4     9    1
    18     4     2    1
    19     8     9    2
    20     3     2    2
    21     9    10    1
    22     2     1   am
    23    10     1   am
    24    10    11    2
    25     1    23    1
    26    24    23    2
    27    24    25    1
    28    23    29    1
    29    25    26    2
    30    29    28    2
    31    26    28    1
    32    26    27    1
