@<TRIPOS>MOLECULE
16278_out_ligand_01.pdbqt
 28 30 0 0 0
SMALL
GASTEIGER

@<TRIPOS>ATOM
      1  C         21.6480  -22.1550  -11.4700 C.2     1  UNL1        0.0490
      2  C         22.3380  -22.9350  -10.6300 C.2     1  UNL1        0.0920
      3  C         21.6770  -23.6460   -9.5240 C.2     1  UNL1        0.2490
      4  O         22.3640  -24.2650   -8.7120 O.2     1  UNL1       -0.2680
      5  N         20.2940  -23.5820   -9.4520 N.am    1  UNL1       -0.3050
      6  C         19.5420  -22.6760  -10.2630 C.2     1  UNL1        0.0490
      7  C         18.1660  -22.4700  -10.0700 C.2     1  UNL1        0.0300
      8  C         17.4630  -21.5450  -10.8460 C.2     1  UNL1        0.0020
      9  C         18.1250  -20.8050  -11.8170 C.2     1  UNL1        0.0010
     10  C         19.4900  -20.9950  -12.0200 C.2     1  UNL1        0.0150
     11  C         20.2070  -21.9400  -11.2650 C.2     1  UNL1        0.0070
     12  C         19.6440  -24.4000   -8.4270 C.3     1  UNL1        0.2350
     13  C         18.9570  -23.5420   -7.3610 C.2     1  UNL1        0.2400
     14  O         19.5310  -22.5680   -6.8790 O.2     1  UNL1       -0.2710
     15  N         17.6770  -23.9790   -7.0620 N.am    1  UNL1       -0.3260
     16  H         17.3600  -24.8080   -7.5670 H       1  UNL1        0.1690
     17  C         16.7720  -23.4330   -6.1320 C.2     1  UNL1        0.0370
     18  C         17.0430  -23.6630   -4.7740 C.2     1  UNL1        0.0290
     19  C         16.2000  -23.1580   -3.7800 C.2     1  UNL1        0.0050
     20  C         15.0770  -22.4180   -4.1370 C.2     1  UNL1        0.0420
     21  C         14.8110  -22.1920   -5.4830 C.2     1  UNL1        0.1180
     22  F         13.7290  -21.4810   -5.8240 F       1  UNL1       -0.2060
     23  C         15.6450  -22.6910   -6.4810 C.2     1  UNL1        0.0710
     24  C         22.4590  -21.5890  -12.5820 C.2     1  UNL1        0.2520
     25  N         23.8130  -21.7810  -12.4400 N.am    1  UNL1       -0.3610
     26  C         24.7500  -21.1760  -13.3520 C.3     1  UNL1        0.1490
     27  H         24.1640  -22.1620  -11.5700 H       1  UNL1        0.1620
     28  O         21.9460  -20.9560  -13.4960 O.2     1  UNL1       -0.2680
@<TRIPOS>BOND
     1    28    24    2
     2    26    25    1
     3    24    25   am
     4    24     1    1
     5    25    27    1
     6    10     9    2
     7    10    11    1
     8     9     8    1
     9     1    11    1
    10     1     2    2
    11    11     6    2
    12     8     7    2
    13     2     3    1
    14     6     7    1
    15     6     5    1
    16     3     5   am
    17     3     4    2
    18     5    12    1
    19    12    13    1
    20    16    15    1
    21    13    15   am
    22    13    14    2
    23    15    17    1
    24    23    17    2
    25    23    21    1
    26    17    18    1
    27    22    21    1
    28    21    20    2
    29    18    19    2
    30    20    19    1
