@<TRIPOS>MOLECULE
1627_out_ligand_01.pdbqt
 32 35 0 0 0
SMALL
GASTEIGER

@<TRIPOS>ATOM
      1  C         22.5020  -23.1130   -9.2050 C.2     1  UNL1       -0.0400
      2  C         21.5370  -24.1310   -9.3540 C.2     1  UNL1        0.0110
      3  C         20.3530  -24.1200   -8.6070 C.2     1  UNL1        0.0310
      4  C         20.1390  -23.0810   -7.7190 C.2     1  UNL1        0.0430
      5  C         21.0850  -22.0670   -7.5700 C.2     1  UNL1       -0.0290
      6  C         22.2640  -22.0670   -8.3020 C.2     1  UNL1        0.0180
      7  C         20.6610  -21.0690   -6.5430 C.2     1  UNL1        0.0610
      8  C         19.2640  -21.5770   -6.1610 C.2     1  UNL1        0.1370
      9  N         19.0380  -22.8470   -6.8760 N.am    1  UNL1       -0.3130
     10  C         17.9540  -23.6950   -6.7200 C.2     1  UNL1        0.2580
     11  O         17.8020  -24.7950   -7.2440 O.2     1  UNL1       -0.2670
     12  C         23.7590  -23.1230  -10.0380 C.3     1  UNL1        0.1620
     13  N         23.5350  -22.5000  -11.3230 N.am    1  UNL1       -0.3390
     14  C         24.5890  -22.0020  -12.0630 C.2     1  UNL1        0.3210
     15  N         24.1300  -21.3730  -13.1960 N.am    1  UNL1       -0.3060
     16  O         25.7570  -22.1420  -11.7260 O.2     1  UNL1       -0.2470
     17  H         23.1530  -21.4910  -13.4250 H       1  UNL1        0.1710
     18  H         22.6610  -22.0090  -11.4240 H       1  UNL1        0.1640
     19  C         24.8720  -20.6930  -14.1860 C.2     1  UNL1        0.0690
     20  C         25.6840  -19.5890  -13.9190 C.2     1  UNL1        0.0320
     21  C         26.3840  -18.9630  -14.9520 C.2     1  UNL1        0.0020
     22  C         26.2720  -19.4340  -16.2570 C.2     1  UNL1        0.0030
     23  C         25.4600  -20.5340  -16.5390 C.2     1  UNL1        0.0390
     24  C         24.7570  -21.1690  -15.5110 C.2     1  UNL1        0.0950
     25  O         23.9290  -22.2570  -15.6780 O.2     1  UNL1       -0.3540
     26  C         24.3480  -23.2490  -16.6070 C.3     1  UNL1        0.2100
     27  C         16.8820  -23.2420   -5.8090 C.2     1  UNL1        0.0320
     28  C         15.7320  -22.6350   -6.3230 C.2     1  UNL1        0.0170
     29  C         14.7260  -22.2210   -5.4500 C.2     1  UNL1        0.0010
     30  C         14.8680  -22.4260   -4.0750 C.2     1  UNL1        0.0000
     31  C         16.0090  -23.0520   -3.5690 C.2     1  UNL1        0.0010
     32  C         17.0180  -23.4680   -4.4380 C.2     1  UNL1        0.0170
@<TRIPOS>BOND
     1    26    25    1
     2    23    22    2
     3    23    24    1
     4    22    21    1
     5    25    24    1
     6    24    19    2
     7    21    20    2
     8    19    20    1
     9    19    15    1
    10    17    15    1
    11    15    14   am
    12    14    16    2
    13    14    13   am
    14    18    13    1
    15    13    12    1
    16    12     1    1
    17     2     1    2
    18     2     3    1
    19     1     6    1
    20     3     4    2
    21     6     5    2
    22     4     5    1
    23     4     9    1
    24     5     7    1
    25    11    10    2
    26     9    10   am
    27     9     8    1
    28    10    27    1
    29     7     8    2
    30    28    27    2
    31    28    29    1
    32    27    32    1
    33    29    30    2
    34    32    31    2
    35    30    31    1
