@<TRIPOS>MOLECULE
16282_out_ligand_01.pdbqt
 29 32 0 0 0
SMALL
GASTEIGER

@<TRIPOS>ATOM
      1  C         18.5820  -22.4600  -10.0010 C.2     1  UNL1        0.0330
      2  C         18.4050  -21.6810  -11.1690 C.2     1  UNL1        0.0180
      3  C         19.4890  -21.3930  -12.0070 C.2     1  UNL1        0.0190
      4  C         20.7270  -21.8920  -11.6410 C.2     1  UNL1        0.0480
      5  C         20.9040  -22.6370  -10.4990 C.2     1  UNL1        0.0490
      6  C         19.8540  -22.9370   -9.6510 C.2     1  UNL1        0.0350
      7  C         22.3170  -22.9900  -10.4160 C.2     1  UNL1        0.2660
      8  O         22.7260  -23.6680   -9.4910 O.2     1  UNL1       -0.2670
      9  N         22.9460  -22.4360  -11.5150 N.am    1  UNL1       -0.2440
     10  C         22.0240  -21.7610  -12.2940 C.2     1  UNL1        0.2660
     11  O         22.1220  -21.1410  -13.3380 O.2     1  UNL1       -0.2670
     12  C         17.4410  -22.7610   -9.0910 C.2     1  UNL1        0.2560
     13  N         17.6340  -22.3860   -7.7750 N.am    1  UNL1       -0.3230
     14  H         18.4640  -21.8520   -7.5610 H       1  UNL1        0.1690
     15  O         16.4450  -23.2760   -9.5810 O.2     1  UNL1       -0.2670
     16  C         16.7480  -22.5810   -6.6930 C.2     1  UNL1        0.0350
     17  C         15.4350  -22.1180   -6.8520 C.2     1  UNL1        0.0290
     18  C         14.5010  -22.2600   -5.8240 C.2     1  UNL1        0.0030
     19  C         14.8680  -22.8690   -4.6260 C.2     1  UNL1        0.0070
     20  C         16.1700  -23.3480   -4.4520 C.2     1  UNL1       -0.0600
     21  C         16.5850  -23.9750   -3.1530 C.3     1  UNL1        0.0480
     22  C         17.1080  -23.1860   -5.4860 C.2     1  UNL1        0.0360
     23  C         24.3450  -22.5490  -11.8070 C.2     1  UNL1        0.0460
     24  C         25.3010  -21.7670  -11.1400 C.2     1  UNL1        0.0300
     25  C         26.6670  -21.8730  -11.4270 C.2     1  UNL1        0.0030
     26  C         27.1150  -22.7680  -12.3910 C.2     1  UNL1        0.0070
     27  C         26.1980  -23.5730  -13.0660 C.2     1  UNL1       -0.0600
     28  C         26.6600  -24.5220  -14.1330 C.3     1  UNL1        0.0480
     29  C         24.8260  -23.4460  -12.7770 C.2     1  UNL1        0.0370
@<TRIPOS>BOND
     1    28    27    1
     2    11    10    2
     3    27    29    1
     4    27    26    2
     5    29    23    2
     6    26    25    1
     7    10     4    1
     8    10     9   am
     9     3     4    2
    10     3     2    1
    11    23     9    1
    12    23    24    1
    13     4     5    1
    14     9     7   am
    15    25    24    2
    16     2     1    2
    17     5     7    1
    18     5     6    2
    19     7     8    2
    20     1     6    1
    21     1    12    1
    22    15    12    2
    23    12    13   am
    24    13    14    1
    25    13    16    1
    26    17    16    2
    27    17    18    1
    28    16    22    1
    29    18    19    2
    30    22    20    2
    31    19    20    1
    32    20    21    1
