@<TRIPOS>MOLECULE
16281_out_ligand_01.pdbqt
 31 34 0 0 0
SMALL
GASTEIGER

@<TRIPOS>ATOM
      1  C         21.8980  -21.8180  -11.9400 C.2     1  UNL1        0.0330
      2  C         20.7160  -21.4360  -12.6200 C.2     1  UNL1        0.0180
      3  C         19.4760  -21.4760  -11.9710 C.2     1  UNL1        0.0190
      4  C         19.4600  -21.8920  -10.6520 C.2     1  UNL1        0.0480
      5  C         20.6090  -22.2500   -9.9850 C.2     1  UNL1        0.0490
      6  C         21.8490  -22.2200  -10.5960 C.2     1  UNL1        0.0350
      7  C         20.2330  -22.6240   -8.6260 C.2     1  UNL1        0.2660
      8  O         21.0780  -22.9980   -7.8330 O.2     1  UNL1       -0.2670
      9  N         18.8640  -22.4690   -8.5180 N.am    1  UNL1       -0.2440
     10  C         18.3450  -22.0310   -9.7220 C.2     1  UNL1        0.2660
     11  O         17.2090  -21.7750  -10.0810 O.2     1  UNL1       -0.2670
     12  C         23.2280  -21.7630  -12.6090 C.2     1  UNL1        0.2560
     13  N         23.2410  -21.1100  -13.8270 N.am    1  UNL1       -0.3230
     14  H         22.3510  -20.8190  -14.2100 H       1  UNL1        0.1690
     15  O         24.1680  -22.3160  -12.0510 O.2     1  UNL1       -0.2670
     16  C         24.3580  -20.8710  -14.6570 C.2     1  UNL1        0.0350
     17  C         25.2940  -19.8620  -14.4330 C.2     1  UNL1        0.0290
     18  C         26.3750  -19.6920  -15.3030 C.2     1  UNL1        0.0030
     19  C         26.5260  -20.5270  -16.4090 C.2     1  UNL1        0.0070
     20  C         25.5890  -21.5330  -16.6620 C.2     1  UNL1       -0.0600
     21  C         25.7640  -22.4550  -17.8320 C.3     1  UNL1        0.0480
     22  C         24.5150  -21.7040  -15.7740 C.2     1  UNL1        0.0360
     23  C         18.0960  -22.7310   -7.3370 C.2     1  UNL1        0.0460
     24  C         17.1490  -23.7720   -7.2880 C.2     1  UNL1        0.0320
     25  C         16.3930  -24.0340   -6.1350 C.2     1  UNL1        0.0380
     26  C         16.5750  -23.2520   -4.9960 C.2     1  UNL1        0.1030
     27  C         17.5050  -22.2110   -5.0080 C.2     1  UNL1        0.0380
     28  C         18.2510  -21.9610   -6.1700 C.2     1  UNL1        0.0320
     29  N         15.7890  -23.5210   -3.7860 N.pl3   1  UNL1       -0.1160
     30  O         15.6070  -24.7040   -3.4670 O.2     1  UNL1       -0.5320
     31  O         15.3550  -22.5470   -3.1530 O.2     1  UNL1       -0.5320
@<TRIPOS>BOND
     1    21    20    1
     2    20    19    2
     3    20    22    1
     4    19    18    1
     5    22    16    2
     6    18    17    2
     7    16    17    1
     8    16    13    1
     9    14    13    1
    10    13    12   am
    11     2     3    1
    12     2     1    2
    13    12    15    2
    14    12     1    1
    15     3     4    2
    16     1     6    1
    17     4     5    1
    18     4    10    1
    19     6     5    2
    20    11    10    2
    21     5     7    1
    22    10     9   am
    23     7     9   am
    24     7     8    2
    25     9    23    1
    26    23    24    2
    27    23    28    1
    28    24    25    1
    29    28    27    2
    30    25    26    2
    31    27    26    1
    32    26    29    1
    33    29    30    2
    34    29    31    2
