@<TRIPOS>MOLECULE
16301_out_ligand_01.pdbqt
 28 30 0 0 0
SMALL
GASTEIGER

@<TRIPOS>ATOM
      1  C         18.7170  -22.3490  -10.2530 C.2     1  UNL1        0.0340
      2  C         18.1410  -21.3150  -11.0000 C.2     1  UNL1        0.0170
      3  C         18.9040  -20.6450  -11.9530 C.2     1  UNL1        0.0030
      4  C         20.2380  -21.0070  -12.1570 C.2     1  UNL1        0.0290
      5  C         20.8280  -22.0390  -11.4110 C.2     1  UNL1        0.0350
      6  C         20.0610  -22.7010  -10.4500 C.2     1  UNL1        0.0460
      7  C         17.9320  -23.0760   -9.2190 C.2     1  UNL1        0.2520
      8  O         16.7170  -23.1810   -9.3250 O.2     1  UNL1       -0.2680
      9  N         18.6600  -23.5770   -8.1600 N.am    1  UNL1       -0.3530
     10  H         19.6020  -23.2430   -8.0250 H       1  UNL1        0.1630
     11  C         18.0040  -24.1520   -7.0060 C.3     1  UNL1        0.1610
     12  C         18.0800  -23.2160   -5.8270 C.2     1  UNL1       -0.0410
     13  C         18.6870  -21.9580   -5.9640 C.2     1  UNL1        0.0090
     14  C         18.7800  -21.0940   -4.8730 C.2     1  UNL1        0.0010
     15  C         18.2720  -21.4770   -3.6340 C.2     1  UNL1        0.0000
     16  C         17.6720  -22.7270   -3.4840 C.2     1  UNL1        0.0010
     17  C         17.5790  -23.5950   -4.5730 C.2     1  UNL1        0.0090
     18  N         22.1800  -22.3300  -11.6900 N.am    1  UNL1       -0.3230
     19  C         23.2980  -21.9110  -10.9900 C.2     1  UNL1        0.2590
     20  O         23.2890  -21.2260   -9.9720 O.2     1  UNL1       -0.2670
     21  H         22.3410  -22.9270  -12.4930 H       1  UNL1        0.1690
     22  C         24.6250  -22.3500  -11.5250 C.2     1  UNL1        0.0700
     23  C         24.6640  -23.4640  -12.3810 C.2     1  UNL1        0.0200
     24  C         25.8770  -23.9170  -12.9090 C.2     1  UNL1        0.0010
     25  C         27.0660  -23.2630  -12.5880 C.2     1  UNL1        0.0030
     26  C         27.0410  -22.1570  -11.7420 C.2     1  UNL1        0.0430
     27  C         25.8280  -21.7100  -11.2170 C.2     1  UNL1        0.1320
     28  F         25.8540  -20.6390  -10.4070 F       1  UNL1       -0.2050
@<TRIPOS>BOND
     1    24    25    2
     2    24    23    1
     3    25    26    1
     4    21    18    1
     5    23    22    2
     6     4     3    2
     7     4     5    1
     8     3     2    1
     9    26    27    2
    10    18     5    1
    11    18    19   am
    12    22    27    1
    13    22    19    1
    14     5     6    2
    15    27    28    1
    16     2     1    2
    17    19    20    2
    18     6     1    1
    19     1     7    1
    20     8     7    2
    21     7     9   am
    22     9    10    1
    23     9    11    1
    24    11    12    1
    25    13    12    2
    26    13    14    1
    27    12    17    1
    28    14    15    2
    29    17    16    2
    30    15    16    1
