@<TRIPOS>MOLECULE
16315_out_ligand_01.pdbqt
 28 30 0 0 0
SMALL
GASTEIGER

@<TRIPOS>ATOM
      1  C         19.6110  -21.9850  -10.8890 C.2     1  UNL1        0.0350
      2  C         18.8880  -21.2260  -11.8100 C.2     1  UNL1        0.0290
      3  C         17.5070  -21.0600  -11.6670 C.2     1  UNL1        0.0030
      4  C         16.8340  -21.6440  -10.5940 C.2     1  UNL1        0.0170
      5  C         17.5490  -22.3910   -9.6540 C.2     1  UNL1        0.0340
      6  C         18.9310  -22.5690   -9.8140 C.2     1  UNL1        0.0460
      7  N         20.9980  -22.2130  -10.9660 N.am    1  UNL1       -0.3230
      8  C         21.8800  -21.8260  -11.9550 C.2     1  UNL1        0.2590
      9  O         21.5760  -21.1810  -12.9560 O.2     1  UNL1       -0.2670
     10  H         21.4070  -22.7390  -10.1990 H       1  UNL1        0.1690
     11  C         23.3230  -22.2290  -11.7700 C.2     1  UNL1        0.0650
     12  C         23.8900  -22.9910  -12.8120 C.2     1  UNL1        0.0200
     13  C         25.2140  -23.4220  -12.7530 C.2     1  UNL1        0.0010
     14  C         25.9950  -23.0970  -11.6520 C.2     1  UNL1        0.0030
     15  C         25.4530  -22.3440  -10.6070 C.2     1  UNL1        0.0380
     16  C         24.1210  -21.9050  -10.6490 C.2     1  UNL1        0.0840
     17  O         23.5460  -21.1610   -9.6470 O.2     1  UNL1       -0.3550
     18  C         22.9870  -21.8550   -8.5350 C.3     1  UNL1        0.2100
     19  C         16.8920  -23.0400   -8.4860 C.2     1  UNL1        0.2520
     20  O         16.0200  -23.8840   -8.6660 O.2     1  UNL1       -0.2680
     21  N         17.3380  -22.6610   -7.2370 N.am    1  UNL1       -0.3520
     22  H         18.0900  -21.9910   -7.1510 H       1  UNL1        0.1630
     23  C         16.7280  -23.1710   -6.0190 C.3     1  UNL1        0.0840
     24  C         15.4320  -22.4060   -5.6960 C.3     1  UNL1        0.0250
     25  C         15.0820  -22.3940   -4.2060 C.3     1  UNL1        0.0020
     26  C         15.6080  -23.6270   -3.4860 C.3     1  UNL1        0.0000
     27  C         17.1320  -23.7300   -3.5790 C.3     1  UNL1        0.0020
     28  C         17.7130  -23.1060   -4.8500 C.3     1  UNL1        0.0250
@<TRIPOS>BOND
     1     9     8    2
     2    12    13    1
     3    12    11    2
     4    13    14    2
     5     8    11    1
     6     8     7   am
     7     2     3    1
     8     2     1    2
     9    11    16    1
    10     3     4    2
    11    14    15    1
    12     7     1    1
    13     7    10    1
    14     1     6    1
    15    16    15    2
    16    16    17    1
    17     4     5    1
    18     6     5    2
    19     5    19    1
    20    17    18    1
    21    20    19    2
    22    19    21   am
    23    21    22    1
    24    21    23    1
    25    23    24    1
    26    23    28    1
    27    24    25    1
    28    28    27    1
    29    25    26    1
    30    27    26    1
