@<TRIPOS>MOLECULE
1633_out_ligand_01.pdbqt
 31 34 0 0 0
SMALL
GASTEIGER

@<TRIPOS>ATOM
      1  N         19.0670  -21.2790  -10.6730 N.ar    1  UNL1       -0.2080
      2  N         19.2610  -21.9970   -9.5000 N.ar    1  UNL1       -0.1440
      3  C         18.1000  -22.5500   -9.3050 C.ar    1  UNL1        0.2120
      4  C         17.6490  -23.4450   -8.1910 C.2     1  UNL1        0.2190
      5  N         16.4430  -23.9370   -8.1260 N.2     1  UNL1       -0.2320
      6  C         15.5790  -23.5940   -9.1490 C.2     1  UNL1        0.1370
      7  C         15.8990  -22.8010  -10.1860 C.2     1  UNL1        0.1230
      8  N         17.1590  -22.2900  -10.2440 N.ar    1  UNL1       -0.2510
      9  C         17.7650  -21.4790  -11.1610 C.ar    1  UNL1        0.3510
     10  O         17.3020  -20.9950  -12.1830 O.2     1  UNL1       -0.2440
     11  C         20.1450  -20.6100  -11.3700 C.3     1  UNL1        0.2590
     12  C         21.3730  -21.5060  -11.5420 C.2     1  UNL1        0.2420
     13  N         22.2620  -21.4440  -10.4800 N.am    1  UNL1       -0.3260
     14  H         22.0240  -20.8070   -9.7210 H       1  UNL1        0.1690
     15  O         21.5530  -22.1210  -12.5910 O.2     1  UNL1       -0.2710
     16  C         23.4800  -22.1390  -10.3310 C.2     1  UNL1        0.0370
     17  C         23.4910  -23.2120   -9.4280 C.2     1  UNL1        0.0300
     18  C         24.6530  -23.9620   -9.2170 C.2     1  UNL1        0.0120
     19  C         25.8280  -23.6450   -9.9030 C.2     1  UNL1       -0.0230
     20  C         27.0770  -24.4490   -9.7150 C.3     1  UNL1        0.0510
     21  C         25.8020  -22.5840  -10.8110 C.2     1  UNL1        0.1240
     22  C         24.6470  -21.8320  -11.0270 C.2     1  UNL1        0.0720
     23  F         26.9100  -22.2760  -11.5000 F       1  UNL1       -0.2050
     24  O         18.6690  -23.6480   -7.2970 O.2     1  UNL1       -0.2890
     25  C         18.5600  -22.9030   -6.1180 C.2     1  UNL1        0.0810
     26  C         17.9100  -23.4730   -5.0230 C.2     1  UNL1        0.0370
     27  C         17.7570  -22.7250   -3.8550 C.2     1  UNL1        0.0060
     28  C         18.2410  -21.4170   -3.7990 C.2     1  UNL1        0.0420
     29  C         18.8700  -20.8640   -4.9140 C.2     1  UNL1        0.1190
     30  F         19.3230  -19.6040   -4.8550 F       1  UNL1       -0.2060
     31  C         19.0310  -21.5930   -6.0840 C.2     1  UNL1        0.0790
@<TRIPOS>BOND
     1    15    12    2
     2    10     9    2
     3    12    11    1
     4    12    13   am
     5    23    21    1
     6    11     1    1
     7     9     1   ar
     8     9     8   ar
     9    22    21    1
    10    22    16    2
    11    21    19    2
    12     1     2   ar
    13    13    16    1
    14    13    14    1
    15    16    17    1
    16     8     7    1
    17     8     3   ar
    18     7     6    2
    19    19    20    1
    20    19    18    1
    21     2     3   ar
    22    17    18    2
    23     3     4    1
    24     6     5    1
    25     4     5    2
    26     4    24    1
    27    24    25    1
    28    25    31    2
    29    25    26    1
    30    31    29    1
    31    26    27    2
    32    29    30    1
    33    29    28    2
    34    27    28    1
