@<TRIPOS>MOLECULE
16359_out_ligand_01.pdbqt
 27 30 0 0 0
SMALL
GASTEIGER

@<TRIPOS>ATOM
      1  C         22.8630  -22.9720   -9.0630 C.2     1  UNL1        0.0340
      2  C         22.4330  -21.9490   -8.2130 C.2     1  UNL1        0.0300
      3  C         21.1840  -22.0200   -7.5870 C.2     1  UNL1        0.0170
      4  C         20.3300  -23.1120   -7.7950 C.2     1  UNL1        0.0100
      5  C         20.7710  -24.1360   -8.6420 C.2     1  UNL1        0.0170
      6  C         22.0240  -24.0670   -9.2680 C.2     1  UNL1        0.0300
      7  C         19.0280  -23.1420   -7.1200 C.ar    1  UNL1        0.1390
      8  N         18.0220  -23.9470   -7.4210 N.ar    1  UNL1       -0.2280
      9  C         17.0090  -23.6460   -6.5460 C.ar    1  UNL1        0.0880
     10  C         15.7270  -24.1990   -6.4360 C.2     1  UNL1        0.0760
     11  C         17.3940  -22.6350   -5.6760 C.ar    1  UNL1        0.0630
     12  C         14.8890  -23.7000   -5.4410 C.2     1  UNL1        0.1180
     13  F         13.6560  -24.2110   -5.3120 F       1  UNL1       -0.2060
     14  C         15.2920  -22.6860   -4.5750 C.2     1  UNL1        0.0440
     15  C         16.5690  -22.1220   -4.6720 C.2     1  UNL1        0.0350
     16  N         18.6780  -22.3370   -6.0590 N.ar    1  UNL1       -0.3380
     17  H         19.2720  -21.6500   -5.6230 H       1  UNL1        0.1670
     18  N         24.1370  -22.8290   -9.6500 N.am    1  UNL1       -0.3260
     19  C         24.4510  -22.8370  -10.9980 C.2     1  UNL1        0.2410
     20  O         23.6600  -22.9550  -11.9310 O.2     1  UNL1       -0.2710
     21  H         24.8940  -22.6210   -8.9990 H       1  UNL1        0.1690
     22  C         25.9320  -22.7220  -11.2800 C.3     1  UNL1        0.2500
     23  N         26.3100  -21.3560  -11.5160 N.pl3   1  UNL1       -0.2610
     24  C         27.0450  -20.8310  -12.5270 C.2     1  UNL1        0.2430
     25  N         27.1210  -19.5330  -12.3460 N.2     1  UNL1       -0.1560
     26  N         26.4100  -19.2670  -11.1990 N.2     1  UNL1        0.0170
     27  N         25.9050  -20.3810  -10.6840 N.2     1  UNL1       -0.0030
@<TRIPOS>BOND
     1    24    25    2
     2    24    23    1
     3    25    26    1
     4    20    19    2
     5    23    22    1
     6    23    27    1
     7    22    19    1
     8    26    27    2
     9    19    18   am
    10    18     1    1
    11    18    21    1
    12     6     1    2
    13     6     5    1
    14     1     2    1
    15     5     4    2
    16     2     3    2
    17     4     3    1
    18     4     7    1
    19     8     7   ar
    20     8     9   ar
    21     7    16   ar
    22     9    10    2
    23     9    11   ar
    24    10    12    1
    25    16    11   ar
    26    16    17    1
    27    11    15    2
    28    12    13    1
    29    12    14    2
    30    15    14    1
