@<TRIPOS>MOLECULE
16376_out_ligand_01.pdbqt
 28 31 0 0 0
SMALL
GASTEIGER

@<TRIPOS>ATOM
      1  C         21.2190  -21.6460  -11.3220 C.2     1  UNL1        0.2560
      2  O         20.5480  -20.6510  -11.5690 O.2     1  UNL1       -0.2670
      3  N         20.9710  -22.5510  -10.3050 N.am    1  UNL1       -0.3230
      4  H         21.6530  -23.2800  -10.1630 H       1  UNL1        0.1690
      5  C         19.8960  -22.5490   -9.3900 C.2     1  UNL1        0.0350
      6  C         18.6100  -22.7840   -9.9240 C.2     1  UNL1        0.0300
      7  C         17.4670  -22.8010   -9.1120 C.2     1  UNL1        0.0150
      8  C         17.6220  -22.5810   -7.7570 C.2     1  UNL1       -0.0190
      9  C         18.9040  -22.3430   -7.2210 C.2     1  UNL1       -0.0410
     10  C         16.6520  -22.5380   -6.6840 C.3     1  UNL1       -0.0190
     11  C         20.0400  -22.3240   -8.0180 C.2     1  UNL1        0.0380
     12  C         18.8170  -22.1300   -5.7230 C.2     1  UNL1        0.0780
     13  C         17.3290  -22.2740   -5.4730 C.2     1  UNL1       -0.0430
     14  C         16.6490  -22.1760   -4.2700 C.2     1  UNL1        0.0080
     15  C         15.2640  -22.3480   -4.2850 C.2     1  UNL1        0.0010
     16  C         14.5840  -22.6110   -5.4870 C.2     1  UNL1        0.0010
     17  C         15.2780  -22.7070   -6.6970 C.2     1  UNL1        0.0130
     18  C         22.4150  -21.9520  -12.1270 C.2     1  UNL1        0.0400
     19  C         23.4840  -22.8750  -11.8510 C.2     1  UNL1        0.0500
     20  C         24.4500  -22.9060  -12.8400 C.2     1  UNL1        0.1150
     21  S         24.0790  -21.8350  -14.1130 S.3     1  UNL1       -0.0880
     22  C         22.6330  -21.3370  -13.3510 C.2     1  UNL1        0.0680
     23  S         25.9450  -23.8400  -13.0060 S.O2    1  UNL1        0.2450
     24  O         25.6510  -24.9340  -13.9000 O.2     1  UNL1       -0.2060
     25  O         26.9770  -22.8670  -13.2830 O.2     1  UNL1       -0.2060
     26  N         26.3260  -24.5180  -11.5200 N.3     1  UNL1       -0.2250
     27  H         25.7650  -25.3590  -11.3780 H       1  UNL1        0.1360
     28  H         26.1800  -23.8240  -10.7850 H       1  UNL1        0.1360
@<TRIPOS>BOND
     1    21    22    1
     2    21    20    1
     3    24    23    2
     4    22    18    2
     5    25    23    2
     6    23    20    1
     7    23    26    1
     8    20    19    2
     9    18    19    1
    10    18     1    1
    11     2     1    2
    12    26    27    1
    13    26    28    1
    14     1     3   am
    15     3     4    1
    16     3     5    1
    17     6     5    2
    18     6     7    1
    19     5    11    1
    20     7     8    2
    21    11     9    2
    22     8     9    1
    23     8    10    1
    24     9    12    1
    25    17    10    1
    26    17    16    2
    27    10    13    1
    28    12    13    2
    29    16    15    1
    30    13    14    1
    31    15    14    2
