@<TRIPOS>MOLECULE
16389_out_ligand_01.pdbqt
 28 31 0 0 0
SMALL
GASTEIGER

@<TRIPOS>ATOM
      1  O         19.3720  -20.9690  -10.8860 O.2     1  UNL1       -0.2670
      2  C         20.0950  -21.9390  -10.6820 C.2     1  UNL1        0.2580
      3  N         19.7950  -23.0250   -9.8810 N.am    1  UNL1       -0.3230
      4  H         20.5100  -23.7540   -9.8320 H       1  UNL1        0.1690
      5  C         18.6260  -23.2540   -9.1310 C.2     1  UNL1        0.0350
      6  C         18.7880  -23.8000   -7.8530 C.2     1  UNL1        0.0300
      7  C         17.6800  -24.0670   -7.0430 C.2     1  UNL1        0.0100
      8  C         16.3860  -23.7850   -7.4990 C.2     1  UNL1       -0.0510
      9  C         16.2260  -23.2330   -8.7760 C.2     1  UNL1        0.0100
     10  C         17.3380  -22.9710   -9.5830 C.2     1  UNL1        0.0300
     11  C         15.1830  -24.1180   -6.6460 C.3     1  UNL1        0.1190
     12  C         15.2640  -23.5830   -5.2620 C.ar    1  UNL1        0.1380
     13  N         15.6840  -24.2050   -4.1800 N.ar    1  UNL1       -0.1470
     14  N         15.5820  -23.2970   -3.1530 N.ar    1  UNL1        0.0170
     15  N         15.1110  -22.1370   -3.5890 N.ar    1  UNL1       -0.0050
     16  N         14.9110  -22.3130   -4.9010 N.ar    1  UNL1       -0.2720
     17  H         14.5360  -21.5570   -5.4620 H       1  UNL1        0.1850
     18  C         21.4240  -21.9730  -11.3510 C.2     1  UNL1        0.0660
     19  C         21.5750  -21.4070  -12.6310 C.2     1  UNL1        0.0610
     20  C         22.8090  -21.4290  -13.2720 C.2     1  UNL1        0.1190
     21  F         22.9180  -20.8830  -14.4900 F       1  UNL1       -0.2060
     22  C         23.9400  -22.0040  -12.6920 C.2     1  UNL1        0.0740
     23  C         23.7720  -22.5590  -11.4220 C.2     1  UNL1        0.0660
     24  N         24.6430  -23.1920  -10.5710 N.pl3   1  UNL1       -0.3490
     25  C         22.5550  -22.5590  -10.7440 C.2     1  UNL1        0.1000
     26  C         23.9530  -23.5430   -9.4450 C.2     1  UNL1        0.2080
     27  H         25.6240  -23.3690  -10.7440 H       1  UNL1        0.1670
     28  N         22.6930  -23.1780   -9.5140 N.2     1  UNL1       -0.2410
@<TRIPOS>BOND
     1    21    20    1
     2    20    22    2
     3    20    19    1
     4    22    23    1
     5    19    18    2
     6    23    25    2
     7    23    24    1
     8    18    25    1
     9    18     2    1
    10     1     2    2
    11    27    24    1
    12    25    28    1
    13     2     3   am
    14    24    26    1
    15     3     4    1
    16     3     5    1
    17    10     5    2
    18    10     9    1
    19    28    26    2
    20     5     6    1
    21     9     8    2
    22     6     7    2
    23     8     7    1
    24     8    11    1
    25    11    12    1
    26    17    16    1
    27    12    16   ar
    28    12    13   ar
    29    16    15   ar
    30    13    14   ar
    31    15    14   ar
