@<TRIPOS>MOLECULE
16393_out_ligand_01.pdbqt
 33 36 0 0 0
SMALL
GASTEIGER

@<TRIPOS>ATOM
      1  N         20.4580  -22.2820  -11.0390 N.am    1  UNL1       -0.3210
      2  C         19.3310  -21.5700  -11.3760 C.2     1  UNL1        0.2590
      3  O         19.2820  -20.6600  -12.1970 O.2     1  UNL1       -0.2670
      4  H         20.3830  -23.0370  -10.3630 H       1  UNL1        0.1690
      5  C         21.7820  -22.1070  -11.4900 C.2     1  UNL1        0.0570
      6  C         22.7850  -22.3320  -10.5160 C.2     1  UNL1        0.0370
      7  C         24.1310  -22.1600  -10.8740 C.2     1  UNL1        0.0270
      8  C         24.4770  -21.7810  -12.1730 C.2     1  UNL1        0.0190
      9  C         23.4780  -21.5710  -13.1320 C.2     1  UNL1        0.0340
     10  C         22.1280  -21.7230  -12.7880 C.2     1  UNL1        0.0480
     11  N         22.3850  -22.7510   -9.2240 N.pl3   1  UNL1       -0.2810
     12  C         21.3530  -21.8650   -8.6440 C.3     1  UNL1        0.0960
     13  C         20.5440  -22.7880   -7.7360 C.3     1  UNL1        0.0160
     14  C         20.5190  -24.0790   -8.5350 C.3     1  UNL1        0.0160
     15  C         21.9310  -24.1540   -9.1130 C.3     1  UNL1        0.0960
     16  C         23.8180  -21.1700  -14.5200 C.2     1  UNL1        0.2490
     17  N         24.3630  -19.9240  -14.6890 N.am    1  UNL1       -0.3660
     18  H         24.7310  -19.7390  -15.6140 H       1  UNL1        0.1590
     19  H         24.7960  -19.4410  -13.9120 H       1  UNL1        0.1590
     20  O         23.6560  -21.9230  -15.4730 O.2     1  UNL1       -0.2680
     21  C         18.1240  -21.9790  -10.6680 C.2     1  UNL1        0.0680
     22  C         16.8880  -21.2890  -10.6710 C.2     1  UNL1        0.1570
     23  N         15.9550  -21.8820   -9.9210 N.2     1  UNL1       -0.1840
     24  N         16.5900  -22.9610   -9.4230 N.pl3   1  UNL1       -0.2760
     25  C         17.8850  -23.0750   -9.8560 C.2     1  UNL1        0.1310
     26  C         15.8770  -23.8730   -8.5330 C.3     1  UNL1        0.1900
     27  C         16.3470  -23.7340   -7.1020 C.2     1  UNL1       -0.0170
     28  C         17.4610  -24.4920   -6.6860 C.2     1  UNL1        0.0100
     29  C         17.9470  -24.3950   -5.3830 C.2     1  UNL1        0.0010
     30  C         17.3380  -23.5300   -4.4740 C.2     1  UNL1        0.0020
     31  C         16.2380  -22.7680   -4.8670 C.2     1  UNL1        0.0240
     32  C         15.7420  -22.8700   -6.1720 C.2     1  UNL1        0.0420
     33 CL         14.3710  -21.8950   -6.5710 Cl      1  UNL1       -0.0840
@<TRIPOS>BOND
     1    18    17    1
     2    20    16    2
     3    17    16   am
     4    17    19    1
     5    16     9    1
     6     9    10    1
     7     9     8    2
     8    10     5    2
     9     3     2    2
    10     8     7    1
    11     5     1    1
    12     5     6    1
    13     2     1   am
    14     2    21    1
    15     1     4    1
    16     7     6    2
    17    22    21    1
    18    22    23    2
    19    21    25    2
    20     6    11    1
    21    23    24    1
    22    25    24    1
    23    24    26    1
    24    11    15    1
    25    11    12    1
    26    15    14    1
    27    12    13    1
    28    14    13    1
    29    26    27    1
    30    27    28    2
    31    27    32    1
    32    28    29    1
    33    33    32    1
    34    32    31    2
    35    29    30    2
    36    31    30    1
