@<TRIPOS>MOLECULE
16395_out_ligand_01.pdbqt
 30 33 0 0 0
SMALL
GASTEIGER

@<TRIPOS>ATOM
      1  N         21.4410  -22.0340  -10.8750 N.am    1  UNL1       -0.3230
      2  C         20.6420  -22.9080  -10.1680 C.2     1  UNL1        0.2560
      3  O         20.9660  -23.9190   -9.5620 O.2     1  UNL1       -0.2670
      4  H         20.9720  -21.2520  -11.3190 H       1  UNL1        0.1690
      5  C         22.8360  -22.1100  -11.0580 C.2     1  UNL1        0.0350
      6  C         23.7690  -21.6050  -10.1510 C.2     1  UNL1        0.0290
      7  C         25.1400  -21.7330  -10.3960 C.2     1  UNL1        0.0030
      8  C         25.5930  -22.3590  -11.5570 C.2     1  UNL1        0.0170
      9  C         24.6690  -22.8490  -12.4840 C.2     1  UNL1        0.0340
     10  C         23.2950  -22.7350  -12.2230 C.2     1  UNL1        0.0460
     11  C         25.0880  -23.5230  -13.7440 C.2     1  UNL1        0.2520
     12  O         25.4780  -24.6860  -13.7120 O.2     1  UNL1       -0.2680
     13  N         24.9710  -22.7800  -14.9040 N.am    1  UNL1       -0.3520
     14  H         24.4910  -21.8910  -14.8760 H       1  UNL1        0.1630
     15  C         25.2760  -23.3310  -16.1870 C.3     1  UNL1        0.0840
     16  C         25.2080  -22.4790  -17.4250 C.3     1  UNL1        0.0270
     17  C         24.1860  -23.5540  -17.1990 C.3     1  UNL1        0.0270
     18  C         19.2150  -22.5210  -10.1840 C.2     1  UNL1        0.0380
     19  C         18.7540  -21.8390  -11.3170 C.2     1  UNL1        0.0170
     20  C         17.4270  -21.4180  -11.3800 C.2     1  UNL1        0.0010
     21  C         16.5670  -21.6790  -10.3140 C.2     1  UNL1        0.0010
     22  C         17.0290  -22.3660   -9.1880 C.2     1  UNL1        0.0080
     23  C         18.3620  -22.8020   -9.1020 C.2     1  UNL1       -0.0380
     24  C         18.8170  -23.5690   -7.8770 C.3     1  UNL1        0.0780
     25  C         18.6840  -22.7920   -6.5870 C.2     1  UNL1       -0.0540
     26  C         19.3570  -21.5740   -6.4130 C.2     1  UNL1        0.0070
     27  C         19.2270  -20.8570   -5.2210 C.2     1  UNL1        0.0010
     28  C         18.4240  -21.3500   -4.1930 C.2     1  UNL1        0.0000
     29  C         17.7510  -22.5590   -4.3560 C.2     1  UNL1        0.0010
     30  C         17.8790  -23.2770   -5.5460 C.2     1  UNL1        0.0070
@<TRIPOS>BOND
     1    16    17    1
     2    16    15    1
     3    17    15    1
     4    15    13    1
     5    13    14    1
     6    13    11   am
     7    11    12    2
     8    11     9    1
     9     9    10    1
    10     9     8    2
    11    10     5    2
    12     8     7    1
    13    20    19    1
    14    20    21    2
    15     4     1    1
    16    19    18    2
    17     5     1    1
    18     5     6    1
    19     1     2   am
    20     7     6    2
    21    21    22    1
    22    18     2    1
    23    18    23    1
    24     2     3    2
    25    22    23    2
    26    23    24    1
    27    24    25    1
    28    25    26    2
    29    25    30    1
    30    26    27    1
    31    30    29    2
    32    27    28    2
    33    29    28    1
