@<TRIPOS>MOLECULE
16414_out_ligand_01.pdbqt
 36 39 0 0 0
SMALL
GASTEIGER

@<TRIPOS>ATOM
      1  C         20.3050  -22.4470  -10.5200 C.2     1  UNL1        0.0320
      2  C         20.8100  -21.9160  -11.7130 C.2     1  UNL1        0.0190
      3  C         22.1450  -22.1220  -12.0680 C.2     1  UNL1        0.0310
      4  C         22.9790  -22.8600  -11.2310 C.2     1  UNL1        0.0420
      5  C         22.4840  -23.4000  -10.0470 C.2     1  UNL1        0.0310
      6  C         21.1460  -23.1980   -9.6930 C.2     1  UNL1        0.0190
      7  N         24.3210  -23.1020  -11.6260 N.pl3   1  UNL1       -0.2810
      8  H         24.4750  -23.4900  -12.5570 H       1  UNL1        0.1790
      9  S         25.4700  -21.9010  -11.3000 S.O2    1  UNL1        0.2630
     10  O         26.7400  -22.5190  -10.9910 O.2     1  UNL1       -0.2000
     11  O         24.8400  -20.9920  -10.3630 O.2     1  UNL1       -0.2000
     12  C         25.6040  -21.0510  -12.8550 C.2     1  UNL1        0.0820
     13  C         25.1090  -21.6730  -14.0300 C.2     1  UNL1        0.0280
     14  C         25.1810  -21.0240  -15.2690 C.2     1  UNL1        0.0330
     15  C         25.7470  -19.7710  -15.2740 C.ar    1  UNL1        0.0630
     16  N         25.9680  -18.9000  -16.3330 N.ar    1  UNL1       -0.3070
     17  C         26.2210  -19.1600  -14.1100 C.ar    1  UNL1        0.0640
     18  C         26.5930  -17.7400  -15.8400 C.ar    1  UNL1        0.3250
     19  H         25.7670  -19.0390  -17.3080 H       1  UNL1        0.1700
     20  O         26.9500  -16.7770  -16.4950 O.2     1  UNL1       -0.2470
     21  N         26.7320  -17.9160  -14.4550 N.ar    1  UNL1       -0.3060
     22  H         27.1560  -17.2370  -13.8430 H       1  UNL1        0.1700
     23  C         26.1610  -19.7640  -12.8790 C.2     1  UNL1        0.0570
     24  C         18.8670  -22.2160  -10.1980 C.2     1  UNL1        0.2510
     25  N         18.2610  -23.1420   -9.3740 N.am    1  UNL1       -0.3530
     26  H         18.8170  -23.8360   -8.8970 H       1  UNL1        0.1630
     27  O         18.2990  -21.2230  -10.6410 O.2     1  UNL1       -0.2680
     28  C         16.8870  -22.9940   -8.9390 C.3     1  UNL1        0.1610
     29  C         16.6980  -23.1080   -7.4390 C.2     1  UNL1       -0.0370
     30  C         17.5850  -23.8090   -6.6080 C.2     1  UNL1        0.0090
     31  C         17.3750  -23.8680   -5.2240 C.2     1  UNL1        0.0100
     32  C         16.2740  -23.2220   -4.6380 C.2     1  UNL1       -0.0230
     33  C         16.0780  -23.2470   -3.1530 C.3     1  UNL1        0.0510
     34  C         15.4100  -22.4950   -5.4590 C.2     1  UNL1        0.1220
     35  C         15.6120  -22.4360   -6.8370 C.2     1  UNL1        0.0510
     36  F         14.3750  -21.8210   -4.9230 F       1  UNL1       -0.2060
@<TRIPOS>BOND
     1    19    16    1
     2    20    18    2
     3    16    18   ar
     4    16    15   ar
     5    18    21   ar
     6    15    14    2
     7    15    17   ar
     8    14    13    1
     9    21    17   ar
    10    21    22    1
    11    17    23    2
    12    13    12    2
    13    23    12    1
    14    12     9    1
    15     8     7    1
    16     3     2    1
    17     3     4    2
    18     2     1    2
    19     7     9    1
    20     7     4    1
    21     9    10    2
    22     9    11    2
    23     4     5    1
    24    27    24    2
    25     1    24    1
    26     1     6    1
    27    24    25   am
    28     5     6    2
    29    25    28    1
    30    25    26    1
    31    28    29    1
    32    29    35    2
    33    29    30    1
    34    35    34    1
    35    30    31    2
    36    34    36    1
    37    34    32    2
    38    31    32    1
    39    32    33    1
