@<TRIPOS>MOLECULE
16416_out_ligand_01.pdbqt
 31 33 0 0 0
SMALL
GASTEIGER

@<TRIPOS>ATOM
      1  C         18.2970  -23.6980   -8.2580 C.2     1  UNL1        0.0750
      2  C         18.0900  -22.7980   -9.3100 C.2     1  UNL1        0.0260
      3  C         19.1710  -22.3920  -10.0950 C.2     1  UNL1        0.0180
      4  C         20.4580  -22.8780   -9.8180 C.2     1  UNL1        0.0320
      5  C         20.6510  -23.7870   -8.7670 C.2     1  UNL1        0.0180
      6  C         19.5730  -24.1930   -7.9770 C.2     1  UNL1        0.0260
      7  C         21.6400  -22.4840  -10.6320 C.2     1  UNL1        0.2520
      8  O         21.7440  -21.3340  -11.0420 O.2     1  UNL1       -0.2680
      9  N         22.5610  -23.4750  -10.8990 N.am    1  UNL1       -0.3520
     10  H         22.3850  -24.4210  -10.5850 H       1  UNL1        0.1630
     11  C         23.7800  -23.2030  -11.6570 C.3     1  UNL1        0.0870
     12  C         23.5060  -22.1460  -12.7380 C.3     1  UNL1        0.0450
     13  C         24.7770  -21.4160  -13.1470 C.3     1  UNL1        0.1270
     14  N         25.4160  -20.7580  -12.0070 N.am    1  UNL1       -0.3520
     15  C         26.2310  -19.6380  -12.1100 C.2     1  UNL1        0.2150
     16  C         25.1480  -21.3050  -10.6790 C.3     1  UNL1        0.1270
     17  C         26.5490  -19.1460  -13.5010 C.3     1  UNL1        0.1170
     18  O         26.6820  -19.0530  -11.1260 O.2     1  UNL1       -0.2740
     19  C         24.9370  -22.8130  -10.7270 C.3     1  UNL1        0.0450
     20  S         16.9000  -24.2010   -7.2720 S.O2    1  UNL1        0.2480
     21  O         15.8790  -24.7050   -8.1680 O.2     1  UNL1       -0.2050
     22  O         17.4390  -25.0170   -6.2040 O.2     1  UNL1       -0.2050
     23  N         16.3560  -22.6970   -6.6360 N.pl3   1  UNL1       -0.1720
     24  C         14.8800  -22.5980   -6.4300 C.3     1  UNL1        0.1090
     25  C         14.4080  -23.6970   -5.4880 C.3     1  UNL1        0.0220
     26  C         17.1520  -22.2420   -5.5200 C.2     1  UNL1        0.0250
     27  C         16.8130  -22.5310   -4.1960 C.2     1  UNL1        0.0240
     28  C         17.6040  -22.0450   -3.1530 C.2     1  UNL1        0.0020
     29  C         18.7290  -21.2690   -3.4330 C.2     1  UNL1        0.0000
     30  C         19.0650  -20.9770   -4.7540 C.2     1  UNL1        0.0020
     31  C         18.2770  -21.4620   -5.7980 C.2     1  UNL1        0.0240
@<TRIPOS>BOND
     1    17    15    1
     2    13    12    1
     3    13    14    1
     4    12    11    1
     5    15    14   am
     6    15    18    2
     7    14    16    1
     8    11     9    1
     9    11    19    1
    10     8     7    2
    11     9     7   am
    12     9    10    1
    13    19    16    1
    14     7     4    1
    15     3     4    2
    16     3     2    1
    17     4     5    1
    18     2     1    2
    19     5     6    2
    20     1     6    1
    21     1    20    1
    22    21    20    2
    23    20    23    1
    24    20    22    2
    25    23    24    1
    26    23    26    1
    27    24    25    1
    28    31    26    2
    29    31    30    1
    30    26    27    1
    31    30    29    2
    32    27    28    2
    33    29    28    1
