@<TRIPOS>MOLECULE
16411_out_ligand_01.pdbqt
 29 32 0 0 0
SMALL
GASTEIGER

@<TRIPOS>ATOM
      1  O         20.7610  -24.2080   -8.3940 O.2     1  UNL1       -0.2680
      2  C         20.5680  -23.0570   -8.7660 C.2     1  UNL1        0.2520
      3  N         19.8250  -22.1420   -8.0490 N.am    1  UNL1       -0.3480
      4  H         19.7290  -21.1950   -8.3810 H       1  UNL1        0.1630
      5  C         21.1240  -22.5880  -10.0640 C.2     1  UNL1        0.0320
      6  C         20.3110  -21.7940  -10.8830 C.2     1  UNL1        0.0170
      7  C         20.7870  -21.3270  -12.1090 C.2     1  UNL1        0.0090
      8  C         22.0790  -21.6580  -12.5440 C.2     1  UNL1       -0.0480
      9  C         22.8850  -22.4630  -11.7260 C.2     1  UNL1        0.0090
     10  C         22.4100  -22.9320  -10.4960 C.2     1  UNL1        0.0170
     11  C         22.6000  -21.1390  -13.8620 C.3     1  UNL1        0.1210
     12  S         24.4160  -21.2130  -13.9240 S.3     1  UNL1       -0.0860
     13  C         24.6270  -22.4150  -15.1330 C.2     1  UNL1        0.1890
     14  N         25.2690  -23.5540  -15.0580 N.2     1  UNL1       -0.1230
     15  N         25.1570  -24.1690  -16.2880 N.2     1  UNL1       -0.1430
     16  C         24.4510  -23.3780  -17.0660 C.2     1  UNL1        0.2330
     17  N         24.0970  -22.2590  -16.3750 N.pl3   1  UNL1       -0.3270
     18  H         23.5560  -21.4730  -16.7010 H       1  UNL1        0.1680
     19  C         19.3240  -22.4450   -6.7170 C.3     1  UNL1        0.1180
     20  C         19.4580  -21.1860   -5.8370 C.3     1  UNL1        0.0300
     21  C         18.5980  -21.1630   -4.5680 C.3     1  UNL1        0.0070
     22  C         17.8740  -22.4710   -4.2750 C.3     1  UNL1        0.0390
     23  C         17.1850  -22.9790   -5.5150 C.2     1  UNL1       -0.0500
     24  C         15.8870  -23.5060   -5.4540 C.2     1  UNL1        0.0110
     25  C         17.9000  -22.9730   -6.7330 C.2     1  UNL1       -0.0260
     26  C         15.2940  -24.0290   -6.6000 C.2     1  UNL1        0.0430
     27  C         16.0060  -24.0460   -7.7930 C.2     1  UNL1        0.1170
     28  F         15.4430  -24.5710   -8.8890 F       1  UNL1       -0.2060
     29  C         17.3000  -23.5390   -7.8670 C.2     1  UNL1        0.0520
@<TRIPOS>BOND
     1    16    17    1
     2    16    15    2
     3    18    17    1
     4    17    13    1
     5    15    14    1
     6    13    14    2
     7    13    12    1
     8    12    11    1
     9    11     8    1
    10     8     7    2
    11     8     9    1
    12     7     6    1
    13     9    10    2
    14     6     5    2
    15    10     5    1
    16     5     2    1
    17    28    27    1
    18     2     1    2
    19     2     3   am
    20     4     3    1
    21     3    19    1
    22    29    27    2
    23    29    25    1
    24    27    26    1
    25    25    19    1
    26    25    23    2
    27    19    20    1
    28    26    24    2
    29    20    21    1
    30    23    24    1
    31    23    22    1
    32    21    22    1
