@<TRIPOS>MOLECULE
16415_out_ligand_01.pdbqt
 35 37 0 0 0
SMALL
GASTEIGER

@<TRIPOS>ATOM
      1  C         18.9990  -22.4070  -10.4140 C.2     1  UNL1        0.0330
      2  C         18.2660  -21.5700  -11.2690 C.2     1  UNL1        0.0170
      3  C         16.9150  -21.3210  -11.0160 C.2     1  UNL1        0.0030
      4  C         16.2880  -21.9160   -9.9220 C.2     1  UNL1        0.0250
      5  C         17.0140  -22.7760   -9.0930 C.2     1  UNL1        0.0800
      6  C         18.3710  -23.0170   -9.3250 C.2     1  UNL1        0.0420
      7  C         20.4390  -22.7000  -10.6580 C.2     1  UNL1        0.2560
      8  N         21.0260  -21.9390  -11.6520 N.am    1  UNL1       -0.3230
      9  H         20.4730  -21.1870  -12.0430 H       1  UNL1        0.1690
     10  O         20.9770  -23.5470   -9.9560 O.2     1  UNL1       -0.2670
     11  C         22.3520  -22.0280  -12.1240 C.2     1  UNL1        0.0350
     12  C         23.3650  -22.7380  -11.4770 C.2     1  UNL1        0.0300
     13  C         24.6570  -22.7830  -12.0160 C.2     1  UNL1        0.0130
     14  C         24.9510  -22.1270  -13.2130 C.2     1  UNL1       -0.0360
     15  C         23.9410  -21.4100  -13.8600 C.2     1  UNL1        0.0130
     16  C         22.6510  -21.3650  -13.3210 C.2     1  UNL1        0.0300
     17  C         26.3130  -22.1700  -13.7480 C.2     1  UNL1        0.0170
     18  C         26.8180  -23.0680  -14.6080 C.2     1  UNL1        0.0830
     19  C         26.1630  -24.2570  -15.1900 C.2     1  UNL1        0.2820
     20  O         25.9510  -25.2630  -14.5290 O.2     1  UNL1       -0.2600
     21  O         25.7880  -24.0480  -16.4720 O.3     1  UNL1       -0.3190
     22  C         24.4380  -23.6110  -16.6700 C.3     1  UNL1        0.1740
     23  C         24.2680  -23.0560  -18.0710 C.3     1  UNL1        0.0340
     24  S         16.2220  -23.5410   -7.6950 S.O2    1  UNL1        0.2630
     25  O         15.4080  -22.5300   -7.0560 O.2     1  UNL1       -0.2000
     26  O         15.6450  -24.7910   -8.1440 O.2     1  UNL1       -0.2000
     27  N         17.5100  -23.8600   -6.6470 N.pl3   1  UNL1       -0.2790
     28  H         17.4280  -24.7970   -6.2450 H       1  UNL1        0.1790
     29  C         17.9270  -22.8330   -5.7380 C.2     1  UNL1        0.0640
     30  C         18.8320  -21.8550   -6.1580 C.2     1  UNL1        0.0320
     31  C         19.2190  -20.8350   -5.2870 C.2     1  UNL1        0.0020
     32  C         18.7060  -20.7890   -3.9900 C.2     1  UNL1        0.0020
     33  C         17.8090  -21.7670   -3.5590 C.2     1  UNL1        0.0260
     34  C         17.4220  -22.7870   -4.4300 C.2     1  UNL1        0.0610
     35 CL         16.3140  -23.9840   -3.8600 Cl      1  UNL1       -0.0820
@<TRIPOS>BOND
     1    23    22    1
     2    22    21    1
     3    21    19    1
     4    19    18    1
     5    19    20    2
     6    18    17    2
     7    15    16    1
     8    15    14    2
     9    17    14    1
    10    16    11    2
    11    14    13    1
    12    11     8    1
    13    11    12    1
    14     9     8    1
    15    13    12    2
    16     8     7   am
    17     2     3    1
    18     2     1    2
    19     3     4    2
    20     7     1    1
    21     7    10    2
    22     1     6    1
    23     4     5    1
    24     6     5    2
    25     5    24    1
    26    26    24    2
    27    24    25    2
    28    24    27    1
    29    27    28    1
    30    27    29    1
    31    30    29    2
    32    30    31    1
    33    29    34    1
    34    31    32    2
    35    34    35    1
    36    34    33    2
    37    32    33    1
