@<TRIPOS>MOLECULE
16426_out_ligand_01.pdbqt
 29 31 0 0 0
SMALL
GASTEIGER

@<TRIPOS>ATOM
      1  C         18.1600  -22.6180  -10.5790 C.3     1  UNL1        0.0320
      2  C         19.4330  -21.7790  -10.5410 C.3     1  UNL1        0.0850
      3  C         19.7690  -21.1840  -11.9330 C.3     1  UNL1        0.0650
      4  C         21.1860  -21.6170  -12.1220 C.2     1  UNL1       -0.0280
      5  C         22.0320  -21.2960  -13.1720 C.2     1  UNL1        0.0340
      6  C         23.3170  -21.8400  -13.1550 C.2     1  UNL1        0.0750
      7  C         23.7410  -22.6680  -12.1040 C.2     1  UNL1        0.0270
      8  C         22.8650  -22.9720  -11.0560 C.2     1  UNL1        0.0310
      9  C         21.5870  -22.4340  -11.0620 C.2     1  UNL1        0.0370
     10  N         20.5780  -22.6290  -10.1230 N.pl3   1  UNL1       -0.3670
     11  C         20.8720  -22.7620   -8.6860 C.3     1  UNL1        0.2260
     12  C         19.6490  -23.1960   -7.8590 C.2     1  UNL1        0.2400
     13  O         19.2420  -24.3570   -7.8880 O.2     1  UNL1       -0.2710
     14  N         19.0830  -22.1600   -7.1370 N.am    1  UNL1       -0.3260
     15  H         19.5090  -21.2550   -7.2730 H       1  UNL1        0.1690
     16  C         17.9470  -22.1990   -6.3050 C.2     1  UNL1        0.0370
     17  C         18.1700  -22.1880   -4.9160 C.2     1  UNL1        0.0320
     18  C         17.0990  -22.2310   -4.0160 C.2     1  UNL1        0.0480
     19  C         15.8020  -22.2870   -4.5050 C.2     1  UNL1        0.1540
     20  F         14.7770  -22.3310   -3.6400 F       1  UNL1       -0.2030
     21  C         15.5720  -22.2960   -5.8750 C.2     1  UNL1        0.1570
     22  F         14.3190  -22.3520   -6.3440 F       1  UNL1       -0.2030
     23  C         16.6350  -22.2550   -6.7810 C.2     1  UNL1        0.0750
     24  S         24.4220  -21.4780  -14.4930 S.O2    1  UNL1        0.2390
     25  O         23.7900  -21.8800  -15.7250 O.2     1  UNL1       -0.2060
     26  O         25.7420  -21.9170  -14.1220 O.2     1  UNL1       -0.2060
     27  N         24.4080  -19.7970  -14.4980 N.3     1  UNL1       -0.2250
     28  H         23.4780  -19.3990  -14.6050 H       1  UNL1        0.1360
     29  H         25.0590  -19.4600  -15.2090 H       1  UNL1        0.1360
@<TRIPOS>BOND
     1    25    24    2
     2    29    27    1
     3    28    27    1
     4    27    24    1
     5    24    26    2
     6    24     6    1
     7     5     6    1
     8     5     4    2
     9     6     7    2
    10     4     3    1
    11     4     9    1
    12     7     8    1
    13     3     2    1
    14     9     8    2
    15     9    10    1
    16     1     2    1
    17     2    10    1
    18    10    11    1
    19    11    12    1
    20    13    12    2
    21    12    14   am
    22    15    14    1
    23    14    16    1
    24    23    16    2
    25    23    21    1
    26    22    21    1
    27    16    17    1
    28    21    19    2
    29    17    18    2
    30    19    18    1
    31    19    20    1
