@<TRIPOS>MOLECULE
16439_out_ligand_01.pdbqt
 35 38 0 0 0
SMALL
GASTEIGER

@<TRIPOS>ATOM
      1  C         19.4970  -23.0740   -9.3770 C.2     1  UNL1        0.0320
      2  C         20.4740  -23.8920   -8.7940 C.2     1  UNL1        0.0190
      3  C         21.7540  -23.9630   -9.3470 C.2     1  UNL1        0.0310
      4  C         22.0580  -23.2190  -10.4850 C.2     1  UNL1        0.0420
      5  C         21.0880  -22.4160  -11.0840 C.2     1  UNL1        0.0310
      6  C         19.8040  -22.3440  -10.5340 C.2     1  UNL1        0.0190
      7  N         23.3490  -23.3340  -11.0670 N.pl3   1  UNL1       -0.2810
      8  H         23.7800  -24.2580  -11.0810 H       1  UNL1        0.1790
      9  S         24.4970  -22.1510  -10.6830 S.O2    1  UNL1        0.2630
     10  O         23.8910  -21.1460   -9.8360 O.2     1  UNL1       -0.2000
     11  O         25.6810  -22.8680  -10.2590 O.2     1  UNL1       -0.2000
     12  C         24.8510  -21.4290  -12.2660 C.2     1  UNL1        0.0820
     13  C         25.7900  -20.3710  -12.3440 C.2     1  UNL1        0.0280
     14  C         26.0850  -19.7690  -13.5730 C.2     1  UNL1        0.0330
     15  C         25.4160  -20.2530  -14.6730 C.ar    1  UNL1        0.0630
     16  N         25.4990  -19.8630  -16.0040 N.ar    1  UNL1       -0.3070
     17  C         24.4840  -21.2890  -14.5860 C.ar    1  UNL1        0.0640
     18  C         24.6180  -20.6500  -16.7620 C.ar    1  UNL1        0.3250
     19  H         26.0770  -19.1380  -16.3970 H       1  UNL1        0.1700
     20  O         24.4320  -20.5790  -17.9620 O.2     1  UNL1       -0.2470
     21  N         23.9970  -21.5320  -15.8650 N.ar    1  UNL1       -0.3060
     22  H         23.3110  -22.2170  -16.1410 H       1  UNL1        0.1700
     23  C         24.1690  -21.8990  -13.3980 C.2     1  UNL1        0.0570
     24  C         18.1390  -23.0410   -8.7630 C.2     1  UNL1        0.2560
     25  N         18.1260  -23.0110   -7.3810 N.am    1  UNL1       -0.3230
     26  H         19.0130  -23.1200   -6.9080 H       1  UNL1        0.1690
     27  O         17.1700  -23.0760   -9.5110 O.2     1  UNL1       -0.2670
     28  C         16.9970  -22.9370   -6.5350 C.2     1  UNL1        0.0350
     29  C         17.0420  -23.6750   -5.3450 C.2     1  UNL1        0.0360
     30  C         15.9690  -23.6580   -4.4410 C.2     1  UNL1       -0.0590
     31  C         14.8490  -22.8720   -4.7300 C.2     1  UNL1        0.0130
     32  C         16.0480  -24.4230   -3.1530 C.3     1  UNL1        0.0480
     33  C         14.7820  -22.1380   -5.9190 C.2     1  UNL1       -0.0590
     34  C         13.5900  -21.2730   -6.2130 C.3     1  UNL1        0.0480
     35  C         15.8660  -22.1680   -6.8100 C.2     1  UNL1        0.0360
@<TRIPOS>BOND
     1    20    18    2
     2    18    16   ar
     3    18    21   ar
     4    19    16    1
     5    22    21    1
     6    16    15   ar
     7    21    17   ar
     8    15    17   ar
     9    15    14    1
    10    17    23    1
    11    14    13    2
    12    23    12    2
    13    13    12    1
    14    12     9    1
    15     5     6    1
    16     5     4    2
    17     8     7    1
    18     7     9    1
    19     7     4    1
    20     9    11    2
    21     9    10    2
    22     6     1    2
    23     4     3    1
    24    27    24    2
    25     1     2    1
    26     1    24    1
    27     3     2    2
    28    24    25   am
    29    25    26    1
    30    25    28    1
    31    35    28    2
    32    35    33    1
    33    28    29    1
    34    34    33    1
    35    33    31    2
    36    29    30    2
    37    31    30    1
    38    30    32    1
