@<TRIPOS>MOLECULE
16447_out_ligand_01.pdbqt
 27 30 0 0 0
SMALL
GASTEIGER

@<TRIPOS>ATOM
      1  N         17.1860  -23.5950   -7.9360 N.3     1  UNL1        0.0960
      2  H         18.1790  -23.4050   -7.8180 H       1  UNL1        0.3170
      3  C         16.3920  -22.9630   -6.8660 C.3     1  UNL1        0.2560
      4  C         17.2720  -22.2830   -5.8120 C.2     1  UNL1        0.0110
      5  C         17.0260  -22.3380   -4.4260 C.2     1  UNL1        0.0770
      6  C         18.3810  -21.5140   -6.2280 C.2     1  UNL1        0.0540
      7  C         17.9100  -21.7550   -3.5040 C.2     1  UNL1        0.0400
      8  O         15.9470  -22.9480   -3.8420 O.2     1  UNL1       -0.3510
      9  C         19.0180  -21.0390   -3.9430 C.2     1  UNL1        0.0450
     10  C         19.2330  -20.9130   -5.3050 C.2     1  UNL1        0.1170
     11  F         20.2800  -20.2000   -5.7430 F       1  UNL1       -0.2060
     12  C         14.7140  -22.5870   -4.4610 C.3     1  UNL1        0.1750
     13  C         14.3260  -23.6330   -5.4900 C.3     1  UNL1        0.0290
     14  C         15.5030  -24.1070   -6.3390 C.3     1  UNL1        0.0420
     15  C         16.7440  -23.2150   -9.2720 C.3     1  UNL1        0.3090
     16  C         17.8430  -22.4930  -10.0150 C.2     1  UNL1       -0.0290
     17  C         17.5320  -21.5590  -11.0100 C.2     1  UNL1        0.0090
     18  C         18.5460  -20.8930  -11.6940 C.2     1  UNL1        0.0020
     19  C         19.8860  -21.1560  -11.3960 C.2     1  UNL1        0.0150
     20  C         20.2280  -22.0940  -10.4110 C.2     1  UNL1        0.0120
     21  C         19.1920  -22.7550   -9.7280 C.2     1  UNL1        0.0240
     22  C         21.6180  -22.4050  -10.0690 C.2     1  UNL1        0.1610
     23  N         22.6920  -21.7210  -10.4210 N.2     1  UNL1       -0.1300
     24  N         23.8030  -22.3400   -9.8960 N.2     1  UNL1       -0.1430
     25  C         23.3900  -23.3860   -9.2260 C.2     1  UNL1        0.2330
     26  N         22.0340  -23.4670   -9.3040 N.pl3   1  UNL1       -0.3320
     27  H         21.4500  -24.1650   -8.8720 H       1  UNL1        0.1680
@<TRIPOS>BOND
     1    18    19    2
     2    18    17    1
     3    19    20    1
     4    17    16    2
     5    23    22    2
     6    23    24    1
     7    20    22    1
     8    20    21    2
     9    22    26    1
    10    16    21    1
    11    16    15    1
    12    24    25    2
    13    26    25    1
    14    26    27    1
    15    15     1    1
    16     1     2    1
    17     1     3    1
    18     3    14    1
    19     3     4    1
    20    14    13    1
    21     6     4    2
    22     6    10    1
    23     4     5    1
    24    11    10    1
    25    13    12    1
    26    10     9    2
    27    12     8    1
    28     5     8    1
    29     5     7    2
    30     9     7    1
