@<TRIPOS>MOLECULE
16440_out_ligand_01.pdbqt
 33 36 0 0 0
SMALL
GASTEIGER

@<TRIPOS>ATOM
      1  C         20.8010  -22.5710   -7.7130 C.2     1  UNL1        0.0330
      2  C         20.9640  -21.4360   -6.9060 C.2     1  UNL1        0.0170
      3  C         19.9300  -21.0240   -6.0590 C.2     1  UNL1        0.0030
      4  C         18.7270  -21.7310   -6.0290 C.2     1  UNL1        0.0250
      5  C         18.5620  -22.8450   -6.8560 C.2     1  UNL1        0.0800
      6  C         19.5950  -23.2780   -7.6910 C.2     1  UNL1        0.0420
      7  S         17.0230  -23.7360   -6.8570 S.O2    1  UNL1        0.2630
      8  O         17.2740  -25.0250   -6.2480 O.2     1  UNL1       -0.2000
      9  O         15.9930  -22.8540   -6.3500 O.2     1  UNL1       -0.2000
     10  N         16.7550  -24.0220   -8.5010 N.pl3   1  UNL1       -0.2810
     11  H         16.8760  -25.0070   -8.7380 H       1  UNL1        0.1790
     12  C         17.1860  -23.0550   -9.4530 C.2     1  UNL1        0.0450
     13  C         16.3600  -21.9660   -9.7880 C.2     1  UNL1        0.0330
     14  C         16.7990  -20.9930  -10.6930 C.2     1  UNL1        0.0420
     15  C         18.0560  -21.1450  -11.2340 C.2     1  UNL1        0.1050
     16  C         18.8600  -22.2120  -10.9080 C.2     1  UNL1        0.1070
     17  O         18.6470  -20.3020  -12.1210 O.2     1  UNL1       -0.3230
     18  C         18.4560  -23.1870  -10.0210 C.2     1  UNL1        0.0690
     19  O         20.0590  -22.1720  -11.5500 O.2     1  UNL1       -0.3230
     20  C         19.9150  -20.9610  -12.3220 C.3     1  UNL1        0.3520
     21  C         21.8660  -23.0240   -8.6490 C.2     1  UNL1        0.2560
     22  N         22.4190  -22.0260   -9.4280 N.am    1  UNL1       -0.3230
     23  H         22.1390  -21.0750   -9.2290 H       1  UNL1        0.1690
     24  O         22.1710  -24.2100   -8.6300 O.2     1  UNL1       -0.2670
     25  C         23.4040  -22.1710  -10.4260 C.2     1  UNL1        0.0350
     26  C         23.2920  -23.0150  -11.5220 C.2     1  UNL1        0.0320
     27  C         24.3220  -23.0910  -12.4760 C.2     1  UNL1        0.0310
     28  C         25.4950  -22.3220  -12.3860 C.2     1  UNL1        0.0290
     29  C         25.5860  -21.4880  -11.2610 C.2     1  UNL1        0.0310
     30  C         24.5640  -21.4050  -10.3020 C.2     1  UNL1        0.0320
     31  N         26.5250  -22.4100  -13.3290 N.pl3   1  UNL1       -0.3900
     32  C         26.5700  -21.4250  -14.4090 C.3     1  UNL1        0.1490
     33  C         27.0930  -23.7190  -13.6460 C.3     1  UNL1        0.1490
@<TRIPOS>BOND
     1    32    31    1
     2    33    31    1
     3    31    28    1
     4    27    28    2
     5    27    26    1
     6    28    29    1
     7    20    17    1
     8    20    19    1
     9    17    15    1
    10    19    16    1
    11    26    25    2
    12    29    30    2
    13    15    16    2
    14    15    14    1
    15    16    18    1
    16    14    13    2
    17    25    30    1
    18    25    22    1
    19    18    12    2
    20    13    12    1
    21    12    10    1
    22    22    23    1
    23    22    21   am
    24    11    10    1
    25    21    24    2
    26    21     1    1
    27    10     7    1
    28     1     6    2
    29     1     2    1
    30     6     5    1
    31     2     3    2
    32     7     5    1
    33     7     9    2
    34     7     8    2
    35     5     4    2
    36     3     4    1
