@<TRIPOS>MOLECULE
16449_out_ligand_01.pdbqt
 34 37 0 0 0
SMALL
GASTEIGER

@<TRIPOS>ATOM
      1  C         20.5530  -22.5560   -7.6370 C.2     1  UNL1        0.0320
      2  C         20.3010  -23.6000   -8.5370 C.2     1  UNL1        0.0190
      3  C         21.2610  -23.9560   -9.4870 C.2     1  UNL1        0.0310
      4  C         22.4710  -23.2650   -9.5420 C.2     1  UNL1        0.0420
      5  C         22.7230  -22.2120   -8.6630 C.2     1  UNL1        0.0310
      6  C         21.7640  -21.8520   -7.7110 C.2     1  UNL1        0.0190
      7  N         23.4220  -23.6030  -10.5410 N.pl3   1  UNL1       -0.2810
      8  H         23.7920  -24.5530  -10.5390 H       1  UNL1        0.1790
      9  S         24.6530  -22.4890  -10.8700 S.O2    1  UNL1        0.2630
     10  O         24.2290  -21.1670  -10.4650 O.2     1  UNL1       -0.2000
     11  O         25.8690  -23.0750  -10.3470 O.2     1  UNL1       -0.2000
     12  C         24.7560  -22.5410  -12.6430 C.2     1  UNL1        0.0820
     13  C         25.2250  -23.7240  -13.2690 C.2     1  UNL1        0.0280
     14  C         25.3320  -23.7960  -14.6620 C.2     1  UNL1        0.0330
     15  C         24.9700  -22.6730  -15.3680 C.ar    1  UNL1        0.0630
     16  N         24.9680  -22.4500  -16.7400 N.ar    1  UNL1       -0.3070
     17  C         24.5190  -21.5090  -14.7440 C.ar    1  UNL1        0.0640
     18  C         24.5170  -21.1440  -16.9840 C.ar    1  UNL1        0.3250
     19  H         25.2430  -23.0900  -17.4670 H       1  UNL1        0.1700
     20  O         24.3910  -20.6130  -18.0720 O.2     1  UNL1       -0.2470
     21  N         24.2410  -20.5740  -15.7340 N.ar    1  UNL1       -0.3060
     22  H         23.8990  -19.6340  -15.6110 H       1  UNL1        0.1700
     23  C         24.4050  -21.4010  -13.3800 C.2     1  UNL1        0.0570
     24  C         19.4950  -22.1990   -6.6490 C.2     1  UNL1        0.2560
     25  N         18.4960  -23.1430   -6.5000 N.am    1  UNL1       -0.3230
     26  H         18.5050  -23.9310   -7.1320 H       1  UNL1        0.1690
     27  O         19.5760  -21.1120   -6.0900 O.2     1  UNL1       -0.2670
     28  C         17.3980  -23.0930   -5.6140 C.2     1  UNL1        0.0350
     29  C         17.4110  -23.6250   -4.3240 C.2     1  UNL1        0.0290
     30  C         16.2790  -23.5330   -3.5110 C.2     1  UNL1        0.0030
     31  C         15.1210  -22.9160   -3.9790 C.2     1  UNL1        0.0070
     32  C         15.0790  -22.3940   -5.2760 C.2     1  UNL1       -0.0600
     33  C         13.8480  -21.6990   -5.7760 C.3     1  UNL1        0.0480
     34  C         16.2260  -22.4770   -6.0810 C.2     1  UNL1        0.0360
@<TRIPOS>BOND
     1    20    18    2
     2    19    16    1
     3    18    16   ar
     4    18    21   ar
     5    16    15   ar
     6    21    22    1
     7    21    17   ar
     8    15    17   ar
     9    15    14    1
    10    17    23    1
    11    14    13    2
    12    23    12    2
    13    13    12    1
    14    12     9    1
    15     9     7    1
    16     9    10    2
    17     9    11    2
    18     7     8    1
    19     7     4    1
    20     4     3    2
    21     4     5    1
    22     3     2    1
    23     5     6    2
    24     2     1    2
    25     6     1    1
    26     1    24    1
    27    26    25    1
    28    24    25   am
    29    24    27    2
    30    25    28    1
    31    34    28    2
    32    34    32    1
    33    33    32    1
    34    28    29    1
    35    32    31    2
    36    29    30    2
    37    31    30    1
