@<TRIPOS>MOLECULE
16442_out_ligand_01.pdbqt
 28 31 0 0 0
SMALL
GASTEIGER

@<TRIPOS>ATOM
      1  C         18.0530  -22.6470  -11.2740 C.3     1  UNL1        0.0320
      2  C         18.9220  -21.5280  -10.6880 C.3     1  UNL1        0.0850
      3  C         19.5140  -20.6420  -11.8150 C.3     1  UNL1        0.0650
      4  C         20.8650  -21.2640  -11.9740 C.2     1  UNL1       -0.0280
      5  C         21.7720  -21.0920  -13.0080 C.2     1  UNL1        0.0340
      6  C         22.9880  -21.7720  -12.9170 C.2     1  UNL1        0.0750
      7  C         23.2740  -22.6050  -11.8220 C.2     1  UNL1        0.0270
      8  C         22.3430  -22.7510  -10.7860 C.2     1  UNL1        0.0310
      9  C         21.1340  -22.0770  -10.8650 C.2     1  UNL1        0.0370
     10  N         20.0830  -22.0580   -9.9400 N.pl3   1  UNL1       -0.3710
     11  C         19.9180  -23.1110   -8.9380 C.3     1  UNL1        0.1640
     12  C         19.3800  -22.5940   -7.6140 C.2     1  UNL1       -0.0110
     13  C         20.1020  -21.6410   -6.8640 C.2     1  UNL1        0.0140
     14  C         19.5950  -21.1510   -5.6680 C.2     1  UNL1        0.0440
     15  C         18.3600  -21.5970   -5.2280 C.2     1  UNL1        0.1290
     16  F         17.8810  -21.1140   -4.0700 F       1  UNL1       -0.2050
     17  C         17.6100  -22.5230   -5.9660 C.2     1  UNL1        0.0320
     18  C         16.3510  -22.9640   -5.5280 C.2     1  UNL1        0.0180
     19  C         18.1180  -23.0280   -7.1820 C.2     1  UNL1        0.0770
     20  C         15.6310  -23.8730   -6.2870 C.2     1  UNL1        0.0200
     21  C         16.1960  -24.3120   -7.4660 C.2     1  UNL1        0.1170
     22  N         17.4050  -23.9090   -7.9180 N.2     1  UNL1       -0.2600
     23  S         24.1710  -21.6220  -14.2240 S.O2    1  UNL1        0.2390
     24  O         23.6250  -22.1990  -15.4300 O.2     1  UNL1       -0.2060
     25  O         25.4810  -21.9670  -13.7250 O.2     1  UNL1       -0.2060
     26  N         24.1970  -19.9630  -14.4810 N.3     1  UNL1       -0.2250
     27  H         24.2890  -19.4770  -13.5890 H       1  UNL1        0.1360
     28  H         24.9240  -19.7300  -15.1570 H       1  UNL1        0.1360
@<TRIPOS>BOND
     1    24    23    2
     2    28    26    1
     3    26    23    1
     4    26    27    1
     5    23    25    2
     6    23     6    1
     7     5     6    1
     8     5     4    2
     9     6     7    2
    10     4     3    1
    11     4     9    1
    12     7     8    1
    13     3     2    1
    14     1     2    1
    15     9     8    2
    16     9    10    1
    17     2    10    1
    18    10    11    1
    19    11    12    1
    20    22    21    2
    21    22    19    1
    22    12    19    2
    23    12    13    1
    24    21    20    1
    25    19    17    1
    26    13    14    2
    27    20    18    2
    28    17    18    1
    29    17    15    2
    30    14    15    1
    31    15    16    1
