@<TRIPOS>MOLECULE
16454_out_ligand_01.pdbqt
 31 33 0 0 0
SMALL
GASTEIGER

@<TRIPOS>ATOM
      1  N         21.9330  -22.8310   -8.7500 N.am    1  UNL1       -0.3560
      2  C         21.0890  -23.9240   -8.8420 C.2     1  UNL1        0.2310
      3  O         21.5080  -25.0800   -8.8570 O.2     1  UNL1       -0.2720
      4  H         21.5510  -21.9020   -8.8500 H       1  UNL1        0.1620
      5  C         23.3690  -22.9730   -8.8250 C.3     1  UNL1        0.1610
      6  C         23.8650  -22.5780  -10.1920 C.2     1  UNL1       -0.0410
      7  C         23.5840  -23.3680  -11.3130 C.2     1  UNL1        0.0090
      8  C         24.0700  -23.0100  -12.5730 C.2     1  UNL1        0.0090
      9  C         24.8450  -21.8530  -12.7380 C.2     1  UNL1       -0.0430
     10  C         25.1350  -21.0690  -11.6130 C.2     1  UNL1        0.0090
     11  C         24.6520  -21.4310  -10.3530 C.2     1  UNL1        0.0090
     12  C         25.3690  -21.4620  -14.0950 C.3     1  UNL1        0.1950
     13  S         24.0160  -21.2530  -15.2670 S.O2    1  UNL1        0.2110
     14  O         22.8670  -20.6600  -14.6210 O.2     1  UNL1       -0.2110
     15  O         23.8890  -22.4620  -16.0530 O.2     1  UNL1       -0.2110
     16  N         24.5860  -20.1010  -16.3400 N.3     1  UNL1       -0.2290
     17  H         25.4850  -19.7330  -16.0250 H       1  UNL1        0.1360
     18  H         23.8780  -19.3850  -16.5060 H       1  UNL1        0.1360
     19  C         19.5880  -23.5520   -8.9100 C.3     1  UNL1        0.1430
     20  C         19.0130  -23.1860   -7.5380 C.2     1  UNL1       -0.0410
     21  C         19.2980  -21.9790   -6.8810 C.2     1  UNL1        0.0080
     22  C         18.7200  -21.6810   -5.6430 C.2     1  UNL1        0.0010
     23  C         17.8440  -22.5800   -5.0430 C.2     1  UNL1        0.0000
     24  C         17.5410  -23.7800   -5.6810 C.2     1  UNL1        0.0010
     25  C         18.1150  -24.0780   -6.9180 C.2     1  UNL1        0.0080
     26  C         19.3330  -22.5550  -10.0400 C.2     1  UNL1       -0.0410
     27  C         18.0450  -22.0270  -10.2330 C.2     1  UNL1        0.0080
     28  C         17.7990  -21.1100  -11.2570 C.2     1  UNL1        0.0010
     29  C         18.8350  -20.7040  -12.0940 C.2     1  UNL1        0.0000
     30  C         20.1200  -21.2070  -11.9070 C.2     1  UNL1        0.0010
     31  C         20.3700  -22.1250  -10.8850 C.2     1  UNL1        0.0080
@<TRIPOS>BOND
     1    18    16    1
     2    16    17    1
     3    16    13    1
     4    15    13    2
     5    13    14    2
     6    13    12    1
     7    12     9    1
     8     9     8    2
     9     9    10    1
    10     8     7    1
    11    29    30    2
    12    29    28    1
    13    30    31    1
    14    10    11    2
    15     7     6    2
    16    28    27    2
    17    31    26    2
    18    11     6    1
    19    27    26    1
    20     6     5    1
    21    26    19    1
    22    19     2    1
    23    19    20    1
    24     3     2    2
    25     4     1    1
    26     2     1   am
    27     5     1    1
    28    20    25    2
    29    20    21    1
    30    25    24    1
    31    21    22    2
    32    24    23    2
    33    22    23    1
