@<TRIPOS>MOLECULE
16469_out_ligand_01.pdbqt
 30 33 0 0 0
SMALL
GASTEIGER

@<TRIPOS>ATOM
      1  N         17.6320  -22.1450  -10.4350 N.am    1  UNL1       -0.3570
      2  C         18.1590  -23.0790   -9.5720 C.2     1  UNL1        0.2520
      3  O         19.0860  -23.8290   -9.8510 O.2     1  UNL1       -0.2680
      4  H         16.9070  -21.5310  -10.0850 H       1  UNL1        0.1620
      5  C         18.3220  -21.7810  -11.6580 C.3     1  UNL1        0.1270
      6  C         19.3690  -20.6820  -11.4440 C.3     1  UNL1        0.0580
      7  C         20.7820  -21.2230  -11.3700 C.2     1  UNL1       -0.0570
      8  C         21.4970  -21.4880  -12.5480 C.2     1  UNL1        0.0090
      9  C         22.8280  -21.9070  -12.4920 C.2     1  UNL1        0.0250
     10  C         23.4420  -22.0690  -11.2500 C.2     1  UNL1        0.0740
     11  C         22.7410  -21.8210  -10.0660 C.2     1  UNL1        0.0250
     12  C         21.4110  -21.4060  -10.1290 C.2     1  UNL1        0.0090
     13  S         25.1450  -22.5450  -11.1550 S.O2    1  UNL1        0.2390
     14  O         25.9170  -21.3790  -10.7930 O.2     1  UNL1       -0.2060
     15  O         25.4620  -23.3610  -12.3040 O.2     1  UNL1       -0.2060
     16  N         25.1350  -23.6020   -9.8440 N.3     1  UNL1       -0.2250
     17  H         24.1650  -23.8110   -9.6000 H       1  UNL1        0.1360
     18  H         25.6570  -23.2540   -9.0410 H       1  UNL1        0.1360
     19  C         17.4920  -23.1580   -8.2510 C.2     1  UNL1        0.0430
     20  C         16.3060  -23.9250   -8.1760 C.2     1  UNL1        0.0180
     21  C         15.5770  -24.0080   -6.9810 C.2     1  UNL1        0.0090
     22  C         16.0470  -23.3260   -5.8710 C.2     1  UNL1       -0.0460
     23  C         17.2130  -22.6070   -5.9550 C.2     1  UNL1       -0.0120
     24  C         15.4580  -23.2580   -4.4930 C.2     1  UNL1        0.0440
     25  C         17.5000  -22.0320   -4.7420 C.2     1  UNL1       -0.0460
     26  C         18.0010  -22.4860   -7.1040 C.2     1  UNL1       -0.0090
     27  C         18.6520  -21.2760   -4.5970 C.2     1  UNL1        0.0080
     28  C         16.4520  -22.3530   -3.7190 C.2     1  UNL1        0.0440
     29  C         19.5030  -21.1310   -5.7000 C.2     1  UNL1        0.0010
     30  C         19.1920  -21.7290   -6.9360 C.2     1  UNL1        0.0130
@<TRIPOS>BOND
     1     8     9    1
     2     8     7    2
     3     9    10    2
     4    15    13    2
     5     5     6    1
     6     5     1    1
     7     6     7    1
     8     7    12    1
     9    10    13    1
    10    10    11    1
    11    13    14    2
    12    13    16    1
    13     1     4    1
    14     1     2   am
    15    12    11    2
    16     3     2    2
    17    16    17    1
    18    16    18    1
    19     2    19    1
    20    19    20    2
    21    19    26    1
    22    20    21    1
    23    26    30    1
    24    26    23    2
    25    21    22    2
    26    30    29    2
    27    23    22    1
    28    23    25    1
    29    22    24    1
    30    29    27    1
    31    25    27    2
    32    25    28    1
    33    24    28    2
