@<TRIPOS>MOLECULE
16478_out_ligand_01.pdbqt
 38 43 0 0 0
SMALL
GASTEIGER

@<TRIPOS>ATOM
      1  C         20.1610  -21.4180  -11.9080 C.2     1  UNL1        0.0320
      2  C         19.8010  -22.7020  -11.4830 C.2     1  UNL1        0.0170
      3  C         18.5460  -22.9310  -10.9130 C.2     1  UNL1        0.0100
      4  C         17.6310  -21.8810  -10.7670 C.2     1  UNL1       -0.0400
      5  C         17.9850  -20.6010  -11.2160 C.2     1  UNL1        0.0100
      6  C         19.2440  -20.3680  -11.7800 C.2     1  UNL1        0.0170
      7  C         21.5120  -21.2280  -12.5110 C.2     1  UNL1        0.2510
      8  O         21.6450  -20.5490  -13.5250 O.2     1  UNL1       -0.2680
      9  N         22.5560  -21.8820  -11.8990 N.am    1  UNL1       -0.3570
     10  H         22.3600  -22.6400  -11.2510 H       1  UNL1        0.1620
     11  C         23.8890  -21.8930  -12.4590 C.3     1  UNL1        0.1230
     12  C         24.9850  -21.6320  -11.4220 C.3     1  UNL1        0.0270
     13  C         25.0500  -22.6360  -10.2680 C.3     1  UNL1        0.0800
     14  C         23.7310  -22.8650   -9.6150 C.ar    1  UNL1        0.1050
     15  N         23.0530  -21.9860   -8.9010 N.ar    1  UNL1       -0.2330
     16  C         21.9070  -22.6350   -8.5080 C.ar    1  UNL1        0.0850
     17  C         20.8370  -22.1740   -7.7300 C.2     1  UNL1        0.0340
     18  C         21.8820  -23.9350   -8.9980 C.ar    1  UNL1        0.0620
     19  C         19.7710  -23.0460   -7.4710 C.2     1  UNL1        0.0020
     20  C         19.7730  -24.3490   -7.9750 C.2     1  UNL1        0.0020
     21  C         20.8330  -24.8250   -8.7560 C.2     1  UNL1        0.0320
     22  N         23.0530  -24.0560   -9.7010 N.ar    1  UNL1       -0.3430
     23  H         23.3630  -24.8770  -10.1990 H       1  UNL1        0.1670
     24  C         16.2600  -22.1310  -10.1920 C.3     1  UNL1        0.1610
     25  N         16.3280  -22.2060   -8.7500 N.am    1  UNL1       -0.3560
     26  C         15.9690  -23.3380   -8.0550 C.2     1  UNL1        0.2260
     27  O         15.4970  -24.3290   -8.6080 O.2     1  UNL1       -0.2730
     28  H         16.8460  -21.4800   -8.2800 H       1  UNL1        0.1620
     29  C         16.2090  -23.2700   -6.5370 C.3     1  UNL1        0.0420
     30  C         17.0050  -21.9860   -6.1790 C.3     1  UNL1        0.0240
     31  C         17.2510  -21.8980   -4.6630 C.3     1  UNL1       -0.0130
     32  C         15.8980  -21.8730   -3.9340 C.3     1  UNL1        0.0090
     33  C         18.0510  -23.1300   -4.2090 C.3     1  UNL1        0.0090
     34  C         15.1050  -23.1490   -4.2550 C.3     1  UNL1       -0.0130
     35  C         15.9130  -24.3780   -3.8080 C.3     1  UNL1        0.0090
     36  C         14.8630  -23.2300   -5.7740 C.3     1  UNL1        0.0240
     37  C         17.2690  -24.4120   -4.5330 C.3     1  UNL1       -0.0130
     38  C         17.0280  -24.4920   -6.0520 C.3     1  UNL1        0.0240
@<TRIPOS>BOND
     1     8     7    2
     2     7     1    1
     3     7     9   am
     4    11     9    1
     5    11    12    1
     6     1     6    2
     7     1     2    1
     8     9    10    1
     9     6     5    1
    10     2     3    2
    11    12    13    1
    12     5     4    2
    13     3     4    1
    14     4    24    1
    15    13    14    1
    16    23    22    1
    17    24    25    1
    18    22    14   ar
    19    22    18   ar
    20    14    15   ar
    21    18    21    1
    22    18    16   ar
    23    15    16   ar
    24    21    20    2
    25    25    28    1
    26    25    26   am
    27    27    26    2
    28    16    17    1
    29    26    29    1
    30    20    19    1
    31    17    19    2
    32    29    30    1
    33    29    38    1
    34    29    36    1
    35    30    31    1
    36    38    37    1
    37    36    34    1
    38    31    33    1
    39    31    32    1
    40    37    33    1
    41    37    35    1
    42    34    32    1
    43    34    35    1
