@<TRIPOS>MOLECULE
1650_out_ligand_01.pdbqt
 34 38 0 0 0
SMALL
GASTEIGER

@<TRIPOS>ATOM
      1  C         16.0820  -23.2390   -7.6660 C.ar    1  UNL1        0.1710
      2  N         15.2330  -22.5550   -6.9300 N.ar    1  UNL1       -0.2210
      3  C         15.6610  -22.7280   -5.6430 C.ar    1  UNL1        0.1050
      4  C         15.1420  -22.2540   -4.4320 C.2     1  UNL1        0.0370
      5  C         15.8360  -22.5890   -3.2660 C.2     1  UNL1        0.0220
      6  C         16.9980  -23.3500   -3.3640 C.2     1  UNL1        0.1190
      7  N         17.5450  -23.8260   -4.5110 N.2     1  UNL1       -0.2410
      8  C         16.8170  -23.5010   -5.6000 C.ar    1  UNL1        0.1610
      9  N         17.0470  -23.8640   -6.9070 N.ar    1  UNL1       -0.3040
     10  S         16.0010  -23.3530   -9.3960 S.3     1  UNL1       -0.0870
     11  C         16.5770  -21.7100   -9.8960 C.3     1  UNL1        0.1210
     12  C         17.9030  -21.6820  -10.6190 C.2     1  UNL1       -0.0480
     13  C         18.6620  -22.8470  -10.7900 C.2     1  UNL1        0.0090
     14  C         19.9230  -22.7930  -11.3990 C.2     1  UNL1        0.0170
     15  C         20.4390  -21.5670  -11.8380 C.2     1  UNL1        0.0320
     16  C         19.6690  -20.4070  -11.7110 C.2     1  UNL1        0.0170
     17  C         18.4160  -20.4640  -11.0980 C.2     1  UNL1        0.0090
     18  C         21.7920  -21.4540  -12.4490 C.2     1  UNL1        0.2520
     19  O         21.9350  -20.9280  -13.5470 O.2     1  UNL1       -0.2680
     20  N         22.8430  -21.9170  -11.6780 N.am    1  UNL1       -0.3520
     21  H         22.6690  -22.0950  -10.6960 H       1  UNL1        0.1630
     22  C         24.2200  -21.7000  -12.0940 C.3     1  UNL1        0.0840
     23  C         24.8230  -22.9690  -12.7080 C.3     1  UNL1        0.0250
     24  C         25.7360  -23.5340  -11.6290 C.3     1  UNL1        0.0020
     25  C         26.3140  -22.2870  -10.9870 C.3     1  UNL1        0.0020
     26  C         25.1210  -21.3410  -10.9000 C.3     1  UNL1        0.0250
     27  C         18.1820  -24.6550   -7.3520 C.3     1  UNL1        0.1740
     28  C         19.4100  -23.8320   -7.6490 C.2     1  UNL1       -0.0010
     29  C         19.5360  -22.5210   -7.1640 C.2     1  UNL1        0.0120
     30  C         20.6930  -21.7740   -7.4190 C.2     1  UNL1        0.0010
     31  C         21.7390  -22.3270   -8.1570 C.2     1  UNL1        0.0030
     32  C         21.6300  -23.6270   -8.6390 C.2     1  UNL1        0.0430
     33  C         20.4760  -24.3660   -8.3820 C.2     1  UNL1        0.1240
     34  F         20.4150  -25.6220   -8.8390 F       1  UNL1       -0.2050
@<TRIPOS>BOND
     1    19    18    2
     2    23    22    1
     3    23    24    1
     4    18    15    1
     5    18    20   am
     6    22    20    1
     7    22    26    1
     8    15    16    2
     9    15    14    1
    10    16    17    1
    11    20    21    1
    12    24    25    1
    13    14    13    2
    14    17    12    2
    15    25    26    1
    16    13    12    1
    17    12    11    1
    18    11    10    1
    19    10     1    1
    20    34    33    1
    21    32    33    1
    22    32    31    2
    23    33    28    2
    24    31    30    1
    25     1     2   ar
    26     1     9   ar
    27    28    27    1
    28    28    29    1
    29    30    29    2
    30    27     9    1
    31     2     3   ar
    32     9     8   ar
    33     3     8   ar
    34     3     4    1
    35     8     7    1
    36     7     6    2
    37     4     5    2
    38     6     5    1
