@<TRIPOS>MOLECULE
16524_out_ligand_01.pdbqt
 33 36 0 0 0
SMALL
GASTEIGER

@<TRIPOS>ATOM
      1  N         18.4900  -23.2150   -9.2710 N.pl3   1  UNL1       -0.3780
      2  C         17.9080  -22.5930  -10.4700 C.3     1  UNL1        0.1230
      3  C         18.7350  -21.3820  -10.8980 C.3     1  UNL1        0.0210
      4  C         20.2030  -21.7560  -11.1070 C.3     1  UNL1        0.0150
      5  C         20.7770  -22.4050   -9.8400 C.3     1  UNL1        0.0760
      6  C         19.9140  -23.5750   -9.3440 C.3     1  UNL1        0.1350
      7  C         17.8790  -22.9820   -8.0450 C.2     1  UNL1        0.0630
      8  C         18.6190  -22.5460   -6.9340 C.2     1  UNL1        0.0330
      9  C         18.0160  -22.2780   -5.6930 C.2     1  UNL1        0.0190
     10  C         16.6410  -22.4550   -5.5200 C.2     1  UNL1        0.0340
     11  C         15.8690  -22.8910   -6.5970 C.2     1  UNL1        0.0550
     12  C         16.4950  -23.1530   -7.8250 C.2     1  UNL1        0.1300
     13  C         15.9570  -22.1810   -4.2300 C.2     1  UNL1        0.2490
     14  N         16.7350  -21.8630   -3.1530 N.am    1  UNL1       -0.3660
     15  H         17.7270  -22.0490   -3.1210 H       1  UNL1        0.1590
     16  H         16.2520  -21.8000   -2.2650 H       1  UNL1        0.1590
     17  O         14.7410  -22.2690   -4.1230 O.2     1  UNL1       -0.2680
     18  N         15.6570  -23.7060   -8.8690 N.pl3   1  UNL1       -0.1130
     19  O         15.1360  -22.9000   -9.6530 O.2     1  UNL1       -0.5320
     20  O         15.4920  -24.9340   -8.8780 O.2     1  UNL1       -0.5320
     21  C         22.2230  -22.7760   -9.9700 C.ar    1  UNL1        0.1400
     22  N         22.8790  -23.4860   -9.0700 N.ar    1  UNL1       -0.1340
     23  N         24.1710  -23.6530   -9.4960 N.ar    1  UNL1       -0.1300
     24  C         24.2930  -23.0450  -10.6530 C.ar    1  UNL1        0.1570
     25  C         25.3910  -22.8940  -11.5400 C.2     1  UNL1        0.0540
     26  N         23.0810  -22.4680  -11.0130 N.ar    1  UNL1       -0.2900
     27  C         25.2300  -22.2110  -12.6880 C.2     1  UNL1        0.0210
     28  C         23.9440  -21.6120  -13.0570 C.2     1  UNL1        0.0640
     29  C         22.9080  -21.7620  -12.2040 C.2     1  UNL1        0.1160
     30  C         23.8610  -20.8670  -14.3620 C.3     1  UNL1        0.4180
     31  F         24.0240  -21.6970  -15.4230 F       1  UNL1       -0.1660
     32  F         22.6610  -20.2550  -14.5140 F       1  UNL1       -0.1660
     33  F         24.8140  -19.9050  -14.4640 F       1  UNL1       -0.1660
@<TRIPOS>BOND
     1    31    30    1
     2    32    30    1
     3    33    30    1
     4    30    28    1
     5    28    27    1
     6    28    29    2
     7    27    25    2
     8    29    26    1
     9    25    24    1
    10     4     3    1
    11     4     5    1
    12    26    24   ar
    13    26    21   ar
    14     3     2    1
    15    24    23   ar
    16     2     1    1
    17    21     5    1
    18    21    22   ar
    19     5     6    1
    20    19    18    2
    21    23    22   ar
    22     6     1    1
    23     1     7    1
    24    20    18    2
    25    18    12    1
    26     7    12    2
    27     7     8    1
    28    12    11    1
    29     8     9    2
    30    11    10    2
    31     9    10    1
    32    10    13    1
    33    13    17    2
    34    13    14   am
    35    14    15    1
    36    14    16    1
