@<TRIPOS>MOLECULE
16529_out_ligand_01.pdbqt
 29 32 0 0 0
SMALL
GASTEIGER

@<TRIPOS>ATOM
      1  N         18.7180  -22.8860   -9.5360 N.pl3   1  UNL1       -0.3780
      2  C         17.8190  -22.3100  -10.5470 C.3     1  UNL1        0.1230
      3  C         18.4740  -21.1060  -11.2240 C.3     1  UNL1        0.0210
      4  C         19.8360  -21.4720  -11.8140 C.3     1  UNL1        0.0150
      5  C         20.7460  -22.0680  -10.7320 C.3     1  UNL1        0.0760
      6  C         20.0760  -23.2320   -9.9850 C.3     1  UNL1        0.1350
      7  C         18.4600  -22.6210   -8.1960 C.2     1  UNL1        0.0630
      8  C         19.4340  -22.0360   -7.3710 C.2     1  UNL1        0.0330
      9  C         19.1860  -21.7360   -6.0210 C.2     1  UNL1        0.0190
     10  C         17.9450  -22.0280   -5.4460 C.2     1  UNL1        0.0340
     11  C         16.9510  -22.6100   -6.2310 C.2     1  UNL1        0.0550
     12  C         17.2260  -22.9040   -7.5750 C.2     1  UNL1        0.1300
     13  C         17.6330  -21.7260   -4.0250 C.2     1  UNL1        0.2490
     14  N         18.5120  -20.9420   -3.3330 N.am    1  UNL1       -0.3660
     15  H         19.4570  -20.7730   -3.6460 H       1  UNL1        0.1590
     16  H         18.3350  -20.8540   -2.3390 H       1  UNL1        0.1590
     17  O         16.6390  -22.1880   -3.4800 O.2     1  UNL1       -0.2680
     18  N         16.1890  -23.6060   -8.3040 N.pl3   1  UNL1       -0.1130
     19  O         16.1090  -24.8320   -8.1410 O.2     1  UNL1       -0.5320
     20  O         15.4350  -22.9200   -9.0070 O.2     1  UNL1       -0.5320
     21  C         22.1090  -22.4240  -11.2410 C.ar    1  UNL1        0.1400
     22  N         22.9190  -23.2730  -10.6340 N.ar    1  UNL1       -0.1340
     23  N         24.0770  -23.3780  -11.3640 N.ar    1  UNL1       -0.1300
     24  C         23.9610  -22.5930  -12.4110 C.ar    1  UNL1        0.1570
     25  C         24.8390  -22.3100  -13.4920 C.2     1  UNL1        0.0530
     26  N         22.7250  -21.9590  -12.3910 N.ar    1  UNL1       -0.2910
     27  C         24.4510  -21.4510  -14.4550 C.2     1  UNL1        0.0050
     28  C         23.1500  -20.8040  -14.4130 C.2     1  UNL1        0.0180
     29  C         22.3200  -21.0690  -13.3890 C.2     1  UNL1        0.1000
@<TRIPOS>BOND
     1    27    28    1
     2    27    25    2
     3    28    29    2
     4    25    24    1
     5    29    26    1
     6    24    26   ar
     7    24    23   ar
     8    26    21   ar
     9     4     3    1
    10     4     5    1
    11    23    22   ar
    12    21     5    1
    13    21    22   ar
    14     3     2    1
    15     5     6    1
    16     2     1    1
    17     6     1    1
    18     1     7    1
    19    20    18    2
    20    18    19    2
    21    18    12    1
    22     7    12    2
    23     7     8    1
    24    12    11    1
    25     8     9    2
    26    11    10    2
    27     9    10    1
    28    10    13    1
    29    13    17    2
    30    13    14   am
    31    15    14    1
    32    14    16    1
