@<TRIPOS>MOLECULE
1653_out_ligand_01.pdbqt
 34 37 0 0 0
SMALL
GASTEIGER

@<TRIPOS>ATOM
      1  C         22.4670  -23.2890   -8.9940 C.2     1  UNL1       -0.0400
      2  C         21.4920  -24.2940   -9.1610 C.2     1  UNL1        0.0110
      3  C         20.2590  -24.2220   -8.5020 C.2     1  UNL1        0.0310
      4  C         20.0130  -23.1420   -7.6730 C.2     1  UNL1        0.0430
      5  C         20.9740  -22.1470   -7.4960 C.2     1  UNL1       -0.0290
      6  C         22.2010  -22.2060   -8.1420 C.2     1  UNL1        0.0180
      7  C         20.5140  -21.1090   -6.5260 C.2     1  UNL1        0.0610
      8  C         19.0700  -21.5470   -6.2520 C.2     1  UNL1        0.1370
      9  N         18.8630  -22.8480   -6.9170 N.am    1  UNL1       -0.3130
     10  C         17.7540  -23.6670   -6.7910 C.2     1  UNL1        0.2580
     11  O         17.6250  -24.7970   -7.2560 O.2     1  UNL1       -0.2670
     12  C         23.8040  -23.3970   -9.6850 C.3     1  UNL1        0.1620
     13  N         23.6990  -23.0150  -11.0760 N.am    1  UNL1       -0.3390
     14  C         24.4570  -21.9800  -11.5840 C.2     1  UNL1        0.3210
     15  N         24.2700  -21.8620  -12.9400 N.am    1  UNL1       -0.3060
     16  O         25.1720  -21.2770  -10.8820 O.2     1  UNL1       -0.2470
     17  H         23.5180  -22.4010  -13.3500 H       1  UNL1        0.1710
     18  H         23.4950  -23.7630  -11.7190 H       1  UNL1        0.1640
     19  C         24.8940  -20.9730  -13.8410 C.2     1  UNL1        0.0700
     20  C         25.6930  -19.9040  -13.4390 C.2     1  UNL1        0.0350
     21  C         26.2810  -19.0730  -14.3940 C.2     1  UNL1        0.0390
     22  C         26.0840  -19.2980  -15.7570 C.2     1  UNL1        0.0700
     23  C         25.2880  -20.3680  -16.1700 C.2     1  UNL1        0.0750
     24  C         24.6910  -21.2080  -15.2190 C.2     1  UNL1        0.0970
     25  O         26.7210  -18.4060  -16.5760 O.2     1  UNL1       -0.3560
     26  C         26.6230  -17.0270  -16.2390 C.3     1  UNL1        0.2100
     27  O         23.8920  -22.2910  -15.5160 O.2     1  UNL1       -0.3540
     28  C         24.4260  -23.2720  -16.3970 C.3     1  UNL1        0.2100
     29  C         16.6240  -23.1450   -5.9950 C.2     1  UNL1        0.0320
     30  C         16.6300  -23.3280   -4.6100 C.2     1  UNL1        0.0170
     31  C         15.5650  -22.8460   -3.8490 C.2     1  UNL1        0.0010
     32  C         14.4970  -22.1980   -4.4740 C.2     1  UNL1        0.0000
     33  C         14.4870  -22.0350   -5.8610 C.2     1  UNL1        0.0010
     34  C         15.5480  -22.5140   -6.6280 C.2     1  UNL1        0.0170
@<TRIPOS>BOND
     1    25    26    1
     2    25    22    1
     3    28    27    1
     4    23    22    2
     5    23    24    1
     6    22    21    1
     7    27    24    1
     8    24    19    2
     9    21    20    2
    10    19    20    1
    11    19    15    1
    12    17    15    1
    13    15    14   am
    14    18    13    1
    15    14    13   am
    16    14    16    2
    17    13    12    1
    18    12     1    1
    19     2     1    2
    20     2     3    1
    21     1     6    1
    22     3     4    2
    23     6     5    2
    24     4     5    1
    25     4     9    1
    26     5     7    1
    27    11    10    2
    28     9    10   am
    29     9     8    1
    30    10    29    1
    31    34    29    2
    32    34    33    1
    33     7     8    2
    34    29    30    1
    35    33    32    2
    36    30    31    2
    37    32    31    1
