@<TRIPOS>MOLECULE
16545_out_ligand_01.pdbqt
 30 34 0 0 0
SMALL
GASTEIGER

@<TRIPOS>ATOM
      1  C         24.2400  -22.7110  -11.9650 C.2     1  UNL1        0.1240
      2  N         24.0920  -22.1580  -13.1870 N.2     1  UNL1       -0.2290
      3  C         22.9050  -21.6370  -13.5180 C.2     1  UNL1        0.2350
      4  N         21.8030  -21.5790  -12.7680 N.2     1  UNL1       -0.2400
      5  C         21.9280  -22.1490  -11.5390 C.ar    1  UNL1        0.0920
      6  C         23.1230  -22.7250  -11.1160 C.ar    1  UNL1        0.0770
      7  S         22.9760  -23.3650   -9.5300 S.2     1  UNL1       -0.0640
      8  C         21.3590  -22.8610   -9.4040 C.ar    1  UNL1        0.1120
      9  N         20.6870  -23.0930   -8.2600 N.ar    1  UNL1       -0.2390
     10  C         19.4150  -22.6390   -8.2330 C.ar    1  UNL1        0.0750
     11  C         18.7950  -22.0030   -9.3180 C.ar    1  UNL1       -0.0210
     12  C         19.5330  -21.7810  -10.5050 C.ar    1  UNL1       -0.0340
     13  C         20.8840  -22.2230  -10.5440 C.ar    1  UNL1        0.0370
     14  C         18.8270  -21.0440  -11.6200 C.3     1  UNL1        0.0400
     15  C         17.4180  -21.5930  -11.8610 C.3     1  UNL1        0.0050
     16  C         16.6400  -21.9180  -10.5820 C.3     1  UNL1        0.0050
     17  C         17.3630  -21.5160   -9.2960 C.3     1  UNL1        0.0410
     18  N         25.4630  -23.2450  -11.5780 N.pl3   1  UNL1       -0.2740
     19  H         25.3970  -23.7630  -10.6980 H       1  UNL1        0.1290
     20  C         26.5980  -22.3260  -11.5910 C.3     1  UNL1        0.1240
     21  C         26.1540  -20.9560  -11.0190 C.3     1  UNL1        0.2860
     22  N         26.3800  -19.8190  -11.9540 N.3     1  UNL1        0.0810
     23  C         27.1120  -18.7470  -11.2670 C.3     1  UNL1        0.3090
     24  C         27.1210  -20.2500  -13.1440 C.3     1  UNL1        0.3090
     25  C         18.7410  -22.8890   -6.9510 C.2     1  UNL1       -0.0070
     26  C         18.7120  -21.8970   -5.9570 C.2     1  UNL1        0.0140
     27  C         18.0760  -22.1260   -4.7340 C.2     1  UNL1        0.0010
     28  C         17.4500  -23.3460   -4.4920 C.2     1  UNL1        0.0000
     29  C         17.4550  -24.3370   -5.4720 C.2     1  UNL1        0.0010
     30  C         18.0940  -24.1090   -6.6930 C.2     1  UNL1        0.0140
@<TRIPOS>BOND
     1     3     2    1
     2     3     4    2
     3     2     1    2
     4    24    22    1
     5     4     5    1
     6     1    18    1
     7     1     6    1
     8    22    23    1
     9    22    21    1
    10    15    14    1
    11    15    16    1
    12    14    12    1
    13    20    18    1
    14    20    21    1
    15    18    19    1
    16     5     6   ar
    17     5    13   ar
    18     6     7   ar
    19    16    17    1
    20    13    12   ar
    21    13     8   ar
    22    12    11   ar
    23     7     8   ar
    24     8     9   ar
    25    11    17    1
    26    11    10   ar
    27     9    10   ar
    28    10    25    1
    29    25    30    2
    30    25    26    1
    31    30    29    1
    32    26    27    2
    33    29    28    2
    34    27    28    1
