@<TRIPOS>MOLECULE
16547_out_ligand_01.pdbqt
 41 44 0 0 0
SMALL
GASTEIGER

@<TRIPOS>ATOM
      1  N         22.4530  -22.8710  -10.0630 N.pl3   1  UNL1       -0.3050
      2  C         23.7650  -23.3120   -9.7420 C.2     1  UNL1        0.1030
      3  C         24.7730  -23.1610  -10.6540 C.2     1  UNL1        0.0910
      4  C         26.0810  -23.6460  -10.3280 C.1     1  UNL1        0.1000
      5  N         27.1210  -24.0820  -10.0560 N.1     1  UNL1       -0.1920
      6  C         24.5710  -22.4980  -12.0510 C.3     1  UNL1        0.2200
      7  C         23.1180  -22.0540  -12.2220 C.2     1  UNL1       -0.0250
      8  C         22.1920  -22.2570  -11.2760 C.2     1  UNL1        0.0220
      9  C         20.8520  -21.7220  -11.7010 C.3     1  UNL1        0.0580
     10  C         21.2170  -20.8300  -12.8860 C.3     1  UNL1        0.0100
     11  C         22.5410  -21.3760  -13.4230 C.3     1  UNL1        0.0380
     12  N         24.0110  -23.9020   -8.5070 N.pl3   1  UNL1       -0.2870
     13  H         23.2810  -23.8430   -7.8000 H       1  UNL1        0.1250
     14  H         24.9300  -23.6740   -8.1310 H       1  UNL1        0.1250
     15  C         25.5190  -21.3130  -12.2080 C.3     1  UNL1        0.4120
     16  F         25.5910  -20.5980  -11.0600 F       1  UNL1       -0.1690
     17  F         25.1270  -20.4530  -13.1750 F       1  UNL1       -0.1690
     18  F         26.7790  -21.6790  -12.5140 F       1  UNL1       -0.1690
     19  C         24.9530  -23.4700  -13.1620 C.3     1  UNL1        0.4120
     20  F         26.2030  -23.9570  -13.0370 F       1  UNL1       -0.1690
     21  F         24.8740  -22.9100  -14.3910 F       1  UNL1       -0.1690
     22  F         24.1210  -24.5410  -13.1770 F       1  UNL1       -0.1690
     23  C         21.3790  -23.0560   -9.1380 C.2     1  UNL1        0.0400
     24  C         20.5590  -24.1960   -9.2130 C.2     1  UNL1        0.0310
     25  C         19.5240  -24.3890   -8.2930 C.2     1  UNL1        0.0270
     26  C         19.3030  -23.4260   -7.3040 C.2     1  UNL1        0.0750
     27  C         20.0940  -22.2770   -7.2270 C.2     1  UNL1        0.0270
     28  C         21.1370  -22.1000   -8.1380 C.2     1  UNL1        0.0310
     29  S         17.9790  -23.6320   -6.1290 S.O2    1  UNL1        0.2480
     30  O         17.5080  -24.9890   -6.2830 O.2     1  UNL1       -0.2050
     31  O         18.4830  -23.1400   -4.8590 O.2     1  UNL1       -0.2050
     32  N         16.8630  -22.4770   -6.6400 N.pl3   1  UNL1       -0.1480
     33  H         16.0040  -22.6590   -6.1300 H       1  UNL1        0.1490
     34  C         16.5470  -22.6360   -7.9910 C.cat   1  UNL1        0.2160
     35  N         15.8080  -23.7140   -8.2600 N.2     1  UNL1       -0.2230
     36  C         15.5320  -23.9120   -9.5650 C.2     1  UNL1        0.0360
     37  C         16.0030  -23.0650  -10.5580 C.2     1  UNL1        0.0530
     38  C         14.7220  -25.1230   -9.9240 C.3     1  UNL1        0.0700
     39  C         16.7540  -21.9730  -10.1490 C.2     1  UNL1        0.0360
     40  C         17.3650  -21.0490  -11.1640 C.3     1  UNL1        0.0700
     41  N         17.0110  -21.7260   -8.8500 N.2     1  UNL1       -0.2230
@<TRIPOS>BOND
     1    21    19    1
     2    11    10    1
     3    11     7    1
     4    22    19    1
     5    17    15    1
     6    19    20    1
     7    19     6    1
     8    10     9    1
     9    18    15    1
    10     7     6    1
    11     7     8    2
    12    15     6    1
    13    15    16    1
    14     6     3    1
    15     9     8    1
    16     8     1    1
    17    40    39    1
    18     3     4    1
    19     3     2    2
    20    37    39    1
    21    37    36    2
    22     4     5    3
    23    39    41    2
    24     1     2    1
    25     1    23    1
    26    38    36    1
    27     2    12    1
    28    36    35    1
    29    24    23    2
    30    24    25    1
    31    23    28    1
    32    41    34    1
    33    12    14    1
    34    12    13    1
    35    25    26    2
    36    35    34    2
    37    28    27    2
    38    34    32    1
    39    26    27    1
    40    26    29    1
    41    32    33    1
    42    32    29    1
    43    30    29    2
    44    29    31    2
