@<TRIPOS>MOLECULE
16593_out_ligand_01.pdbqt
 31 34 0 0 0
SMALL
GASTEIGER

@<TRIPOS>ATOM
      1  C         19.4090  -21.3890   -6.0130 C.2     1  UNL1       -0.0580
      2  C         20.6650  -21.0310   -6.5260 C.2     1  UNL1        0.0090
      3  C         21.2870  -21.8250   -7.4900 C.2     1  UNL1        0.0250
      4  C         20.6470  -22.9790   -7.9460 C.2     1  UNL1        0.0750
      5  C         19.3850  -23.3370   -7.4650 C.2     1  UNL1        0.0250
      6  C         18.7720  -22.5450   -6.4950 C.2     1  UNL1        0.0090
      7  S         21.4400  -24.0350   -9.1450 S.O2    1  UNL1        0.2480
      8  O         22.8520  -23.9600   -8.8410 O.2     1  UNL1       -0.2050
      9  O         20.7420  -25.3030   -9.1450 O.2     1  UNL1       -0.2050
     10  N         21.0800  -23.2340  -10.6500 N.pl3   1  UNL1       -0.1720
     11  C         22.2470  -22.4220  -11.1280 C.3     1  UNL1        0.1140
     12  C         21.8970  -21.6740  -12.4000 C.3     1  UNL1        0.0200
     13  C         20.8060  -20.6710  -12.0840 C.3     1  UNL1        0.0420
     14  C         19.6320  -21.3540  -11.4370 C.2     1  UNL1       -0.0360
     15  C         18.3730  -20.7340  -11.5440 C.2     1  UNL1        0.0090
     16  C         19.7750  -22.5640  -10.7240 C.2     1  UNL1        0.0310
     17  C         17.2370  -21.3370  -11.0170 C.2     1  UNL1        0.0010
     18  C         17.3500  -22.5720  -10.3960 C.2     1  UNL1        0.0020
     19  C         18.6020  -23.1830  -10.2690 C.2     1  UNL1        0.0250
     20  C         18.7260  -20.5240   -4.9790 C.3     1  UNL1        0.0470
     21  C         18.8650  -21.0620   -3.5580 C.3     1  UNL1        0.1070
     22  C         17.9460  -22.2440   -3.3400 C.2     1  UNL1        0.2170
     23  O         18.3720  -23.3810   -3.1540 O.2     1  UNL1       -0.2740
     24  N         16.6080  -21.9330   -3.4150 N.am    1  UNL1       -0.3590
     25  H         16.3560  -21.0720   -3.8970 H       1  UNL1        0.1620
     26  C         15.6120  -22.9830   -3.5140 C.3     1  UNL1        0.1540
     27  C         14.6510  -22.7190   -4.6810 C.3     1  UNL1        0.1390
     28  C         14.3150  -23.9750   -5.4660 C.3     1  UNL1        0.0350
     29  C         15.4040  -24.0150   -6.5080 C.3     1  UNL1        0.0290
     30  C         15.6250  -22.5500   -6.8050 C.3     1  UNL1        0.1680
     31  O         15.2970  -21.8230   -5.6130 O.3     1  UNL1       -0.3840
@<TRIPOS>BOND
     1    12    13    1
     2    12    11    1
     3    13    14    1
     4    15    14    2
     5    15    17    1
     6    14    16    1
     7    11    10    1
     8    17    18    2
     9    16    10    1
    10    16    19    2
    11    10     7    1
    12    18    19    1
    13     7     9    2
    14     7     8    2
    15     7     4    1
    16     4     3    2
    17     4     5    1
    18     3     2    1
    19     5     6    2
    20    30    29    1
    21    30    31    1
    22     2     1    2
    23    29    28    1
    24     6     1    1
    25     1    20    1
    26    31    27    1
    27    28    27    1
    28    20    21    1
    29    27    26    1
    30    25    24    1
    31    21    22    1
    32    26    24    1
    33    24    22   am
    34    22    23    2
