@<TRIPOS>MOLECULE
16607_out_ligand_01.pdbqt
 38 43 0 0 0
SMALL
GASTEIGER

@<TRIPOS>ATOM
      1  N         20.2870  -23.7300   -9.1130 N.pl3   1  UNL1       -0.3460
      2  C         21.6500  -23.8420   -9.1620 C.2     1  UNL1        0.1050
      3  C         22.1200  -23.0320  -10.1790 C.2     1  UNL1        0.0110
      4  C         20.9780  -22.3970  -10.7620 C.2     1  UNL1        0.0040
      5  C         20.8030  -21.4740  -11.8170 C.2     1  UNL1        0.0140
      6  C         19.5170  -21.0410  -12.1550 C.2     1  UNL1        0.0010
      7  C         18.4080  -21.5130  -11.4610 C.2     1  UNL1        0.0020
      8  C         18.5500  -22.4230  -10.4120 C.2     1  UNL1        0.0300
      9  C         19.8460  -22.8510  -10.0790 C.2     1  UNL1        0.0450
     10  C         23.5080  -22.8690  -10.5620 C.3     1  UNL1        0.1460
     11  N         24.1830  -21.8630  -10.0990 N.3     1  UNL1       -0.2050
     12  N         25.4890  -21.8110  -10.5280 N.pl3   1  UNL1       -0.1470
     13  H         26.1610  -21.5650   -9.8010 H       1  UNL1        0.1580
     14  C         25.8160  -20.9130  -11.5810 C.cat   1  UNL1        0.2430
     15  N         26.4220  -19.7220  -11.3050 N.2     1  UNL1       -0.1150
     16  N         26.7300  -18.8400  -12.2650 N.pl3   1  UNL1       -0.1420
     17  C         26.3990  -19.2030  -13.5260 C.ar    1  UNL1        0.1370
     18  C         25.7830  -20.4180  -13.7500 C.ar    1  UNL1        0.1630
     19  C         26.5600  -18.5540  -14.7780 C.ar    1  UNL1        0.0250
     20  N         25.4560  -21.3270  -12.8170 N.pl3   1  UNL1       -0.1960
     21  N         25.5620  -20.5320  -15.0930 N.ar    1  UNL1       -0.3380
     22  C         26.0260  -19.4090  -15.7480 C.ar    1  UNL1        0.0460
     23  H         25.1220  -21.3270  -15.5310 H       1  UNL1        0.1670
     24  C         26.0130  -19.0890  -17.1110 C.2     1  UNL1        0.0300
     25  C         26.5630  -17.8600  -17.4910 C.2     1  UNL1        0.0020
     26  C         27.1020  -16.9880  -16.5460 C.2     1  UNL1        0.0010
     27  C         27.1080  -17.3220  -15.1880 C.2     1  UNL1        0.0160
     28  C         19.4380  -24.4530   -8.1760 C.3     1  UNL1        0.2310
     29  C         18.6850  -23.5560   -7.2070 C.2     1  UNL1        0.2400
     30  O         19.2510  -22.5770   -6.7260 O.2     1  UNL1       -0.2710
     31  N         17.4050  -23.9880   -6.8940 N.am    1  UNL1       -0.3260
     32  H         17.0500  -24.7870   -7.4070 H       1  UNL1        0.1690
     33  C         16.4900  -23.3970   -5.9990 C.2     1  UNL1        0.0340
     34  C         16.5950  -23.4650   -4.6080 C.2     1  UNL1        0.0290
     35  C         15.6370  -22.8500   -3.7940 C.2     1  UNL1        0.0020
     36  C         14.5670  -22.1640   -4.3620 C.2     1  UNL1        0.0000
     37  C         14.4520  -22.0900   -5.7480 C.2     1  UNL1        0.0020
     38  C         15.4090  -22.7040   -6.5600 C.2     1  UNL1        0.0290
@<TRIPOS>BOND
     1    25    24    2
     2    25    26    1
     3    24    22    1
     4    26    27    2
     5    22    21   ar
     6    22    19   ar
     7    23    21    1
     8    27    19    1
     9    21    18   ar
    10    19    17   ar
    11    18    17   ar
    12    18    20    1
    13    17    16    1
    14    20    14    1
    15    16    15    1
    16     6     5    1
    17     6     7    2
    18     5     4    2
    19    14    15    2
    20    14    12    1
    21     7     8    1
    22     4     3    1
    23     4     9    1
    24    10     3    1
    25    10    11    1
    26    12    11    1
    27    12    13    1
    28     8     9    2
    29     3     2    2
    30     9     1    1
    31     2     1    1
    32     1    28    1
    33    28    29    1
    34    32    31    1
    35    29    31   am
    36    29    30    2
    37    31    33    1
    38    38    33    2
    39    38    37    1
    40    33    34    1
    41    37    36    2
    42    34    35    2
    43    36    35    1
