@<TRIPOS>MOLECULE
16651_out_ligand_01.pdbqt
 36 40 0 0 0
SMALL
GASTEIGER

@<TRIPOS>ATOM
      1  N         15.2680  -22.5200   -7.7020 N.1     1  UNL1       -0.1910
      2  C         16.3700  -22.5670   -8.0650 C.1     1  UNL1        0.1060
      3  C         17.7360  -22.6110   -8.4590 C.2     1  UNL1        0.1230
      4  C         18.7700  -22.4490   -7.6000 C.2     1  UNL1        0.0030
      5  C         20.1420  -22.5110   -8.0930 C.2     1  UNL1        0.0440
      6  C         20.4000  -22.7260   -9.3930 C.2     1  UNL1        0.0460
      7  N         19.3560  -22.8940  -10.2640 N.am    1  UNL1       -0.3220
      8  C         18.0310  -22.8480   -9.9050 C.2     1  UNL1        0.2670
      9  O         17.1490  -22.9950  -10.7440 O.2     1  UNL1       -0.2660
     10  H         19.5410  -23.0430  -11.2490 H       1  UNL1        0.1690
     11  C         18.5190  -22.2190   -6.1600 C.2     1  UNL1       -0.0230
     12  C         19.0320  -21.0800   -5.5250 C.2     1  UNL1        0.0120
     13  C         18.8020  -20.8720   -4.1630 C.2     1  UNL1        0.0030
     14  C         18.0630  -21.8010   -3.4300 C.2     1  UNL1        0.0240
     15  C         17.5590  -22.9360   -4.0610 C.2     1  UNL1        0.0340
     16 CL         16.6550  -24.0850   -3.1530 Cl      1  UNL1       -0.0840
     17  C         17.7840  -23.1520   -5.4200 C.2     1  UNL1        0.0360
     18  C         21.7700  -22.8030   -9.9190 C.2     1  UNL1       -0.0090
     19  C         22.0400  -22.5390  -11.2670 C.2     1  UNL1        0.0160
     20  C         23.3470  -22.6210  -11.7600 C.2     1  UNL1        0.0300
     21  C         24.4100  -22.9910  -10.9260 C.2     1  UNL1        0.0320
     22  C         24.1380  -23.2240   -9.5720 C.2     1  UNL1        0.0300
     23  C         22.8330  -23.1450   -9.0740 C.2     1  UNL1        0.0160
     24  N         25.7250  -23.0150  -11.4390 N.pl3   1  UNL1       -0.3550
     25  H         26.3740  -22.4970  -10.8510 H       1  UNL1        0.1660
     26  C         26.1360  -22.8910  -12.7970 C.2     1  UNL1        0.0460
     27  C         26.2180  -24.0090  -13.6270 C.2     1  UNL1        0.0490
     28  C         26.5490  -23.8230  -14.9550 C.2     1  UNL1        0.1190
     29  N         26.7820  -22.6180  -15.5080 N.2     1  UNL1       -0.2600
     30  C         26.6840  -21.5320  -14.7270 C.2     1  UNL1        0.0700
     31  C         26.9120  -20.2900  -15.3000 C.2     1  UNL1        0.0560
     32  C         26.3560  -21.6060  -13.3540 C.2     1  UNL1        0.0190
     33  C         26.8280  -19.1200  -14.5490 C.2     1  UNL1        0.0360
     34 CL         27.1180  -17.5980  -15.2980 Cl      1  UNL1       -0.0840
     35  C         26.5130  -19.1720  -13.1990 C.2     1  UNL1        0.0250
     36  C         26.2810  -20.4100  -12.6020 C.2     1  UNL1        0.0180
@<TRIPOS>BOND
     1    29    28    2
     2    29    30    1
     3    31    30    2
     4    31    33    1
     5    34    33    1
     6    28    27    1
     7    30    32    1
     8    33    35    2
     9    27    26    2
    10    32    26    1
    11    32    36    2
    12    35    36    1
    13    26    24    1
    14    20    19    1
    15    20    21    2
    16    24    21    1
    17    24    25    1
    18    19    18    2
    19    10     7    1
    20    21    22    1
    21     9     8    2
    22     7     8   am
    23     7     6    1
    24    18     6    1
    25    18    23    1
    26     8     3    1
    27    22    23    2
    28     6     5    2
    29     3     2    1
    30     3     4    2
    31     5     4    1
    32     2     1    3
    33     4    11    1
    34    11    12    2
    35    11    17    1
    36    12    13    1
    37    17    15    2
    38    13    14    2
    39    15    14    1
    40    15    16    1
