@<TRIPOS>MOLECULE
16665_out_ligand_01.pdbqt
 32 36 0 0 0
SMALL
GASTEIGER

@<TRIPOS>ATOM
      1  C         21.3840  -21.9980  -11.8150 C.2     1  UNL1        0.0330
      2  C         20.2630  -21.3640  -12.4090 C.2     1  UNL1        0.0180
      3  C         19.0200  -21.3410  -11.7670 C.2     1  UNL1        0.0190
      4  C         18.9340  -21.9570  -10.5340 C.2     1  UNL1        0.0480
      5  C         20.0250  -22.5590   -9.9460 C.2     1  UNL1        0.0490
      6  C         21.2690  -22.5950  -10.5520 C.2     1  UNL1        0.0350
      7  C         19.5980  -23.0830   -8.6540 C.2     1  UNL1        0.2660
      8  O         20.3810  -23.6510   -7.9130 O.2     1  UNL1       -0.2670
      9  N         18.2490  -22.8220   -8.5380 N.am    1  UNL1       -0.2430
     10  C         17.8070  -22.0800   -9.6120 C.2     1  UNL1        0.2660
     11  O         16.7480  -21.5200   -9.8330 O.2     1  UNL1       -0.2670
     12  C         22.6810  -21.9670  -12.5530 C.2     1  UNL1        0.2560
     13  O         23.6770  -22.3810  -11.9720 O.2     1  UNL1       -0.2670
     14  N         22.6220  -21.4340  -13.8280 N.am    1  UNL1       -0.3230
     15  H         21.7480  -21.0210  -14.1230 H       1  UNL1        0.1690
     16  C         23.6810  -21.3230  -14.7550 C.2     1  UNL1        0.0350
     17  C         24.6160  -20.2840  -14.7540 C.2     1  UNL1        0.0310
     18  C         25.6410  -20.2490  -15.7070 C.2     1  UNL1        0.0210
     19  C         25.7360  -21.2560  -16.6630 C.2     1  UNL1        0.0110
     20 BR         27.1200  -21.2070  -17.9480 Br      1  UNL1       -0.0510
     21  C         24.8150  -22.2980  -16.6760 C.2     1  UNL1        0.0210
     22  C         23.7920  -22.3310  -15.7230 C.2     1  UNL1        0.0310
     23  C         17.4750  -23.1140   -7.3750 C.2     1  UNL1        0.0570
     24  C         16.4180  -24.0350   -7.5070 C.2     1  UNL1        0.0310
     25  C         15.6650  -24.4350   -6.4090 C.2     1  UNL1        0.0030
     26  C         15.9460  -23.9140   -5.1550 C.2     1  UNL1        0.0120
     27  C         16.9570  -22.9600   -4.9830 C.2     1  UNL1       -0.0240
     28  C         17.1750  -22.4250   -3.7010 C.2     1  UNL1        0.0120
     29  C         17.7320  -22.5260   -6.0930 C.2     1  UNL1        0.0020
     30  C         18.1290  -21.4350   -3.4880 C.2     1  UNL1        0.0010
     31  C         18.8660  -20.9560   -4.5590 C.2     1  UNL1        0.0010
     32  C         18.6620  -21.4850   -5.8380 C.2     1  UNL1        0.0140
@<TRIPOS>BOND
     1    20    19    1
     2    21    19    2
     3    21    22    1
     4    19    18    1
     5    22    16    2
     6    18    17    2
     7    16    17    1
     8    16    14    1
     9    15    14    1
    10    14    12   am
    11    12    13    2
    12    12     1    1
    13     2     1    2
    14     2     3    1
    15     1     6    1
    16     3     4    2
    17     6     5    2
    18     4     5    1
    19     4    10    1
    20     5     7    1
    21    11    10    2
    22    10     9   am
    23     7     9   am
    24     7     8    2
    25     9    23    1
    26    24    23    2
    27    24    25    1
    28    23    29    1
    29    25    26    2
    30    29    32    1
    31    29    27    2
    32    32    31    2
    33    26    27    1
    34    27    28    1
    35    31    30    1
    36    28    30    2
