@<TRIPOS>MOLECULE
1666_out_ligand_01.pdbqt
 34 37 0 0 0
SMALL
GASTEIGER

@<TRIPOS>ATOM
      1  O         18.0640  -20.6570  -12.1230 O.2     1  UNL1       -0.2730
      2  C         18.7790  -21.4990  -11.5900 C.2     1  UNL1        0.2240
      3  C         18.2140  -22.7560  -10.9650 C.3     1  UNL1        0.1220
      4  C         19.1270  -23.3880   -9.9130 C.3     1  UNL1        0.1290
      5  C         20.5820  -23.1690  -10.1810 C.ar    1  UNL1        0.0700
      6  C         21.0280  -22.1910  -10.9770 C.ar    1  UNL1        0.1450
      7  N         22.3390  -21.8990  -11.2110 N.ar    1  UNL1       -0.2060
      8  C         23.2040  -22.6580  -10.6280 C.ar    1  UNL1        0.1710
      9  N         22.8850  -23.6920   -9.8080 N.ar    1  UNL1       -0.3020
     10  C         21.5940  -24.0320   -9.5470 C.ar    1  UNL1        0.2580
     11  O         21.2930  -24.9870   -8.8460 O.2     1  UNL1       -0.2670
     12  N         20.1390  -21.3620  -11.5850 N.am    1  UNL1       -0.3110
     13  H         23.6180  -24.2510   -9.3990 H       1  UNL1        0.1710
     14  H         20.5170  -20.5840  -12.1130 H       1  UNL1        0.1700
     15  C         18.7600  -22.8860   -8.5070 C.2     1  UNL1        0.2310
     16  O         19.4810  -22.0680   -7.9440 O.2     1  UNL1       -0.2720
     17  N         17.6180  -23.4620   -7.9680 N.am    1  UNL1       -0.3270
     18  H         17.1340  -24.1590   -8.5190 H       1  UNL1        0.1690
     19  C         17.0360  -23.1960   -6.7100 C.2     1  UNL1        0.0340
     20  C         17.6320  -23.5150   -5.4860 C.2     1  UNL1        0.0320
     21  C         16.9840  -23.2110   -4.2830 C.2     1  UNL1        0.0440
     22  C         15.7440  -22.5900   -4.3050 C.2     1  UNL1        0.1160
     23  F         15.1270  -22.3000   -3.1530 F       1  UNL1       -0.2060
     24  C         15.1360  -22.2630   -5.5090 C.2     1  UNL1        0.0440
     25  C         15.7820  -22.5660   -6.7100 C.2     1  UNL1        0.0320
     26  S         24.9180  -22.4600  -10.7950 S.3     1  UNL1       -0.0870
     27  C         24.9830  -21.4580  -12.3070 C.3     1  UNL1        0.1240
     28  C         24.9800  -22.3230  -13.5390 C.2     1  UNL1       -0.0100
     29  C         25.4320  -23.6510  -13.4920 C.2     1  UNL1        0.0110
     30  C         25.4130  -24.4470  -14.6410 C.2     1  UNL1        0.0010
     31  C         24.9400  -23.9260  -15.8460 C.2     1  UNL1        0.0030
     32  C         24.4840  -22.6110  -15.9030 C.2     1  UNL1        0.0430
     33  C         24.5060  -21.8240  -14.7550 C.2     1  UNL1        0.1230
     34  F         24.0620  -20.5610  -14.8310 F       1  UNL1       -0.2060
@<TRIPOS>BOND
     1    32    31    2
     2    32    33    1
     3    31    30    1
     4    34    33    1
     5    33    28    2
     6    30    29    2
     7    28    29    1
     8    28    27    1
     9    27    26    1
    10     1     2    2
    11    14    12    1
    12     2    12   am
    13     2     3    1
    14    12     6    1
    15     7     6   ar
    16     7     8   ar
    17     6     5   ar
    18     3     4    1
    19    26     8    1
    20     8     9   ar
    21     5     4    1
    22     5    10   ar
    23     4    15    1
    24     9    10   ar
    25     9    13    1
    26    10    11    2
    27    18    17    1
    28    15    17   am
    29    15    16    2
    30    17    19    1
    31    25    19    2
    32    25    24    1
    33    19    20    1
    34    24    22    2
    35    20    21    2
    36    22    21    1
    37    22    23    1
