@<TRIPOS>MOLECULE
16678_out_ligand_01.pdbqt
 35 38 0 0 0
SMALL
GASTEIGER

@<TRIPOS>ATOM
      1  C         20.7800  -22.9990   -9.4390 C.2     1  UNL1       -0.0390
      2  C         20.6880  -22.4620   -8.1460 C.2     1  UNL1        0.0090
      3  C         21.7620  -21.7780   -7.5760 C.2     1  UNL1        0.0020
      4  C         22.9520  -21.6240   -8.2880 C.2     1  UNL1        0.0170
      5  C         23.0730  -22.1730   -9.5700 C.2     1  UNL1        0.0320
      6  C         21.9860  -22.8520  -10.1400 C.2     1  UNL1        0.0260
      7  C         19.5980  -23.7110  -10.0630 C.3     1  UNL1        0.1690
      8  N         18.3980  -22.8780  -10.0810 N.pl3   1  UNL1       -0.3250
      9  C         17.3400  -23.1480   -9.2090 C.2     1  UNL1        0.1770
     10  S         16.0080  -22.0040   -9.5700 S.3     1  UNL1       -0.0620
     11  N         17.3110  -24.0550   -8.2870 N.am    1  UNL1       -0.1840
     12  C         16.9330  -21.2620  -10.8400 C.2     1  UNL1        0.0780
     13  C         18.1450  -21.8260  -10.9820 C.2     1  UNL1        0.0170
     14  C         19.1260  -21.3800  -12.0170 C.3     1  UNL1        0.0690
     15  C         16.1550  -24.2120   -7.5710 C.2     1  UNL1        0.2820
     16  O         15.2150  -24.8910   -7.9760 O.2     1  UNL1       -0.2650
     17  C         16.0770  -23.6110   -6.2080 C.2     1  UNL1        0.0720
     18  C         14.9770  -22.7910   -5.8990 C.2     1  UNL1        0.0200
     19  C         14.8510  -22.2150   -4.6320 C.2     1  UNL1        0.0010
     20  C         15.8240  -22.4480   -3.6620 C.2     1  UNL1        0.0030
     21  C         16.9230  -23.2510   -3.9620 C.2     1  UNL1        0.0430
     22  C         17.0460  -23.8260   -5.2270 C.2     1  UNL1        0.1320
     23  F         18.1340  -24.5720   -5.4590 F       1  UNL1       -0.2050
     24  C         24.3150  -22.0210  -10.3810 C.2     1  UNL1        0.2520
     25  O         24.8550  -20.9240  -10.4770 O.2     1  UNL1       -0.2680
     26  N         24.7750  -23.1580  -11.0100 N.am    1  UNL1       -0.3490
     27  H         24.1350  -23.9330  -11.1270 H       1  UNL1        0.1630
     28  C         25.9350  -23.1240  -11.8910 C.3     1  UNL1        0.1140
     29  C         26.9600  -24.2040  -11.5240 C.3     1  UNL1        0.0370
     30  C         25.4840  -23.2620  -13.3350 C.2     1  UNL1       -0.0360
     31  C         25.6770  -24.4740  -14.0170 C.2     1  UNL1        0.0090
     32  C         25.2770  -24.6150  -15.3470 C.2     1  UNL1        0.0010
     33  C         24.6830  -23.5460  -16.0150 C.2     1  UNL1        0.0000
     34  C         24.4870  -22.3330  -15.3540 C.2     1  UNL1        0.0010
     35  C         24.8830  -22.1920  -14.0220 C.2     1  UNL1        0.0090
@<TRIPOS>BOND
     1    33    34    2
     2    33    32    1
     3    34    35    1
     4    32    31    2
     5    35    30    2
     6    31    30    1
     7    30    28    1
     8    14    13    1
     9    28    29    1
    10    28    26    1
    11    27    26    1
    12    26    24   am
    13    13    12    2
    14    13     8    1
    15    12    10    1
    16    25    24    2
    17    24     5    1
    18     6     5    1
    19     6     1    2
    20     8     7    1
    21     8     9    1
    22     7     1    1
    23    10     9    1
    24     5     4    2
    25     1     2    1
    26     9    11    2
    27     4     3    1
    28    11    15    1
    29     2     3    2
    30    16    15    2
    31    15    17    1
    32    17    18    2
    33    17    22    1
    34    18    19    1
    35    23    22    1
    36    22    21    2
    37    19    20    2
    38    21    20    1
