@<TRIPOS>MOLECULE
16671_out_ligand_01.pdbqt
 30 33 0 0 0
SMALL
GASTEIGER

@<TRIPOS>ATOM
      1  C         21.9470  -23.2590   -8.6920 C.ar    1  UNL1        0.1960
      2  N         21.7460  -24.4740   -9.1530 N.ar    1  UNL1       -0.1220
      3  N         20.5170  -24.8970   -8.6980 N.ar    1  UNL1       -0.1230
      4  C         20.0200  -23.9310   -7.9510 C.ar    1  UNL1        0.2270
      5  C         18.7470  -23.9090   -7.2580 C.2     1  UNL1        0.3000
      6  O         17.9510  -24.8420   -7.3600 O.2     1  UNL1       -0.2630
      7  N         18.4990  -22.7050   -6.5030 N.am    1  UNL1       -0.2850
      8  C         19.4410  -21.6600   -6.5110 C.2     1  UNL1        0.1180
      9  C         20.5960  -21.7320   -7.1900 C.2     1  UNL1        0.1190
     10  N         20.8880  -22.8710   -7.9110 N.ar    1  UNL1       -0.2770
     11  S         23.3160  -22.2560   -9.0160 S.3     1  UNL1       -0.0810
     12  C         23.7670  -22.8100  -10.6890 C.3     1  UNL1        0.1850
     13  C         22.8720  -22.1560  -11.7300 C.2     1  UNL1        0.2270
     14  O         23.2360  -21.9890  -12.8910 O.2     1  UNL1       -0.2730
     15  N         21.6380  -21.7720  -11.2620 N.am    1  UNL1       -0.3560
     16  H         21.4300  -21.8630  -10.2700 H       1  UNL1        0.1620
     17  C         20.6320  -21.1730  -12.1050 C.3     1  UNL1        0.1610
     18  C         19.2540  -21.4700  -11.5730 C.2     1  UNL1       -0.0400
     19  C         18.9900  -22.6980  -10.9490 C.2     1  UNL1        0.0100
     20  C         17.7200  -22.9720  -10.4320 C.2     1  UNL1        0.0240
     21  C         16.7140  -22.0140  -10.5300 C.2     1  UNL1        0.0340
     22 CL         15.1510  -22.3490   -9.8910 Cl      1  UNL1       -0.0840
     23  C         16.9650  -20.7840  -11.1350 C.2     1  UNL1        0.0240
     24  C         18.2340  -20.5120  -11.6520 C.2     1  UNL1        0.0100
     25  C         17.2700  -22.5710   -5.7470 C.2     1  UNL1        0.0420
     26  C         16.0250  -22.4090   -6.3760 C.2     1  UNL1        0.0300
     27  C         14.8420  -22.3020   -5.6350 C.2     1  UNL1        0.0020
     28  C         14.8780  -22.3540   -4.2460 C.2     1  UNL1        0.0000
     29  C         16.0970  -22.5140   -3.5980 C.2     1  UNL1        0.0020
     30  C         17.2780  -22.6230   -4.3400 C.2     1  UNL1        0.0300
@<TRIPOS>BOND
     1    14    13    2
     2    17    18    1
     3    17    15    1
     4    13    15   am
     5    13    12    1
     6    24    18    2
     7    24    23    1
     8    18    19    1
     9    15    16    1
    10    23    21    2
    11    19    20    2
    12    12    11    1
    13    21    20    1
    14    21    22    1
    15     2     3   ar
    16     2     1   ar
    17    11     1    1
    18     3     4   ar
    19     1    10   ar
    20     4    10   ar
    21     4     5    1
    22    10     9    1
    23     6     5    2
    24     5     7   am
    25     9     8    2
    26     8     7    1
    27     7    25    1
    28    26    25    2
    29    26    27    1
    30    25    30    1
    31    27    28    2
    32    30    29    2
    33    28    29    1
