@<TRIPOS>MOLECULE
16682_out_ligand_01.pdbqt
 30 32 0 0 0
SMALL
GASTEIGER

@<TRIPOS>ATOM
      1  N         18.0050  -22.2970  -10.7310 N.am    1  UNL1       -0.3570
      2  C         18.8550  -21.3340  -11.2380 C.2     1  UNL1        0.2510
      3  O         18.5000  -20.1910  -11.5020 O.2     1  UNL1       -0.2680
      4  H         18.4310  -23.0760  -10.2440 H       1  UNL1        0.1620
      5  C         16.6520  -21.9490  -10.3340 C.3     1  UNL1        0.1270
      6  C         15.8980  -23.1320   -9.7180 C.3     1  UNL1        0.0580
      7  C         16.0650  -23.2380   -8.2180 C.2     1  UNL1       -0.0570
      8  C         16.7200  -24.3420   -7.6510 C.2     1  UNL1        0.0090
      9  C         16.8550  -24.4500   -6.2660 C.2     1  UNL1        0.0250
     10  C         16.3390  -23.4450   -5.4440 C.2     1  UNL1        0.0740
     11  C         15.6760  -22.3450   -5.9910 C.2     1  UNL1        0.0250
     12  C         15.5450  -22.2420   -7.3770 C.2     1  UNL1        0.0090
     13  S         16.5030  -23.5930   -3.6860 S.O2    1  UNL1        0.2390
     14  O         15.6710  -24.6860   -3.2380 O.2     1  UNL1       -0.2060
     15  O         17.9030  -23.4920   -3.3480 O.2     1  UNL1       -0.2060
     16  N         15.7350  -22.1910   -3.1560 N.3     1  UNL1       -0.2250
     17  H         14.9570  -22.4510   -2.5460 H       1  UNL1        0.1360
     18  H         15.4360  -21.5830   -3.9170 H       1  UNL1        0.1360
     19  C         20.2780  -21.7390  -11.4210 C.2     1  UNL1        0.0320
     20  C         20.8790  -22.5270  -10.4350 C.2     1  UNL1        0.0180
     21  C         22.2120  -22.9300  -10.5700 C.2     1  UNL1        0.0130
     22  C         22.9750  -22.5480  -11.6850 C.2     1  UNL1       -0.0260
     23  C         22.3620  -21.7430  -12.6600 C.2     1  UNL1        0.0130
     24  C         21.0300  -21.3360  -12.5310 C.2     1  UNL1        0.0180
     25  C         24.3780  -22.9730  -11.8250 C.2     1  UNL1       -0.0260
     26  C         24.8200  -23.6400  -12.9800 C.2     1  UNL1        0.0120
     27  C         26.1520  -24.0420  -13.1140 C.2     1  UNL1        0.0010
     28  C         27.0650  -23.7840  -12.0940 C.2     1  UNL1        0.0000
     29  C         26.6470  -23.1250  -10.9410 C.2     1  UNL1        0.0010
     30  C         25.3150  -22.7230  -10.8080 C.2     1  UNL1        0.0120
@<TRIPOS>BOND
     1    27    26    1
     2    27    28    2
     3    26    25    2
     4    23    24    1
     5    23    22    2
     6    24    19    2
     7    28    29    1
     8    25    22    1
     9    25    30    1
    10    22    21    1
    11     3     2    2
    12    19     2    1
    13    19    20    1
    14     2     1   am
    15    29    30    2
    16     1     5    1
    17     1     4    1
    18    21    20    2
    19     5     6    1
    20     6     7    1
    21     7     8    2
    22     7    12    1
    23     8     9    1
    24    12    11    2
    25     9    10    2
    26    11    10    1
    27    10    13    1
    28    18    16    1
    29    13    15    2
    30    13    14    2
    31    13    16    1
    32    16    17    1
