@<TRIPOS>MOLECULE
16686_out_ligand_01.pdbqt
 27 29 0 0 0
SMALL
GASTEIGER

@<TRIPOS>ATOM
      1  C         20.7610  -22.1360  -11.0690 C.2     1  UNL1        0.0350
      2  C         19.8490  -21.3190  -11.7400 C.2     1  UNL1        0.0290
      3  C         18.5090  -21.2770  -11.3460 C.2     1  UNL1        0.0030
      4  C         18.0660  -22.0410  -10.2670 C.2     1  UNL1        0.0170
      5  C         18.9740  -22.8440   -9.5690 C.2     1  UNL1        0.0340
      6  C         20.3130  -22.8970   -9.9830 C.2     1  UNL1        0.0460
      7  C         18.5690  -23.6830   -8.4060 C.2     1  UNL1        0.2520
      8  O         19.2920  -24.6000   -8.0360 O.2     1  UNL1       -0.2680
      9  N         17.3850  -23.3450   -7.7830 N.am    1  UNL1       -0.3520
     10  H         16.8530  -22.5540   -8.1110 H       1  UNL1        0.1630
     11  C         16.8410  -24.1310   -6.6800 C.3     1  UNL1        0.0840
     12  C         17.7410  -24.0240   -5.4420 C.3     1  UNL1        0.0250
     13  C         17.7690  -22.6690   -4.7370 C.3     1  UNL1        0.0020
     14  C         16.4160  -22.0380   -4.4190 C.3     1  UNL1        0.0000
     15  C         15.3310  -23.0210   -3.9820 C.2     1  UNL1        0.0000
     16  C         14.8470  -24.0240   -5.0390 C.2     1  UNL1        0.0020
     17  C         15.3550  -23.7860   -6.4600 C.3     1  UNL1        0.0250
     18  N         22.1250  -22.2460  -11.4130 N.am    1  UNL1       -0.3230
     19  C         23.2120  -21.7730  -10.6990 C.2     1  UNL1        0.2560
     20  O         23.1840  -21.1310   -9.6560 O.2     1  UNL1       -0.2670
     21  H         22.3160  -22.6530  -12.3200 H       1  UNL1        0.1690
     22  C         24.5390  -22.0610  -11.3150 C.2     1  UNL1        0.0320
     23  C         25.6600  -21.2600  -11.0620 C.2     1  UNL1        0.0170
     24  C         26.8850  -21.5690  -11.6590 C.2     1  UNL1        0.0010
     25  C         26.9910  -22.6670  -12.5130 C.2     1  UNL1        0.0000
     26  C         25.8710  -23.4540  -12.7820 C.2     1  UNL1        0.0010
     27  C         24.6450  -23.1500  -12.1890 C.2     1  UNL1        0.0170
@<TRIPOS>BOND
     1    26    25    2
     2    26    27    1
     3    25    24    1
     4    21    18    1
     5    27    22    2
     6     2     3    1
     7     2     1    2
     8    24    23    2
     9    18     1    1
    10    18    19   am
    11     3     4    2
    12    22    23    1
    13    22    19    1
    14     1     6    1
    15    19    20    2
    16     4     5    1
    17     6     5    2
    18     5     7    1
    19     7     8    2
    20     7     9   am
    21    10     9    1
    22     9    11    1
    23    11    17    1
    24    11    12    1
    25    17    16    1
    26    12    13    1
    27    16    15    2
    28    13    14    1
    29    14    15    1
