@<TRIPOS>MOLECULE
16691_out_ligand_01.pdbqt
 37 41 0 0 0
SMALL
GASTEIGER

@<TRIPOS>ATOM
      1  C         23.0050  -21.4800  -12.3220 C.3     1  UNL1        0.1610
      2  N         24.1500  -22.2620  -11.9160 N.am    1  UNL1       -0.3570
      3  C         25.1900  -21.7050  -11.2040 C.2     1  UNL1        0.2170
      4  O         25.1770  -20.5630  -10.7580 O.2     1  UNL1       -0.2740
      5  H         24.3080  -23.1380  -12.3960 H       1  UNL1        0.1620
      6  C         26.3510  -22.6630  -11.0240 C.3     1  UNL1        0.1040
      7  C         26.1510  -23.9660  -11.7990 C.3     1  UNL1        0.0290
      8  C         27.0410  -24.0600  -13.0390 C.3     1  UNL1        0.1360
      9  N         26.3680  -23.6370  -14.2520 N.am    1  UNL1       -0.2800
     10  C         26.4760  -22.3820  -14.7880 C.2     1  UNL1        0.2610
     11  O         27.1170  -21.4270  -14.3930 O.2     1  UNL1       -0.2670
     12  C         25.6390  -22.3690  -15.9860 C.2     1  UNL1        0.0480
     13  C         25.3960  -21.3600  -16.8980 C.2     1  UNL1        0.0180
     14  C         25.0570  -23.6180  -16.1040 C.2     1  UNL1        0.0480
     15  C         24.5320  -21.6530  -17.9590 C.2     1  UNL1        0.0010
     16  C         23.9390  -22.9270  -18.0780 C.2     1  UNL1        0.0010
     17  C         24.1990  -23.9310  -17.1400 C.2     1  UNL1        0.0180
     18  C         25.5210  -24.4280  -14.9790 C.2     1  UNL1        0.2610
     19  O         25.1670  -25.5720  -14.7680 O.2     1  UNL1       -0.2670
     20  C         21.8040  -21.8130  -11.4750 C.2     1  UNL1       -0.0400
     21  C         20.5060  -21.4630  -11.9010 C.2     1  UNL1        0.0110
     22  C         19.3860  -21.7410  -11.1100 C.2     1  UNL1        0.0310
     23  C         19.5750  -22.3630   -9.8880 C.2     1  UNL1        0.0430
     24  C         20.8550  -22.7080   -9.4560 C.2     1  UNL1       -0.0290
     25  N         18.6200  -22.7320   -8.9240 N.am    1  UNL1       -0.3130
     26  C         21.9740  -22.4400  -10.2310 C.2     1  UNL1        0.0180
     27  C         20.8210  -23.3890   -8.1280 C.2     1  UNL1        0.0610
     28  C         19.3300  -23.3230   -7.7720 C.2     1  UNL1        0.1370
     29  C         17.2500  -22.5920   -9.0580 C.2     1  UNL1        0.2580
     30  O         16.6460  -22.1680  -10.0380 O.2     1  UNL1       -0.2670
     31  C         16.4230  -23.0150   -7.9080 C.2     1  UNL1        0.0320
     32  C         16.0030  -22.0510   -6.9850 C.2     1  UNL1        0.0200
     33  C         15.2330  -22.4420   -5.8900 C.2     1  UNL1        0.0430
     34  C         14.9060  -23.7860   -5.7260 C.2     1  UNL1        0.1160
     35  F         14.1670  -24.1590   -4.6730 F       1  UNL1       -0.2060
     36  C         15.3400  -24.7510   -6.6320 C.2     1  UNL1        0.0430
     37  C         16.1090  -24.3670   -7.7300 C.2     1  UNL1        0.0200
@<TRIPOS>BOND
     1    16    15    2
     2    16    17    1
     3    15    13    1
     4    17    14    2
     5    13    12    2
     6    14    12    1
     7    14    18    1
     8    12    10    1
     9    18    19    2
    10    18     9   am
    11    10    11    2
    12    10     9   am
    13     9     8    1
    14     8     7    1
    15     5     2    1
    16     1     2    1
    17     1    20    1
    18     2     3   am
    19    21    20    2
    20    21    22    1
    21     7     6    1
    22    20    26    1
    23     3     6    1
    24     3     4    2
    25    22    23    2
    26    26    24    2
    27    30    29    2
    28    23    24    1
    29    23    25    1
    30    24    27    1
    31    29    25   am
    32    29    31    1
    33    25    28    1
    34    27    28    2
    35    31    37    2
    36    31    32    1
    37    37    36    1
    38    32    33    2
    39    36    34    2
    40    33    34    1
    41    34    35    1
