@<TRIPOS>MOLECULE
16693_out_ligand_01.pdbqt
 34 37 0 0 0
SMALL
GASTEIGER

@<TRIPOS>ATOM
      1  N         21.0950  -23.3580   -9.8820 N.pl3   1  UNL1       -0.3310
      2  C         22.3930  -23.2320  -10.3440 C.2     1  UNL1        0.1130
      3  C         22.8090  -22.3930  -11.3050 C.2     1  UNL1        0.0810
      4  C         21.7700  -21.5630  -11.9650 C.2     1  UNL1        0.2010
      5  O         22.0370  -20.7780  -12.8670 O.2     1  UNL1       -0.2860
      6  C         20.3690  -21.7210  -11.5160 C.2     1  UNL1        0.0610
      7  C         19.3490  -20.9890  -12.1270 C.2     1  UNL1        0.0210
      8  C         18.0370  -21.1680  -11.7020 C.2     1  UNL1        0.0280
      9  C         17.7870  -22.0750  -10.6800 C.2     1  UNL1        0.0330
     10  C         16.3780  -22.3020  -10.2140 C.3     1  UNL1        0.0700
     11  N         18.7700  -22.8010  -10.0830 N.2     1  UNL1       -0.2350
     12  C         20.0570  -22.6190  -10.4890 C.2     1  UNL1        0.1440
     13  C         20.7120  -24.2950   -8.8120 C.3     1  UNL1        0.2330
     14  C         19.7700  -23.6400   -7.7940 C.2     1  UNL1        0.2400
     15  N         18.5850  -24.3390   -7.6330 N.am    1  UNL1       -0.3260
     16  H         18.5450  -25.2330   -8.1220 H       1  UNL1        0.1690
     17  O         20.0830  -22.5930   -7.2270 O.2     1  UNL1       -0.2710
     18  C         17.4920  -24.0220   -6.8070 C.2     1  UNL1        0.0360
     19  C         16.1620  -24.2880   -7.1340 C.2     1  UNL1        0.0290
     20  C         15.1360  -23.9330   -6.2530 C.2     1  UNL1        0.0040
     21  C         15.4310  -23.3230   -5.0350 C.2     1  UNL1        0.0180
     22  C         16.7580  -23.0640   -4.6850 C.2     1  UNL1        0.0020
     23  C         17.7790  -23.4060   -5.5820 C.2     1  UNL1        0.0480
     24  S         17.2070  -22.2660   -3.1540 S.3     1  UNL1       -0.1340
     25  C         18.5720  -21.2140   -3.7150 C.3     1  UNL1        0.0950
     26  C         24.2510  -22.4100  -11.6640 C.2     1  UNL1        0.1970
     27  O         25.1210  -22.4300  -10.7950 O.2     1  UNL1       -0.2860
     28  C         24.6640  -22.3800  -13.0880 C.2     1  UNL1        0.0150
     29  C         25.0140  -21.1880  -13.7350 C.2     1  UNL1        0.0170
     30  C         25.4360  -21.2160  -15.0690 C.2     1  UNL1        0.0200
     31  C         25.5220  -22.4330  -15.7450 C.2     1  UNL1        0.0110
     32 BR         26.0930  -22.4650  -17.5470 Br      1  UNL1       -0.0510
     33  C         25.2000  -23.6250  -15.1000 C.2     1  UNL1        0.0200
     34  C         24.7760  -23.5990  -13.7680 C.2     1  UNL1        0.0170
@<TRIPOS>BOND
     1    32    31    1
     2    31    33    2
     3    31    30    1
     4    33    34    1
     5    30    29    2
     6    34    28    2
     7    29    28    1
     8    28    26    1
     9     5     4    2
    10     7     8    1
    11     7     6    2
    12     4     6    1
    13     4     3    1
    14     8     9    2
    15    26     3    1
    16    26    27    2
    17     6    12    1
    18     3     2    2
    19     9    10    1
    20     9    11    1
    21    12    11    2
    22    12     1    1
    23     2     1    1
    24     1    13    1
    25    13    14    1
    26    16    15    1
    27    14    15   am
    28    14    17    2
    29    15    18    1
    30    19    18    2
    31    19    20    1
    32    18    23    1
    33    20    21    2
    34    23    22    2
    35    21    22    1
    36    22    24    1
    37    25    24    1
