@<TRIPOS>MOLECULE
16690_out_ligand_01.pdbqt
 33 37 0 0 0
SMALL
GASTEIGER

@<TRIPOS>ATOM
      1  C         23.0300  -22.5630  -11.4500 C.2     1  UNL1        0.0320
      2  C         23.1720  -23.2400  -10.2350 C.2     1  UNL1        0.0190
      3  C         22.0820  -23.3720   -9.3680 C.2     1  UNL1        0.0300
      4  C         20.8370  -22.8230   -9.6970 C.2     1  UNL1        0.0350
      5  C         20.7030  -22.1310  -10.9030 C.2     1  UNL1        0.0300
      6  C         21.7940  -21.9980  -11.7750 C.2     1  UNL1        0.0190
      7  C         24.2200  -22.4490  -12.3360 C.2     1  UNL1        0.2520
      8  O         25.1700  -23.2120  -12.1860 O.2     1  UNL1       -0.2680
      9  N         24.1710  -21.4840  -13.3160 N.am    1  UNL1       -0.3480
     10  H         23.3540  -20.9010  -13.4280 H       1  UNL1        0.1630
     11  C         25.2940  -21.2360  -14.2110 C.3     1  UNL1        0.1180
     12  C         25.6230  -19.7340  -14.1980 C.3     1  UNL1        0.0300
     13  C         26.5590  -19.3670  -15.3400 C.3     1  UNL1        0.0070
     14  C         25.8790  -19.6370  -16.6780 C.3     1  UNL1        0.0390
     15  C         25.2920  -21.0240  -16.7610 C.2     1  UNL1       -0.0500
     16  C         25.0030  -21.5600  -18.0270 C.2     1  UNL1        0.0070
     17  C         24.9980  -21.7730  -15.6040 C.2     1  UNL1       -0.0290
     18  C         24.4660  -22.8390  -18.1530 C.2     1  UNL1        0.0010
     19  C         24.2130  -23.6000  -17.0180 C.2     1  UNL1        0.0010
     20  C         24.4820  -23.0740  -15.7540 C.2     1  UNL1        0.0100
     21  N         19.7950  -22.9940   -8.7660 N.am    1  UNL1       -0.3220
     22  C         18.4270  -22.9700   -9.0060 C.2     1  UNL1        0.2760
     23  O         17.8960  -22.8450  -10.1050 O.2     1  UNL1       -0.2660
     24  H         20.0760  -23.2190   -7.8190 H       1  UNL1        0.1690
     25  C         17.6320  -23.1340   -7.7740 C.ar    1  UNL1        0.1440
     26  N         16.5770  -23.9560   -7.7910 N.ar    1  UNL1       -0.2050
     27  S         15.8830  -23.9910   -6.2960 S.2     1  UNL1        0.0120
     28  C         16.9700  -22.8940   -5.5480 C.ar    1  UNL1        0.0360
     29  C         16.9940  -22.4330   -4.2220 C.2     1  UNL1        0.0210
     30  C         17.9020  -22.4790   -6.5030 C.ar    1  UNL1        0.0170
     31  C         17.9820  -21.5170   -3.8550 C.2     1  UNL1        0.0010
     32  C         18.9140  -21.0700   -4.7810 C.2     1  UNL1        0.0010
     33  C         18.8830  -21.5370   -6.1010 C.2     1  UNL1        0.0150
@<TRIPOS>BOND
     1    18    16    1
     2    18    19    2
     3    16    15    2
     4    19    20    1
     5    15    14    1
     6    15    17    1
     7    14    13    1
     8    20    17    2
     9    17    11    1
    10    13    12    1
    11    11    12    1
    12    11     9    1
    13    10     9    1
    14     9     7   am
    15     7     8    2
    16     7     1    1
    17     6     1    2
    18     6     5    1
    19     1     2    1
    20     5     4    2
    21     2     3    2
    22    23    22    2
    23     4     3    1
    24     4    21    1
    25    22    21   am
    26    22    25    1
    27    21    24    1
    28    26    25   ar
    29    26    27   ar
    30    25    30   ar
    31    30    33    1
    32    30    28   ar
    33    27    28   ar
    34    33    32    2
    35    28    29    1
    36    32    31    1
    37    29    31    2
