@<TRIPOS>MOLECULE
1670_out_ligand_01.pdbqt
 32 36 0 0 0
SMALL
GASTEIGER

@<TRIPOS>ATOM
      1  C         17.5280  -22.5160   -8.2760 C.2     1  UNL1        0.0880
      2  C         16.5810  -22.0310   -9.3310 C.2     1  UNL1        0.0380
      3  C         17.0890  -21.7130  -10.5300 C.2     1  UNL1        0.0570
      4  C         18.4720  -21.8590  -10.7520 C.ar    1  UNL1        0.1750
      5  N         19.2310  -21.6310  -11.8050 N.ar    1  UNL1       -0.1280
      6  N         20.5170  -21.9860  -11.4760 N.ar    1  UNL1       -0.1200
      7  C         20.5110  -22.4090  -10.2280 C.ar    1  UNL1        0.2130
      8  N         19.2390  -22.3510   -9.7120 N.ar    1  UNL1       -0.1870
      9  N         18.8050  -22.6920   -8.4590 N.2     1  UNL1       -0.1630
     10  S         21.8840  -22.9540   -9.3280 S.3     1  UNL1       -0.0790
     11  C         22.9600  -21.4940   -9.3980 C.3     1  UNL1        0.1850
     12  C         23.9190  -21.5720  -10.5770 C.2     1  UNL1        0.2310
     13  O         25.0320  -21.0590  -10.5130 O.2     1  UNL1       -0.2720
     14  N         23.4010  -22.2650  -11.6590 N.am    1  UNL1       -0.3260
     15  H         22.4100  -22.5000  -11.6110 H       1  UNL1        0.1690
     16  C         24.0420  -22.5650  -12.8760 C.2     1  UNL1        0.0370
     17  C         24.9490  -23.6500  -12.8640 C.2     1  UNL1        0.0320
     18  C         25.6430  -24.0270  -14.0190 C.2     1  UNL1        0.0420
     19  C         25.4190  -23.2980  -15.1630 C.2     1  UNL1        0.1050
     20  C         24.5470  -22.2350  -15.1810 C.2     1  UNL1        0.1070
     21  O         25.9990  -23.5150  -16.3740 O.2     1  UNL1       -0.3230
     22  C         23.8410  -21.8460  -14.0580 C.2     1  UNL1        0.0690
     23  O         24.4780  -21.6440  -16.4050 O.2     1  UNL1       -0.3230
     24  C         25.3910  -22.4670  -17.1580 C.3     1  UNL1        0.3520
     25  C         16.9410  -22.8380   -6.9410 C.2     1  UNL1       -0.0030
     26  C         15.8010  -23.6530   -6.8990 C.2     1  UNL1        0.0140
     27  C         15.2210  -23.9790   -5.6740 C.2     1  UNL1        0.0040
     28  C         15.7820  -23.4990   -4.4920 C.2     1  UNL1        0.0370
     29  C         16.9330  -22.7040   -4.5180 C.2     1  UNL1        0.0690
     30  C         17.5150  -22.3780   -5.7450 C.2     1  UNL1        0.0500
     31  O         17.3840  -22.3210   -3.2860 O.2     1  UNL1       -0.3560
     32  C         18.5080  -21.4510   -3.2440 C.3     1  UNL1        0.2100
@<TRIPOS>BOND
     1    24    23    1
     2    24    21    1
     3    23    20    1
     4    21    19    1
     5    20    19    2
     6    20    22    1
     7    19    18    1
     8    22    16    2
     9    18    17    2
    10    16    17    1
    11    16    14    1
    12     5     6   ar
    13     5     4   ar
    14    14    15    1
    15    14    12   am
    16     6     7   ar
    17     4     3    1
    18     4     8   ar
    19    12    13    2
    20    12    11    1
    21     3     2    2
    22     7     8   ar
    23     7    10    1
    24     8     9    1
    25    11    10    1
    26     2     1    1
    27     9     1    2
    28     1    25    1
    29    25    26    2
    30    25    30    1
    31    26    27    1
    32    30    29    2
    33    27    28    2
    34    29    28    1
    35    29    31    1
    36    31    32    1
