@<TRIPOS>MOLECULE
16727_out_ligand_01.pdbqt
 31 34 0 0 0
SMALL
GASTEIGER

@<TRIPOS>ATOM
      1  C         22.8550  -22.3080  -12.0960 C.2     1  UNL1        0.0770
      2  C         21.8830  -21.5800  -12.8180 C.2     1  UNL1        0.0380
      3  C         20.6130  -21.3560  -12.2750 C.2     1  UNL1        0.0210
      4  C         20.3550  -21.8870  -11.0250 C.2     1  UNL1        0.0480
      5  C         21.2970  -22.6130  -10.3330 C.2     1  UNL1        0.0510
      6  C         22.5600  -22.8500  -10.8430 C.2     1  UNL1        0.0550
      7  C         20.6960  -23.0270   -9.0700 C.2     1  UNL1        0.2660
      8  O         21.3390  -23.6830   -8.2690 O.2     1  UNL1       -0.2670
      9  N         19.4040  -22.5390   -9.0470 N.am    1  UNL1       -0.2440
     10  C         19.1470  -21.8340  -10.2080 C.2     1  UNL1        0.2660
     11  O         18.1620  -21.2330  -10.6020 O.2     1  UNL1       -0.2670
     12  C         18.4700  -22.7300   -7.9780 C.2     1  UNL1        0.0460
     13  C         17.2840  -23.4620   -8.1560 C.2     1  UNL1        0.0310
     14  C         16.3680  -23.6500   -7.1100 C.2     1  UNL1        0.0190
     15  C         16.6160  -23.1160   -5.8450 C.2     1  UNL1        0.0320
     16  C         17.7790  -22.3730   -5.6460 C.2     1  UNL1        0.0190
     17  C         18.6900  -22.1890   -6.7000 C.2     1  UNL1        0.0310
     18  C         15.6160  -23.3410   -4.7680 C.2     1  UNL1        0.2490
     19  N         14.8370  -22.2800   -4.3960 N.am    1  UNL1       -0.3660
     20  H         14.2600  -22.4290   -3.5780 H       1  UNL1        0.1590
     21  H         15.0820  -21.3280   -4.6200 H       1  UNL1        0.1590
     22  O         15.5110  -24.4220   -4.2040 O.2     1  UNL1       -0.2680
     23  O         24.1040  -22.5880  -12.6050 O.2     1  UNL1       -0.3110
     24  C         24.8450  -21.5270  -13.0730 C.2     1  UNL1        0.0760
     25  C         24.8480  -21.1580  -14.4160 C.2     1  UNL1        0.0380
     26  C         25.5940  -20.0520  -14.8240 C.2     1  UNL1        0.0100
     27  C         26.3300  -19.2980  -13.8970 C.2     1  UNL1       -0.0560
     28  C         27.1210  -18.1100  -14.3760 C.3     1  UNL1        0.0490
     29  C         26.3060  -19.6620  -12.5340 C.2     1  UNL1       -0.0530
     30  C         25.5500  -20.7740  -12.1340 C.2     1  UNL1        0.0440
     31  C         27.0630  -18.8750  -11.4980 C.3     1  UNL1        0.0490
@<TRIPOS>BOND
     1    26    25    1
     2    26    27    2
     3    25    24    2
     4    28    27    1
     5    27    29    1
     6    24    23    1
     7    24    30    1
     8     2     3    1
     9     2     1    2
    10    23     1    1
    11    29    30    2
    12    29    31    1
    13     3     4    2
    14     1     6    1
    15     4     5    1
    16     4    10    1
    17     6     5    2
    18    11    10    2
    19     5     7    1
    20    10     9   am
    21     7     9   am
    22     7     8    2
    23     9    12    1
    24    13    12    2
    25    13    14    1
    26    12    17    1
    27    14    15    2
    28    17    16    2
    29    15    16    1
    30    15    18    1
    31    18    19   am
    32    18    22    2
    33    21    19    1
    34    19    20    1
