@<TRIPOS>MOLECULE
16735_out_ligand_01.pdbqt
 33 36 0 0 0
SMALL
GASTEIGER

@<TRIPOS>ATOM
      1  C         21.9580  -21.9190  -10.7000 C.2     1  UNL1        0.0810
      2  C         21.6020  -22.7020   -9.6700 C.2     1  UNL1        0.1130
      3  N         20.3080  -22.9600   -9.2560 N.pl3   1  UNL1       -0.3310
      4  C         19.2190  -22.4220   -9.9720 C.2     1  UNL1        0.1440
      5  N         17.9470  -22.7110   -9.5850 N.2     1  UNL1       -0.2350
      6  C         16.9130  -22.1650  -10.2780 C.2     1  UNL1        0.0330
      7  C         15.5250  -22.4770   -9.7990 C.3     1  UNL1        0.0700
      8  C         17.0970  -21.3410  -11.3800 C.2     1  UNL1        0.0280
      9  C         18.3950  -21.0610  -11.7900 C.2     1  UNL1        0.0210
     10  C         19.4660  -21.6030  -11.0780 C.2     1  UNL1        0.0610
     11  C         20.8590  -21.3260  -11.5010 C.2     1  UNL1        0.2010
     12  O         21.0660  -20.6400  -12.4960 O.2     1  UNL1       -0.2860
     13  C         19.9920  -23.8460   -8.1220 C.3     1  UNL1        0.2330
     14  C         19.2400  -23.1000   -7.0130 C.2     1  UNL1        0.2400
     15  O         19.6710  -22.0420   -6.5650 O.2     1  UNL1       -0.2710
     16  N         18.0720  -23.7390   -6.6330 N.am    1  UNL1       -0.3260
     17  H         17.9120  -24.6460   -7.0750 H       1  UNL1        0.1690
     18  C         17.1390  -23.3420   -5.6570 C.2     1  UNL1        0.0350
     19  C         17.3190  -23.5260   -4.2870 C.2     1  UNL1        0.0290
     20  C         16.3430  -23.0950   -3.3840 C.2     1  UNL1        0.0030
     21  C         15.1760  -22.4840   -3.8440 C.2     1  UNL1        0.0070
     22  C         14.9710  -22.3060   -5.2150 C.2     1  UNL1       -0.0600
     23  C         13.7330  -21.6260   -5.7170 C.3     1  UNL1        0.0480
     24  C         15.9650  -22.7250   -6.1120 C.2     1  UNL1        0.0360
     25  C         23.4090  -21.7640  -10.9820 C.2     1  UNL1        0.1970
     26  O         24.1530  -21.2100  -10.1740 O.2     1  UNL1       -0.2860
     27  C         23.9780  -22.2550  -12.2610 C.2     1  UNL1        0.0150
     28  C         24.0460  -21.4510  -13.4040 C.2     1  UNL1        0.0160
     29  C         24.6260  -21.9490  -14.5750 C.2     1  UNL1        0.0070
     30  C         25.1530  -23.2460  -14.6140 C.2     1  UNL1       -0.0620
     31  C         25.7970  -23.7640  -15.8650 C.3     1  UNL1        0.0480
     32  C         25.1200  -24.0300  -13.4550 C.2     1  UNL1        0.0070
     33  C         24.5370  -23.5390  -12.2850 C.2     1  UNL1        0.0160
@<TRIPOS>BOND
     1    31    30    1
     2    30    29    2
     3    30    32    1
     4    29    28    1
     5    32    33    2
     6    28    27    2
     7    12    11    2
     8    33    27    1
     9    27    25    1
    10     9     8    2
    11     9    10    1
    12    11    10    1
    13    11     1    1
    14     8     6    1
    15    10     4    2
    16    25     1    1
    17    25    26    2
    18     1     2    2
    19     6     7    1
    20     6     5    2
    21     4     5    1
    22     4     3    1
    23     2     3    1
    24     3    13    1
    25    13    14    1
    26    17    16    1
    27    14    16   am
    28    14    15    2
    29    16    18    1
    30    24    18    2
    31    24    22    1
    32    23    22    1
    33    18    19    1
    34    22    21    2
    35    19    20    2
    36    21    20    1
