@<TRIPOS>MOLECULE
16732_out_ligand_01.pdbqt
 35 38 0 0 0
SMALL
GASTEIGER

@<TRIPOS>ATOM
      1  C         21.0430  -22.4840  -10.7240 C.2     1  UNL1       -0.0380
      2  C         20.4870  -21.8020  -11.8280 C.2     1  UNL1        0.0090
      3  C         19.1450  -21.4120  -11.8350 C.2     1  UNL1        0.0100
      4  C         18.3600  -21.7370  -10.7420 C.2     1  UNL1       -0.0290
      5  C         18.8810  -22.4520   -9.6620 C.2     1  UNL1        0.0440
      6  C         20.2170  -22.8190   -9.6360 C.2     1  UNL1        0.0390
      7  N         17.8830  -22.6620   -8.6870 N.am    1  UNL1       -0.3090
      8  C         18.0670  -23.3850   -7.5140 C.2     1  UNL1        0.2580
      9  O         19.0150  -24.1270   -7.2690 O.2     1  UNL1       -0.2670
     10  C         16.5890  -22.1730   -9.2390 C.3     1  UNL1        0.0930
     11  C         15.6630  -23.3380   -9.6060 C.3     1  UNL1        0.0330
     12  C         16.9380  -21.3450  -10.4970 C.3     1  UNL1        0.0660
     13  C         22.5040  -22.8640  -10.6970 C.3     1  UNL1        0.1630
     14  N         23.0890  -22.8950  -12.0200 N.am    1  UNL1       -0.3390
     15  C         23.9240  -21.8780  -12.4420 C.2     1  UNL1        0.3210
     16  N         24.2440  -22.0400  -13.7710 N.am    1  UNL1       -0.3060
     17  O         24.3100  -20.9850  -11.7000 O.2     1  UNL1       -0.2470
     18  H         24.0600  -22.9460  -14.1790 H       1  UNL1        0.1710
     19  H         22.5330  -23.3210  -12.7440 H       1  UNL1        0.1640
     20  C         24.9620  -21.1620  -14.6180 C.2     1  UNL1        0.0720
     21  C         24.8580  -21.3880  -16.0070 C.2     1  UNL1        0.0950
     22  C         25.5270  -20.5410  -16.8980 C.2     1  UNL1        0.0420
     23  C         26.2880  -19.4710  -16.4180 C.2     1  UNL1        0.0390
     24  C         26.3870  -19.2380  -15.0460 C.2     1  UNL1        0.0700
     25  C         25.7260  -20.0890  -14.1520 C.2     1  UNL1        0.0690
     26  O         24.0770  -22.4600  -16.3730 O.2     1  UNL1       -0.3540
     27  C         24.4790  -23.1890  -17.5270 C.3     1  UNL1        0.2100
     28  O         27.0950  -18.2240  -14.4590 O.2     1  UNL1       -0.3560
     29  C         27.1190  -16.9730  -15.1330 C.3     1  UNL1        0.2100
     30  C         17.0260  -23.2730   -6.4650 C.2     1  UNL1        0.0320
     31  C         17.1370  -22.3090   -5.4570 C.2     1  UNL1        0.0170
     32  C         16.1660  -22.2460   -4.4560 C.2     1  UNL1        0.0010
     33  C         15.0980  -23.1510   -4.4550 C.2     1  UNL1        0.0000
     34  C         15.0020  -24.1290   -5.4480 C.2     1  UNL1        0.0010
     35  C         15.9750  -24.2000   -6.4470 C.2     1  UNL1        0.0170
@<TRIPOS>BOND
     1    27    26    1
     2    22    23    2
     3    22    21    1
     4    23    24    1
     5    26    21    1
     6    21    20    2
     7    29    28    1
     8    24    28    1
     9    24    25    2
    10    20    25    1
    11    20    16    1
    12    18    16    1
    13    16    15   am
    14    19    14    1
    15    15    14   am
    16    15    17    2
    17    14    13    1
    18     3     2    1
    19     3     4    2
    20     2     1    2
    21     4    12    1
    22     4     5    1
    23     1    13    1
    24     1     6    1
    25    12    10    1
    26     5     6    2
    27     5     7    1
    28    11    10    1
    29    10     7    1
    30     7     8   am
    31     8     9    2
    32     8    30    1
    33    30    35    2
    34    30    31    1
    35    35    34    1
    36    31    32    2
    37    34    33    2
    38    32    33    1
