@<TRIPOS>MOLECULE
16746_out_ligand_01.pdbqt
 34 38 0 0 0
SMALL
GASTEIGER

@<TRIPOS>ATOM
      1  C         20.9700  -22.3750  -10.7010 C.2     1  UNL1        0.1020
      2  C         22.0970  -21.6070  -11.0180 C.2     1  UNL1        0.0510
      3  C         23.3240  -21.8590  -10.3940 C.2     1  UNL1       -0.0320
      4  C         23.4270  -22.8900   -9.4580 C.2     1  UNL1        0.0140
      5  C         22.3090  -23.6680   -9.1430 C.2     1  UNL1        0.0400
      6  C         21.0810  -23.4220   -9.7640 C.2     1  UNL1        0.1020
      7  C         24.5030  -21.0590  -10.7350 C.2     1  UNL1        0.0320
      8  C         25.2060  -21.0790  -11.8870 C.2     1  UNL1        0.0810
      9  C         24.9310  -21.9790  -13.0690 C.2     1  UNL1        0.1440
     10  C         26.3320  -20.0810  -11.9960 C.2     1  UNL1        0.2830
     11  N         24.2400  -23.0590  -12.8740 N.2     1  UNL1       -0.2830
     12  N         25.5140  -21.5730  -14.2650 N.pl3   1  UNL1       -0.2780
     13  H         24.1640  -23.6360  -13.7050 H       1  UNL1        0.1880
     14  C         25.2820  -22.0330  -15.5850 C.2     1  UNL1        0.0230
     15  C         26.4610  -20.5540  -14.2320 C.2     1  UNL1        0.1820
     16  C         24.2290  -23.0240  -15.9620 C.3     1  UNL1        0.0690
     17  C         26.0460  -21.4390  -16.5230 C.2     1  UNL1        0.0780
     18  S         27.1200  -20.2530  -15.8480 S.3     1  UNL1       -0.0610
     19  N         26.8760  -19.8590  -13.2380 N.am    1  UNL1       -0.1840
     20  O         26.7310  -19.4760  -11.0060 O.2     1  UNL1       -0.2650
     21  O         19.7300  -22.2020  -11.2660 O.2     1  UNL1       -0.3490
     22  C         19.2420  -20.8690  -11.3830 C.3     1  UNL1        0.1710
     23  C         17.7280  -20.9350  -11.4960 C.3     1  UNL1        0.0340
     24  O         19.9290  -24.1230   -9.5060 O.2     1  UNL1       -0.3440
     25  C         19.7000  -24.5400   -8.1620 C.3     1  UNL1        0.2140
     26  C         18.4190  -23.9200   -7.6430 C.2     1  UNL1       -0.0310
     27  C         17.8250  -22.8180   -8.3030 C.2     1  UNL1        0.0120
     28  C         16.6220  -22.2650   -7.8520 C.2     1  UNL1        0.0400
     29  C         16.0300  -22.8380   -6.7480 C.2     1  UNL1        0.1050
     30  C         16.5890  -23.9160   -6.1050 C.2     1  UNL1        0.1050
     31  O         14.8640  -22.4380   -6.1730 O.2     1  UNL1       -0.3230
     32  C         17.7750  -24.4820   -6.5280 C.2     1  UNL1        0.0490
     33  O         15.8450  -24.3320   -5.0450 O.2     1  UNL1       -0.3230
     34  C         14.7570  -23.3850   -5.0910 C.3     1  UNL1        0.3520
@<TRIPOS>BOND
     1    17    18    1
     2    17    14    2
     3    16    14    1
     4    18    15    1
     5    14    12    1
     6    12    15    1
     7    12     9    1
     8    15    19    2
     9    13    11    1
    10    19    10    1
    11     9    11    2
    12     9     8    1
    13    10     8    1
    14    10    20    2
    15     8     7    2
    16    23    22    1
    17    22    21    1
    18    21     1    1
    19     2     1    2
    20     2     3    1
    21     7     3    1
    22     1     6    1
    23     3     4    2
    24     6    24    1
    25     6     5    2
    26    24    25    1
    27     4     5    1
    28    27    28    1
    29    27    26    2
    30    25    26    1
    31    28    29    2
    32    26    32    1
    33    29    31    1
    34    29    30    1
    35    32    30    2
    36    31    34    1
    37    30    33    1
    38    34    33    1
