@<TRIPOS>MOLECULE
1674_out_ligand_01.pdbqt
 32 35 0 0 0
SMALL
GASTEIGER

@<TRIPOS>ATOM
      1  C         22.2530  -21.9930  -11.3360 C.2     1  UNL1       -0.0380
      2  C         21.6000  -21.4850  -12.4810 C.2     1  UNL1        0.0090
      3  C         20.2170  -21.2860  -12.4960 C.2     1  UNL1        0.0100
      4  C         19.4950  -21.5910  -11.3540 C.2     1  UNL1       -0.0300
      5  C         20.1260  -22.0740  -10.2080 C.2     1  UNL1        0.0440
      6  C         21.4970  -22.2740  -10.1830 C.2     1  UNL1        0.0390
      7  N         19.1800  -22.3030   -9.1920 N.am    1  UNL1       -0.3130
      8  C         19.4730  -22.6660   -7.8870 C.2     1  UNL1        0.2580
      9  O         20.5910  -22.7330   -7.3840 O.2     1  UNL1       -0.2670
     10  C         17.8380  -22.0440   -9.7480 C.2     1  UNL1        0.1370
     11  C         18.0280  -21.4180  -11.1350 C.2     1  UNL1        0.0610
     12  C         23.7530  -22.1820  -11.2930 C.3     1  UNL1        0.1610
     13  N         24.4150  -21.7350  -12.4980 N.am    1  UNL1       -0.3530
     14  C         24.9320  -22.6010  -13.4290 C.2     1  UNL1        0.2540
     15  O         24.9770  -23.8160  -13.2490 O.2     1  UNL1       -0.2680
     16  H         24.3560  -20.7550  -12.7460 H       1  UNL1        0.1630
     17  C         25.4740  -22.0100  -14.7000 C.2     1  UNL1        0.0650
     18  C         24.8820  -22.4690  -15.8920 C.2     1  UNL1        0.0200
     19  C         25.3020  -21.9960  -17.1340 C.2     1  UNL1        0.0010
     20  C         26.3200  -21.0530  -17.2010 C.2     1  UNL1        0.0030
     21  C         26.9170  -20.5800  -16.0290 C.2     1  UNL1        0.0380
     22  C         26.5060  -21.0470  -14.7700 C.2     1  UNL1        0.0840
     23  O         27.0550  -20.6050  -13.5900 O.2     1  UNL1       -0.3500
     24  C         26.8530  -19.2410  -13.2210 C.3     1  UNL1        0.1710
     25  C         26.8430  -19.1680  -11.7050 C.3     1  UNL1        0.0340
     26  C         18.3280  -22.9690   -7.0040 C.2     1  UNL1        0.0320
     27  C         17.5550  -24.1140   -7.2140 C.2     1  UNL1        0.0170
     28  C         16.4840  -24.3900   -6.3630 C.2     1  UNL1        0.0070
     29  C         16.1840  -23.5290   -5.2970 C.2     1  UNL1       -0.0620
     30  C         15.0580  -23.8510   -4.3600 C.3     1  UNL1        0.0480
     31  C         16.9910  -22.4050   -5.0750 C.2     1  UNL1        0.0070
     32  C         18.0630  -22.1240   -5.9240 C.2     1  UNL1        0.0170
@<TRIPOS>BOND
     1    20    19    2
     2    20    21    1
     3    19    18    1
     4    21    22    2
     5    18    17    2
     6    22    17    1
     7    22    23    1
     8    17    14    1
     9    23    24    1
    10    14    15    2
    11    14    13   am
    12    24    25    1
    13    16    13    1
    14    13    12    1
    15     3     2    1
    16     3     4    2
    17     2     1    2
    18     4    11    1
    19     4     5    1
    20     1    12    1
    21     1     6    1
    22    11    10    2
    23     5     6    2
    24     5     7    1
    25    10     7    1
    26     7     8   am
    27     8     9    2
    28     8    26    1
    29    27    26    2
    30    27    28    1
    31    26    32    1
    32    28    29    2
    33    32    31    2
    34    29    31    1
    35    29    30    1
