@<TRIPOS>MOLECULE
16756_out_ligand_01.pdbqt
 39 43 0 0 0
SMALL
GASTEIGER

@<TRIPOS>ATOM
      1  N         19.5190  -23.5070   -9.1040 N.am    1  UNL1       -0.3080
      2  C         20.8650  -23.7320   -9.4110 C.2     1  UNL1        0.2650
      3  O         21.5030  -24.6640   -8.9140 O.2     1  UNL1       -0.2670
      4  C         21.5480  -22.8480  -10.4130 C.2     1  UNL1        0.0740
      5  C         22.6490  -23.3430  -11.0150 C.2     1  UNL1        0.0360
      6  S         20.9730  -21.2470  -10.6490 S.3     1  UNL1       -0.0830
      7  C         19.2340  -21.5890  -10.6360 C.2     1  UNL1        0.0320
      8  C         18.4130  -20.7290  -11.3850 C.2     1  UNL1        0.0210
      9  C         17.0320  -20.9030  -11.4030 C.2     1  UNL1        0.0020
     10  C         16.4670  -21.9380  -10.6730 C.2     1  UNL1        0.0020
     11  C         17.2810  -22.7920   -9.9200 C.2     1  UNL1        0.0310
     12  C         18.6790  -22.6320   -9.8760 C.2     1  UNL1        0.0550
     13  C         23.4730  -22.6530  -12.0120 C.2     1  UNL1       -0.0350
     14  C         24.8590  -22.8410  -12.0430 C.2     1  UNL1        0.0120
     15  C         25.6310  -22.2000  -13.0160 C.2     1  UNL1        0.0180
     16  C         25.0180  -21.3800  -13.9700 C.2     1  UNL1        0.0320
     17  C         23.6340  -21.1680  -13.9200 C.2     1  UNL1        0.0180
     18  C         22.8650  -21.8030  -12.9410 C.2     1  UNL1        0.0120
     19  C         25.8600  -20.7620  -15.0300 C.2     1  UNL1        0.2520
     20  O         27.0740  -20.9360  -15.0390 O.2     1  UNL1       -0.2680
     21  N         25.1750  -20.0470  -15.9900 N.am    1  UNL1       -0.3490
     22  H         24.1750  -20.1820  -16.0480 H       1  UNL1        0.1630
     23  C         25.8290  -19.5570  -17.1920 C.3     1  UNL1        0.1140
     24  C         26.9790  -20.4870  -17.5800 C.3     1  UNL1        0.0370
     25  C         26.2950  -18.1250  -16.9850 C.2     1  UNL1       -0.0360
     26  C         26.3110  -17.2380  -18.0750 C.2     1  UNL1        0.0090
     27  C         26.7250  -15.9150  -17.9100 C.2     1  UNL1        0.0010
     28  C         27.1210  -15.4570  -16.6540 C.2     1  UNL1        0.0000
     29  C         27.0940  -16.3190  -15.5590 C.2     1  UNL1        0.0010
     30  C         26.6870  -17.6450  -15.7230 C.2     1  UNL1        0.0090
     31  C         18.9700  -24.3160   -8.0070 C.3     1  UNL1        0.1710
     32  C         18.2690  -23.4840   -6.9400 C.2     1  UNL1       -0.0330
     33  C         16.9350  -23.7070   -6.5390 C.2     1  UNL1       -0.0540
     34  C         16.3600  -22.8580   -5.5790 C.2     1  UNL1        0.0080
     35  C         16.0770  -24.7870   -7.1350 C.3     1  UNL1        0.0490
     36  C         17.0910  -21.8250   -4.9950 C.2     1  UNL1        0.0070
     37  C         18.4210  -21.6160   -5.3540 C.2     1  UNL1       -0.0610
     38  C         19.2040  -20.4830   -4.7590 C.3     1  UNL1        0.0480
     39  C         18.9940  -22.4390   -6.3290 C.2     1  UNL1        0.0160
@<TRIPOS>BOND
     1    26    27    1
     2    26    25    2
     3    27    28    2
     4    24    23    1
     5    23    25    1
     6    23    21    1
     7    25    30    1
     8    28    29    1
     9    22    21    1
    10    21    19   am
    11    30    29    2
    12    20    19    2
    13    19    16    1
    14    16    17    2
    15    16    15    1
    16    17    18    1
    17    15    14    2
    18    18    13    2
    19    14    13    1
    20    13     5    1
    21     9     8    1
    22     9    10    2
    23     8     7    2
    24     5     4    2
    25    10    11    1
    26     6     7    1
    27     6     4    1
    28     7    12    1
    29     4     2    1
    30    11    12    2
    31    12     1    1
    32     2     1   am
    33     2     3    2
    34     1    31    1
    35    31    32    1
    36    35    33    1
    37    32    33    2
    38    32    39    1
    39    33    34    1
    40    39    37    2
    41    34    36    2
    42    37    36    1
    43    37    38    1
