@<TRIPOS>MOLECULE
16782_out_ligand_01.pdbqt
 35 39 0 0 0
SMALL
GASTEIGER

@<TRIPOS>ATOM
      1  S         15.8880  -23.3650   -9.3980 S.3     1  UNL1       -0.0870
      2  C         16.4290  -21.7160   -9.9210 C.3     1  UNL1        0.1210
      3  C         17.7670  -21.6980  -10.6210 C.2     1  UNL1       -0.0480
      4  C         18.5120  -22.8770  -10.7880 C.2     1  UNL1        0.0090
      5  C         19.7760  -22.8440  -11.3870 C.2     1  UNL1        0.0170
      6  C         20.3110  -21.6250  -11.8250 C.2     1  UNL1        0.0320
      7  C         19.5770  -20.4470  -11.6640 C.2     1  UNL1        0.0170
      8  C         18.3100  -20.4860  -11.0740 C.2     1  UNL1        0.0090
      9  C         21.6730  -21.5440  -12.4130 C.2     1  UNL1        0.2510
     10  O         21.8610  -20.9560  -13.4730 O.2     1  UNL1       -0.2680
     11  N         22.6750  -22.1820  -11.7090 N.am    1  UNL1       -0.3540
     12  H         22.4020  -22.9210  -11.0780 H       1  UNL1        0.1620
     13  C         24.0230  -22.2430  -12.2460 C.3     1  UNL1        0.1550
     14  C         24.7820  -20.9250  -12.0600 C.3     1  UNL1        0.1390
     15  C         25.9590  -21.0510  -11.1070 C.3     1  UNL1        0.0350
     16  C         26.7990  -19.8730  -11.5200 C.3     1  UNL1        0.0290
     17  C         26.6190  -19.8710  -13.0270 C.3     1  UNL1        0.1680
     18  O         25.3590  -20.5010  -13.3110 O.3     1  UNL1       -0.3840
     19  C         16.0070  -23.2480   -7.6720 C.ar    1  UNL1        0.1710
     20  N         15.2380  -22.4900   -6.9160 N.ar    1  UNL1       -0.2210
     21  C         15.6750  -22.7080   -5.6360 C.ar    1  UNL1        0.1050
     22  C         15.2260  -22.1930   -4.4120 C.2     1  UNL1        0.0370
     23  C         16.7550  -23.5930   -5.6220 C.ar    1  UNL1        0.1610
     24  C         15.9010  -22.6150   -3.2640 C.2     1  UNL1        0.0220
     25  C         16.9770  -23.4980   -3.3900 C.2     1  UNL1        0.1190
     26  N         17.4540  -24.0140   -4.5520 N.2     1  UNL1       -0.2410
     27  N         16.9490  -23.9350   -6.9380 N.ar    1  UNL1       -0.3040
     28  C         18.0240  -24.7880   -7.4130 C.3     1  UNL1        0.1710
     29  C         19.2930  -24.0120   -7.6960 C.2     1  UNL1       -0.0400
     30  C         20.3380  -24.6060   -8.4250 C.2     1  UNL1        0.0120
     31  C         21.5150  -23.9000   -8.6890 C.2     1  UNL1        0.0430
     32  C         21.6540  -22.6000   -8.2210 C.2     1  UNL1        0.1160
     33  F         22.7950  -21.9260   -8.4710 F       1  UNL1       -0.2060
     34  C         20.6330  -21.9920   -7.4980 C.2     1  UNL1        0.0430
     35  C         19.4530  -22.6950   -7.2360 C.2     1  UNL1        0.0120
@<TRIPOS>BOND
     1    10     9    2
     2    18    17    1
     3    18    14    1
     4    17    16    1
     5     9     6    1
     6     9    11   am
     7    13    14    1
     8    13    11    1
     9    14    15    1
    10     6     7    2
    11     6     5    1
    12    11    12    1
    13     7     8    1
    14    16    15    1
    15     5     4    2
    16     8     3    2
    17     4     3    1
    18     3     2    1
    19     2     1    1
    20     1    19    1
    21    31    30    1
    22    31    32    2
    23    33    32    1
    24    30    29    2
    25    32    34    1
    26    29    28    1
    27    29    35    1
    28    19    27   ar
    29    19    20   ar
    30    34    35    2
    31    28    27    1
    32    27    23   ar
    33    20    21   ar
    34    21    23   ar
    35    21    22    1
    36    23    26    1
    37    26    25    2
    38    22    24    2
    39    25    24    1
