@<TRIPOS>MOLECULE
16783_out_ligand_01.pdbqt
 31 34 0 0 0
SMALL
GASTEIGER

@<TRIPOS>ATOM
      1  C         18.3380  -22.5670   -9.8850 C.2     1  UNL1        0.0320
      2  C         19.2970  -23.4390   -9.3600 C.2     1  UNL1        0.0190
      3  C         20.6080  -23.4110   -9.8520 C.2     1  UNL1        0.0300
      4  C         20.9760  -22.5200  -10.8680 C.2     1  UNL1        0.0360
      5  C         20.0080  -21.6670  -11.4010 C.2     1  UNL1        0.0300
      6  C         18.6950  -21.6940  -10.9170 C.2     1  UNL1        0.0190
      7  N         22.3120  -22.5640  -11.3060 N.am    1  UNL1       -0.3090
      8  C         23.4050  -21.8830  -10.7990 C.2     1  UNL1        0.3270
      9  O         23.3930  -21.2000   -9.7770 O.2     1  UNL1       -0.2460
     10  N         24.5910  -22.1190  -11.5350 N.am    1  UNL1       -0.2990
     11  C         25.8220  -21.5980  -10.9300 C.3     1  UNL1        0.1340
     12  C         24.5850  -22.2700  -12.9570 C.2     1  UNL1        0.0450
     13  C         27.1200  -22.2890  -11.3330 C.3     1  UNL1        0.0210
     14  C         26.9060  -23.7820  -11.5260 C.3     1  UNL1        0.0060
     15  C         26.4200  -24.1110  -12.9360 C.3     1  UNL1        0.0410
     16  C         25.4410  -23.1740  -13.6120 C.2     1  UNL1       -0.0310
     17  C         25.3490  -23.2880  -15.0160 C.2     1  UNL1        0.0090
     18  C         24.4540  -22.5160  -15.7570 C.2     1  UNL1        0.0010
     19  C         23.6250  -21.6140  -15.1070 C.2     1  UNL1        0.0020
     20  C         23.6900  -21.4930  -13.7200 C.2     1  UNL1        0.0300
     21  H         22.5350  -23.2370  -12.0270 H       1  UNL1        0.1700
     22  C         16.9310  -22.5590   -9.4000 C.2     1  UNL1        0.2510
     23  O         16.0340  -22.1370  -10.1190 O.2     1  UNL1       -0.2680
     24  N         16.7300  -23.0080   -8.1120 N.am    1  UNL1       -0.3540
     25  H         17.5270  -23.1680   -7.5110 H       1  UNL1        0.1620
     26  C         15.4170  -22.9890   -7.4890 C.3     1  UNL1        0.1550
     27  C         15.4360  -22.4690   -6.0490 C.3     1  UNL1        0.1390
     28  C         14.8890  -23.4360   -5.0120 C.3     1  UNL1        0.0350
     29  C         15.5980  -22.9770   -3.7630 C.3     1  UNL1        0.0290
     30  C         16.9710  -22.6310   -4.2970 C.3     1  UNL1        0.1680
     31  O         16.7930  -22.1800   -5.6470 O.3     1  UNL1       -0.3840
@<TRIPOS>BOND
     1    18    19    2
     2    18    17    1
     3    19    20    1
     4    17    16    2
     5    20    12    2
     6    16    12    1
     7    16    15    1
     8    12    10    1
     9    15    14    1
    10    21     7    1
    11    10    11    1
    12    10     8   am
    13    14    13    1
    14     5     6    1
    15     5     4    2
    16    13    11    1
    17     7     4    1
    18     7     8   am
    19     6     1    2
    20     4     3    1
    21     8     9    2
    22    23    22    2
    23     1    22    1
    24     1     2    1
    25     3     2    2
    26    22    24   am
    27    24    25    1
    28    24    26    1
    29    26    27    1
    30    27    31    1
    31    27    28    1
    32    31    30    1
    33    28    29    1
    34    30    29    1
