@<TRIPOS>MOLECULE
16792_out_ligand_01.pdbqt
 32 35 0 0 0
SMALL
GASTEIGER

@<TRIPOS>ATOM
      1  C         19.0660  -22.9770   -8.0620 C.2     1  UNL1        0.2580
      2  O         20.1370  -23.2780   -7.5460 O.2     1  UNL1       -0.2670
      3  N         18.8830  -22.4000   -9.3090 N.am    1  UNL1       -0.3130
      4  C         17.6030  -21.9260   -9.8720 C.2     1  UNL1        0.1370
      5  C         17.9180  -21.2090  -11.1900 C.2     1  UNL1        0.0610
      6  C         19.3580  -21.5530  -11.3920 C.2     1  UNL1       -0.0300
      7  C         20.1430  -21.2690  -12.4960 C.2     1  UNL1        0.0100
      8  C         21.4820  -21.6600  -12.4740 C.2     1  UNL1        0.0090
      9  C         22.0340  -22.3120  -11.3490 C.2     1  UNL1       -0.0380
     10  C         21.2190  -22.5780  -10.2340 C.2     1  UNL1        0.0390
     11  C         19.8870  -22.2010  -10.2750 C.2     1  UNL1        0.0440
     12  C         23.4870  -22.7140  -11.3410 C.3     1  UNL1        0.1630
     13  N         24.3290  -21.6410  -11.8300 N.am    1  UNL1       -0.3390
     14  C         24.6120  -21.5120  -13.1760 C.2     1  UNL1        0.3200
     15  O         24.2440  -22.3300  -14.0080 O.2     1  UNL1       -0.2470
     16  N         25.3520  -20.3720  -13.4080 N.am    1  UNL1       -0.3090
     17  H         25.6890  -19.9030  -12.5810 H       1  UNL1        0.1700
     18  H         24.2960  -20.7900  -11.2900 H       1  UNL1        0.1640
     19  C         25.7870  -19.8580  -14.6440 C.2     1  UNL1        0.0360
     20  C         26.3940  -18.5930  -14.6290 C.2     1  UNL1        0.0320
     21  C         26.8440  -18.0060  -15.8140 C.2     1  UNL1        0.0440
     22  C         26.6890  -18.6850  -17.0150 C.2     1  UNL1        0.1160
     23  F         27.1200  -18.1220  -18.1510 F       1  UNL1       -0.2060
     24  C         26.0920  -19.9370  -17.0500 C.2     1  UNL1        0.0440
     25  C         25.6380  -20.5250  -15.8640 C.2     1  UNL1        0.0320
     26  C         17.8430  -23.2450   -7.2750 C.2     1  UNL1        0.0320
     27  C         17.5360  -22.4390   -6.1770 C.2     1  UNL1        0.0170
     28  C         16.3840  -22.6980   -5.4320 C.2     1  UNL1        0.0070
     29  C         15.5330  -23.7520   -5.7900 C.2     1  UNL1       -0.0620
     30  C         14.2980  -24.0470   -4.9890 C.3     1  UNL1        0.0480
     31  C         15.8470  -24.5440   -6.9050 C.2     1  UNL1        0.0070
     32  C         16.9970  -24.2890   -7.6540 C.2     1  UNL1        0.0170
@<TRIPOS>BOND
     1    23    22    1
     2    24    22    2
     3    24    25    1
     4    22    21    1
     5    25    19    2
     6    21    20    2
     7    19    20    1
     8    19    16    1
     9    15    14    2
    10    16    14   am
    11    16    17    1
    12    14    13   am
    13     7     8    1
    14     7     6    2
    15     8     9    2
    16    13    12    1
    17    13    18    1
    18     6     5    1
    19     6    11    1
    20     9    12    1
    21     9    10    1
    22     5     4    2
    23    11    10    2
    24    11     3    1
    25     4     3    1
    26     3     1   am
    27     1     2    2
    28     1    26    1
    29    32    26    2
    30    32    31    1
    31    26    27    1
    32    31    29    2
    33    27    28    2
    34    29    28    1
    35    29    30    1
