@<TRIPOS>MOLECULE
16791_out_ligand_01.pdbqt
 35 39 0 0 0
SMALL
GASTEIGER

@<TRIPOS>ATOM
      1  C         19.2210  -22.9950   -9.3030 C.2     1  UNL1       -0.0160
      2  C         17.9870  -22.6860   -9.9160 C.2     1  UNL1        0.0130
      3  C         17.9070  -21.7920  -10.9860 C.2     1  UNL1        0.0430
      4  C         19.0590  -21.1920  -11.4680 C.2     1  UNL1        0.1170
      5  F         18.9820  -20.3380  -12.4960 F       1  UNL1       -0.2060
      6  C         20.2900  -21.4580  -10.8920 C.2     1  UNL1        0.0680
      7  C         20.3740  -22.3350   -9.7970 C.2     1  UNL1        0.0900
      8  S         22.0100  -22.5220   -9.0930 S.O2    1  UNL1        0.2630
      9  O         22.5140  -23.8050   -9.5340 O.2     1  UNL1       -0.2000
     10  O         21.9890  -22.1740   -7.6910 O.2     1  UNL1       -0.2000
     11  N         22.9100  -21.3520   -9.9070 N.pl3   1  UNL1       -0.2810
     12  H         23.2360  -20.6070   -9.2980 H       1  UNL1        0.1790
     13  C         23.6900  -21.7130  -11.0400 C.2     1  UNL1        0.0420
     14  C         23.0520  -21.8920  -12.2660 C.2     1  UNL1        0.0310
     15  C         23.8000  -22.1960  -13.4090 C.2     1  UNL1        0.0160
     16  C         25.1970  -22.3260  -13.3460 C.2     1  UNL1       -0.0000
     17  C         25.8200  -22.1580  -12.1000 C.2     1  UNL1        0.0160
     18  C         25.0720  -21.8580  -10.9530 C.2     1  UNL1        0.0310
     19  C         25.9860  -22.6100  -14.5450 C.2     1  UNL1        0.1130
     20  C         26.4400  -21.8670  -15.6130 C.2     1  UNL1        0.0610
     21  C         27.1200  -22.7980  -16.4250 C.2     1  UNL1        0.1490
     22  N         27.1090  -24.0240  -15.8990 N.2     1  UNL1       -0.1400
     23  O         26.3950  -23.9070  -14.7160 O.2     1  UNL1       -0.2130
     24  C         19.2960  -23.9980   -8.1610 C.3     1  UNL1        0.1760
     25  N         18.5140  -23.6680   -6.9820 N.am    1  UNL1       -0.2740
     26  C         17.5170  -24.4690   -6.4780 C.2     1  UNL1        0.2800
     27  C         17.0310  -23.7940   -5.2640 C.2     1  UNL1        0.1400
     28  O         17.1010  -25.5220   -6.9320 O.2     1  UNL1       -0.2650
     29  N         16.0410  -24.2170   -4.4570 N.2     1  UNL1       -0.2540
     30  C         17.7660  -22.6430   -5.0980 C.2     1  UNL1        0.0670
     31  C         15.7980  -23.3950   -3.4050 C.2     1  UNL1        0.1170
     32  C         16.4950  -22.2030   -3.1530 C.2     1  UNL1        0.0200
     33  C         17.5140  -21.8100   -4.0270 C.2     1  UNL1        0.0210
     34  C         18.7250  -22.5670   -6.1960 C.2     1  UNL1        0.2630
     35  O         19.5310  -21.6640   -6.3290 O.2     1  UNL1       -0.2670
@<TRIPOS>BOND
     1    21    22    2
     2    21    20    1
     3    22    23    1
     4    20    19    2
     5    23    19    1
     6    19    16    1
     7    15    16    2
     8    15    14    1
     9    16    17    1
    10     5     4    1
    11    14    13    2
    12    17    18    2
    13     4     3    2
    14     4     6    1
    15    13    18    1
    16    13    11    1
    17     3     2    1
    18     6     7    2
    19     2     1    2
    20    11    12    1
    21    11     8    1
    22     7     1    1
    23     7     8    1
    24     9     8    2
    25     1    24    1
    26     8    10    2
    27    24    25    1
    28    25    26   am
    29    25    34   am
    30    28    26    2
    31    26    27    1
    32    35    34    2
    33    34    30    1
    34    27    30    2
    35    27    29    1
    36    30    33    1
    37    29    31    2
    38    33    32    2
    39    31    32    1
