@<TRIPOS>MOLECULE
16821_out_ligand_01.pdbqt
 35 38 0 0 0
SMALL
GASTEIGER

@<TRIPOS>ATOM
      1  C         15.6910  -23.5310   -9.5200 C.3     1  UNL1        0.0330
      2  C         16.6210  -22.3980   -9.0700 C.3     1  UNL1        0.0930
      3  C         17.2060  -21.6530  -10.2930 C.3     1  UNL1        0.0660
      4  C         18.6200  -22.1370  -10.3030 C.2     1  UNL1       -0.0290
      5  C         19.5830  -21.8780  -11.2630 C.2     1  UNL1        0.0100
      6  C         20.8780  -22.3550  -11.0490 C.2     1  UNL1        0.0090
      7  C         21.2010  -23.0920   -9.8900 C.2     1  UNL1       -0.0380
      8  C         20.2070  -23.3200   -8.9220 C.2     1  UNL1        0.0390
      9  C         18.9240  -22.8450   -9.1410 C.2     1  UNL1        0.0440
     10  N         17.7860  -22.9290   -8.3090 N.am    1  UNL1       -0.3090
     11  C         17.7650  -23.5390   -7.0600 C.2     1  UNL1        0.2580
     12  O         18.6610  -24.2290   -6.5800 O.2     1  UNL1       -0.2670
     13  C         22.6110  -23.5850   -9.6510 C.3     1  UNL1        0.1630
     14  N         23.4840  -23.2920  -10.7710 N.am    1  UNL1       -0.3390
     15  C         24.1330  -22.0800  -10.8720 C.2     1  UNL1        0.3210
     16  O         24.0820  -21.2360   -9.9870 O.2     1  UNL1       -0.2470
     17  N         24.8150  -21.9800  -12.0680 N.am    1  UNL1       -0.3080
     18  H         24.8430  -22.8380  -12.6080 H       1  UNL1        0.1700
     19  H         23.2950  -23.8030  -11.6200 H       1  UNL1        0.1640
     20  C         25.5320  -20.8690  -12.5790 C.2     1  UNL1        0.0510
     21  C         26.4150  -20.1300  -11.7780 C.2     1  UNL1        0.0300
     22  C         27.1150  -19.0290  -12.2860 C.2     1  UNL1        0.0020
     23  C         26.9410  -18.6440  -13.6080 C.2     1  UNL1        0.0010
     24  C         26.0670  -19.3600  -14.4210 C.2     1  UNL1        0.0180
     25  C         25.3500  -20.4720  -13.9220 C.2     1  UNL1        0.0740
     26  C         24.4380  -21.1880  -14.8870 C.3     1  UNL1        0.4190
     27  F         24.7750  -22.4970  -15.1120 F       1  UNL1       -0.1660
     28  F         23.1380  -21.2140  -14.4670 F       1  UNL1       -0.1660
     29  F         24.4200  -20.6010  -16.1160 F       1  UNL1       -0.1660
     30  C         16.5630  -23.3490   -6.2130 C.2     1  UNL1        0.0320
     31  C         16.4720  -22.2630   -5.3350 C.2     1  UNL1        0.0170
     32  C         15.3490  -22.1250   -4.5170 C.2     1  UNL1        0.0010
     33  C         14.3310  -23.0810   -4.5600 C.2     1  UNL1        0.0000
     34  C         14.4360  -24.1810   -5.4130 C.2     1  UNL1        0.0010
     35  C         15.5570  -24.3220   -6.2350 C.2     1  UNL1        0.0170
@<TRIPOS>BOND
     1    29    26    1
     2    27    26    1
     3    26    28    1
     4    26    25    1
     5    24    25    1
     6    24    23    2
     7    25    20    2
     8    23    22    1
     9    18    17    1
    10    20    17    1
    11    20    21    1
    12    22    21    2
    13    17    15   am
    14    19    14    1
    15     5     6    1
    16     5     4    2
    17     6     7    2
    18    15    14   am
    19    15    16    2
    20    14    13    1
    21     4     3    1
    22     4     9    1
    23     3     2    1
    24     7    13    1
    25     7     8    1
    26     1     2    1
    27     9     8    2
    28     9    10    1
    29     2    10    1
    30    10    11   am
    31    11    12    2
    32    11    30    1
    33    35    30    2
    34    35    34    1
    35    30    31    1
    36    34    33    2
    37    31    32    2
    38    33    32    1
