@<TRIPOS>MOLECULE
16827_out_ligand_01.pdbqt
 35 40 0 0 0
SMALL
GASTEIGER

@<TRIPOS>ATOM
      1  C         21.3570  -22.1500  -11.4700 C.2     1  UNL1        0.0320
      2  C         21.6340  -21.4050  -12.6220 C.2     1  UNL1        0.0170
      3  C         22.9170  -21.4260  -13.1780 C.2     1  UNL1        0.0100
      4  C         23.9410  -22.1810  -12.5890 C.2     1  UNL1       -0.0400
      5  C         23.6570  -22.9150  -11.4270 C.2     1  UNL1        0.0100
      6  C         22.3760  -22.8940  -10.8680 C.2     1  UNL1        0.0170
      7  C         25.3250  -22.2170  -13.2040 C.3     1  UNL1        0.1720
      8  N         25.4600  -21.3110  -14.3380 N.am    1  UNL1       -0.2910
      9  C         25.9260  -20.0180  -14.1120 C.2     1  UNL1        0.2760
     10  O         26.1850  -19.5890  -12.9890 O.2     1  UNL1       -0.2650
     11  C         26.0820  -19.2030  -15.2900 C.2     1  UNL1        0.1080
     12  C         26.5250  -17.8980  -15.4080 C.2     1  UNL1        0.0370
     13  N         25.7850  -19.6660  -16.5460 N.pl3   1  UNL1       -0.3140
     14  C         26.4950  -17.5610  -16.7790 C.2     1  UNL1        0.0200
     15  C         26.0350  -18.6690  -17.4600 C.2     1  UNL1        0.0980
     16  C         25.3020  -20.9660  -16.7580 C.2     1  UNL1        0.0860
     17  C         24.9830  -21.4450  -18.0300 C.2     1  UNL1        0.0350
     18  C         25.1410  -21.7880  -15.6390 C.2     1  UNL1        0.1600
     19  C         24.5010  -22.7410  -18.1530 C.2     1  UNL1        0.0220
     20  C         24.3610  -23.4970  -17.0050 C.2     1  UNL1        0.1190
     21  N         24.6680  -23.0510  -15.7660 N.2     1  UNL1       -0.2410
     22  C         20.0060  -22.1620  -10.8450 C.2     1  UNL1        0.2520
     23  O         19.2950  -21.1640  -10.8860 O.2     1  UNL1       -0.2680
     24  N         19.6450  -23.3280  -10.2040 N.am    1  UNL1       -0.3480
     25  H         20.3710  -23.9880   -9.9700 H       1  UNL1        0.1630
     26  C         18.4170  -23.4110   -9.4240 C.3     1  UNL1        0.1180
     27  C         17.2390  -22.8950  -10.2770 C.3     1  UNL1        0.0300
     28  C         15.9770  -22.4990   -9.5030 C.3     1  UNL1        0.0070
     29  C         16.0200  -22.8370   -8.0180 C.3     1  UNL1        0.0390
     30  C         17.3230  -22.3840   -7.4130 C.2     1  UNL1       -0.0500
     31  C         17.3580  -21.7530   -6.1650 C.2     1  UNL1        0.0070
     32  C         18.5190  -22.6680   -8.1020 C.2     1  UNL1       -0.0290
     33  C         18.5790  -21.4000   -5.5940 C.2     1  UNL1        0.0010
     34  C         19.7680  -21.6960   -6.2570 C.2     1  UNL1        0.0010
     35  C         19.7400  -22.3370   -7.4960 C.2     1  UNL1        0.0100
@<TRIPOS>BOND
     1    19    17    1
     2    19    20    2
     3    17    16    2
     4    15    14    2
     5    15    13    1
     6    20    21    1
     7    14    12    1
     8    16    13    1
     9    16    18    1
    10    13    11    1
    11    21    18    2
    12    18     8    1
    13    12    11    2
    14    11     9    1
    15     8     9   am
    16     8     7    1
    17     9    10    2
    18     7     4    1
    19     3     2    1
    20     3     4    2
    21     2     1    2
    22     4     5    1
    23     1     6    1
    24     1    22    1
    25     5     6    2
    26    23    22    2
    27    22    24   am
    28    27    28    1
    29    27    26    1
    30    24    25    1
    31    24    26    1
    32    28    29    1
    33    26    32    1
    34    32    35    1
    35    32    30    2
    36    29    30    1
    37    35    34    2
    38    30    31    1
    39    34    33    1
    40    31    33    2
