@<TRIPOS>MOLECULE
16835_out_ligand_01.pdbqt
 32 35 0 0 0
SMALL
GASTEIGER

@<TRIPOS>ATOM
      1  C         22.3970  -23.1840   -9.0500 C.2     1  UNL1       -0.0400
      2  C         21.4290  -24.1920   -9.2350 C.2     1  UNL1        0.0110
      3  C         20.2130  -24.1660   -8.5410 C.2     1  UNL1        0.0310
      4  C         19.9730  -23.1210   -7.6680 C.2     1  UNL1        0.0430
      5  C         20.9230  -22.1150   -7.4830 C.2     1  UNL1       -0.0290
      6  C         22.1340  -22.1300   -8.1630 C.2     1  UNL1        0.0180
      7  C         20.4670  -21.1140   -6.4720 C.2     1  UNL1        0.0610
      8  C         19.0460  -21.5980   -6.1570 C.2     1  UNL1        0.1370
      9  N         18.8390  -22.8710   -6.8720 N.am    1  UNL1       -0.3130
     10  C         17.7440  -23.7110   -6.7510 C.2     1  UNL1        0.2580
     11  O         17.6090  -24.8170   -7.2670 O.2     1  UNL1       -0.2670
     12  C         23.6910  -23.2290   -9.8270 C.3     1  UNL1        0.1620
     13  N         23.6970  -22.2360  -10.8800 N.am    1  UNL1       -0.3390
     14  C         24.3470  -22.4810  -12.0740 C.2     1  UNL1        0.3200
     15  N         24.1540  -21.4340  -12.9510 N.am    1  UNL1       -0.3090
     16  O         25.0110  -23.4890  -12.2690 O.2     1  UNL1       -0.2470
     17  H         23.7690  -20.5970  -12.5430 H       1  UNL1        0.1700
     18  H         22.8620  -21.6740  -10.9480 H       1  UNL1        0.1640
     19  C         24.5830  -21.3410  -14.2890 C.2     1  UNL1        0.0370
     20  C         24.2960  -22.2950  -15.2670 C.2     1  UNL1        0.0360
     21  C         24.7470  -22.1310  -16.5860 C.2     1  UNL1       -0.0590
     22  C         25.5090  -21.0050  -16.9170 C.2     1  UNL1        0.0130
     23  C         24.4660  -23.1890  -17.6130 C.3     1  UNL1        0.0480
     24  C         25.7880  -20.0270  -15.9570 C.2     1  UNL1       -0.0590
     25  C         26.6250  -18.8330  -16.3120 C.3     1  UNL1        0.0480
     26  C         25.3290  -20.2080  -14.6450 C.2     1  UNL1        0.0360
     27  C         16.6370  -23.2410   -5.8930 C.2     1  UNL1        0.0320
     28  C         16.6820  -23.4440   -4.5110 C.2     1  UNL1        0.0170
     29  C         15.6320  -22.9860   -3.7160 C.2     1  UNL1        0.0010
     30  C         14.5520  -22.3210   -4.3000 C.2     1  UNL1        0.0000
     31  C         14.5220  -22.1020   -5.6800 C.2     1  UNL1        0.0010
     32  C         15.5690  -22.5570   -6.4810 C.2     1  UNL1        0.0170
@<TRIPOS>BOND
     1    23    21    1
     2    22    21    2
     3    22    24    1
     4    21    20    1
     5    25    24    1
     6    24    26    2
     7    20    19    2
     8    26    19    1
     9    19    15    1
    10    15    17    1
    11    15    14   am
    12    16    14    2
    13    14    13   am
    14    18    13    1
    15    13    12    1
    16    12     1    1
    17     2     1    2
    18     2     3    1
    19     1     6    1
    20     3     4    2
    21     6     5    2
    22     4     5    1
    23     4     9    1
    24     5     7    1
    25    11    10    2
    26     9    10   am
    27     9     8    1
    28    10    27    1
    29    32    27    2
    30    32    31    1
    31     7     8    2
    32    27    28    1
    33    31    30    2
    34    28    29    2
    35    30    29    1
