@<TRIPOS>MOLECULE
1684_out_ligand_01.pdbqt
 37 41 0 0 0
SMALL
GASTEIGER

@<TRIPOS>ATOM
      1  C         22.6900  -23.3350  -10.0770 C.2     1  UNL1        0.0540
      2  C         21.3660  -23.0910  -10.0200 C.2     1  UNL1        0.1450
      3  O         20.7830  -22.1550  -10.8520 O.2     1  UNL1       -0.3030
      4  C         19.4390  -21.9280  -10.7380 C.2     1  UNL1        0.1030
      5  C         18.9190  -20.9610  -11.6030 C.2     1  UNL1        0.0390
      6  C         17.5620  -20.6540  -11.5720 C.2     1  UNL1        0.0030
      7  C         16.7310  -21.3180  -10.6760 C.2     1  UNL1        0.0020
      8  C         17.2560  -22.2860   -9.8130 C.2     1  UNL1        0.0330
      9  C         18.6220  -22.6040   -9.8270 C.2     1  UNL1        0.0710
     10  N         19.2020  -23.5750   -8.9630 N.am    1  UNL1       -0.3050
     11  C         20.5630  -23.8530   -9.0080 C.2     1  UNL1        0.2820
     12  O         21.1070  -24.6700   -8.2630 O.2     1  UNL1       -0.2650
     13  C         23.6170  -22.6710  -11.0010 C.2     1  UNL1       -0.0330
     14  C         23.7110  -23.0550  -12.3430 C.2     1  UNL1        0.0120
     15  C         24.6100  -22.4140  -13.2000 C.2     1  UNL1        0.0180
     16  C         25.4400  -21.3930  -12.7200 C.2     1  UNL1        0.0320
     17  C         25.3480  -21.0070  -11.3760 C.2     1  UNL1        0.0180
     18  C         24.4480  -21.6510  -10.5220 C.2     1  UNL1        0.0120
     19  C         26.3730  -20.7330  -13.6750 C.2     1  UNL1        0.2510
     20  O         27.1150  -19.8340  -13.2910 O.2     1  UNL1       -0.2680
     21  N         26.3200  -21.1620  -14.9860 N.am    1  UNL1       -0.3550
     22  H         25.5440  -21.7380  -15.2860 H       1  UNL1        0.1620
     23  C         27.1180  -20.5170  -16.0160 C.3     1  UNL1        0.1530
     24  C         26.2910  -19.5270  -16.8600 C.3     1  UNL1        0.2920
     25  N         26.7250  -18.1300  -16.9020 N.3     1  UNL1        0.0900
     26  C         26.6760  -17.4140  -15.6350 C.3     1  UNL1        0.2720
     27  C         26.9500  -15.9800  -16.0630 C.3     1  UNL1        0.0320
     28  C         26.4540  -15.8930  -17.5040 C.3     1  UNL1        0.0320
     29  C         25.9940  -17.3010  -17.8570 C.3     1  UNL1        0.2720
     30  C         18.3880  -24.3070   -7.9890 C.3     1  UNL1        0.1740
     31  C         17.9340  -23.4680   -6.8170 C.2     1  UNL1       -0.0010
     32  C         18.7870  -22.5380   -6.2070 C.2     1  UNL1        0.0120
     33  C         18.3560  -21.7900   -5.1080 C.2     1  UNL1        0.0010
     34  C         17.0720  -21.9660   -4.5990 C.2     1  UNL1        0.0030
     35  C         16.2190  -22.8980   -5.1880 C.2     1  UNL1        0.0430
     36  C         16.6560  -23.6400   -6.2800 C.2     1  UNL1        0.1240
     37  F         15.8190  -24.5360   -6.8230 F       1  UNL1       -0.2050
@<TRIPOS>BOND
     1    29    28    1
     2    29    25    1
     3    28    27    1
     4    25    24    1
     5    25    26    1
     6    24    23    1
     7    27    26    1
     8    23    21    1
     9    22    21    1
    10    21    19   am
    11    19    20    2
    12    19    16    1
    13    15    16    2
    14    15    14    1
    15    16    17    1
    16    14    13    2
    17     5     6    1
    18     5     4    2
    19     6     7    2
    20    17    18    2
    21    13    18    1
    22    13     1    1
    23     3     4    1
    24     3     2    1
    25     4     9    1
    26     7     8    1
    27     1     2    2
    28     2    11    1
    29     9     8    2
    30     9    10    1
    31    11    10   am
    32    11    12    2
    33    10    30    1
    34    30    31    1
    35    37    36    1
    36    31    36    2
    37    31    32    1
    38    36    35    1
    39    32    33    2
    40    35    34    2
    41    33    34    1
