@<TRIPOS>MOLECULE
16849_out_ligand_01.pdbqt
 30 33 0 0 0
SMALL
GASTEIGER

@<TRIPOS>ATOM
      1  C         20.7670  -21.8350  -10.5310 C.2     1  UNL1        0.0720
      2  C         20.1140  -22.5140   -9.4880 C.2     1  UNL1        0.0450
      3  C         18.7160  -22.5790   -9.4650 C.2     1  UNL1        0.0760
      4  C         17.9540  -21.9960  -10.4820 C.2     1  UNL1        0.0280
      5  C         18.6000  -21.3280  -11.5200 C.2     1  UNL1        0.0450
      6  C         19.9930  -21.2490  -11.5370 C.2     1  UNL1        0.1320
      7  F         20.5690  -20.5890  -12.5530 F       1  UNL1       -0.2050
      8  S         17.8830  -23.4580   -8.1530 S.O2    1  UNL1        0.2480
      9  O         16.5580  -23.7640   -8.6540 O.2     1  UNL1       -0.2050
     10  O         18.7680  -24.5090   -7.6970 O.2     1  UNL1       -0.2050
     11  N         17.7860  -22.2580   -6.9500 N.pl3   1  UNL1       -0.1710
     12  C         19.0940  -21.6730   -6.4930 C.3     1  UNL1        0.1180
     13  C         18.8790  -21.2140   -5.0430 C.3     1  UNL1        0.0560
     14  C         17.6780  -22.0020   -4.6410 C.2     1  UNL1       -0.0350
     15  C         17.1360  -22.1240   -3.3700 C.2     1  UNL1        0.0090
     16  C         17.0700  -22.5920   -5.7500 C.2     1  UNL1        0.0310
     17  C         15.9520  -22.8470   -3.2230 C.2     1  UNL1        0.0010
     18  C         15.3190  -23.4100   -4.3400 C.2     1  UNL1        0.0020
     19  C         15.8690  -23.2690   -5.6180 C.2     1  UNL1        0.0250
     20  C         22.2590  -21.7550  -10.4960 C.2     1  UNL1        0.2590
     21  O         22.7670  -21.0590   -9.6220 O.2     1  UNL1       -0.2670
     22  N         22.9420  -22.4750  -11.4570 N.am    1  UNL1       -0.3220
     23  H         22.3930  -22.9950  -12.1360 H       1  UNL1        0.1690
     24  C         24.3430  -22.5830  -11.6380 C.2     1  UNL1        0.0520
     25  C         25.1930  -23.1730  -10.6980 C.2     1  UNL1        0.0310
     26  C         26.5710  -23.2540  -10.9280 C.2     1  UNL1        0.0020
     27  C         27.1200  -22.7460  -12.1020 C.2     1  UNL1        0.0020
     28  C         26.2910  -22.1560  -13.0520 C.2     1  UNL1        0.0210
     29  C         24.9140  -22.0760  -12.8220 C.2     1  UNL1        0.0370
     30 BR         23.8470  -21.2590  -14.1700 Br      1  UNL1       -0.0490
@<TRIPOS>BOND
     1    30    29    1
     2    28    29    1
     3    28    27    2
     4    29    24    2
     5     7     6    1
     6    23    22    1
     7    27    26    1
     8    24    22    1
     9    24    25    1
    10     6     5    1
    11     6     1    2
    12     5     4    2
    13    22    20   am
    14    26    25    2
    15     1    20    1
    16     1     2    1
    17    20    21    2
    18     4     3    1
    19     2     3    2
    20     3     8    1
    21     9     8    2
    22     8    10    2
    23     8    11    1
    24    11    12    1
    25    11    16    1
    26    12    13    1
    27    16    19    1
    28    16    14    2
    29    19    18    2
    30    13    14    1
    31    14    15    1
    32    18    17    1
    33    15    17    2
