@<TRIPOS>MOLECULE
16855_out_ligand_01.pdbqt
 36 39 0 0 0
SMALL
GASTEIGER

@<TRIPOS>ATOM
      1  N         20.4890  -23.7240   -9.1950 N.pl3   1  UNL1       -0.3310
      2  C         19.5480  -24.0340   -8.2330 C.2     1  UNL1        0.1210
      3  C         18.3170  -23.5080   -8.1560 C.2     1  UNL1        0.1300
      4  C         17.9570  -22.4630   -9.1290 C.2     1  UNL1        0.2090
      5  O         16.8870  -21.8680   -9.0870 O.2     1  UNL1       -0.2860
      6  C         18.9400  -22.1500  -10.1910 C.2     1  UNL1        0.0620
      7  C         18.6390  -21.2010  -11.1670 C.2     1  UNL1        0.0210
      8  C         19.5760  -20.9320  -12.1530 C.2     1  UNL1        0.0280
      9  C         20.7730  -21.6350  -12.1470 C.2     1  UNL1        0.0330
     10  C         21.8190  -21.3530  -13.1790 C.3     1  UNL1        0.0700
     11  N         21.0780  -22.5590  -11.2030 N.2     1  UNL1       -0.2350
     12  C         20.1780  -22.8020  -10.2170 C.2     1  UNL1        0.1440
     13  C         21.8750  -24.2100   -9.1500 C.3     1  UNL1        0.2330
     14  C         22.8810  -23.0810   -9.4220 C.2     1  UNL1        0.2400
     15  N         23.6130  -23.2980  -10.5740 N.am    1  UNL1       -0.3260
     16  H         23.2470  -24.0260  -11.1770 H       1  UNL1        0.1690
     17  O         22.9690  -22.1090   -8.6740 O.2     1  UNL1       -0.2710
     18  C         24.6620  -22.5270  -11.1000 C.2     1  UNL1        0.0350
     19  C         25.0950  -21.3210  -10.5590 C.2     1  UNL1        0.0290
     20  C         26.1500  -20.6210  -11.1490 C.2     1  UNL1        0.0030
     21  C         26.7960  -21.1310  -12.2690 C.2     1  UNL1        0.0070
     22  C         26.3920  -22.3530  -12.8100 C.2     1  UNL1       -0.0560
     23  C         25.3170  -23.0350  -12.2270 C.2     1  UNL1        0.0360
     24  C         27.1040  -22.9300  -14.0000 C.3     1  UNL1        0.0340
     25  C         26.5150  -24.2540  -14.4670 C.3     1  UNL1        0.0100
     26  S         17.2260  -24.0560   -6.9430 S.O2    1  UNL1        0.2120
     27  O         17.5910  -25.4080   -6.5520 O.2     1  UNL1       -0.2170
     28  O         15.8560  -23.8000   -7.3670 O.2     1  UNL1       -0.2170
     29  C         17.5210  -22.9770   -5.5410 C.2     1  UNL1        0.0700
     30  C         18.4610  -21.9440   -5.7090 C.2     1  UNL1        0.0310
     31  C         18.7150  -21.0410   -4.6810 C.2     1  UNL1       -0.0610
     32  C         19.6770  -19.9080   -4.8770 C.3     1  UNL1        0.0480
     33  C         18.0220  -21.1800   -3.4780 C.2     1  UNL1        0.0070
     34  C         17.1000  -22.2190   -3.2990 C.2     1  UNL1        0.0090
     35  C         16.8370  -23.1390   -4.3190 C.2     1  UNL1       -0.0400
     36  C         15.8410  -24.2320   -4.0470 C.3     1  UNL1        0.0490
@<TRIPOS>BOND
     1    25    24    1
     2    24    22    1
     3    10     9    1
     4    22    21    2
     5    22    23    1
     6    21    20    1
     7    23    18    2
     8     8     9    2
     9     8     7    1
    10     9    11    1
    11    11    12    2
    12    16    15    1
    13     7     6    2
    14    20    19    2
    15    18    15    1
    16    18    19    1
    17    15    14   am
    18    12     6    1
    19    12     1    1
    20     6     4    1
    21    14    13    1
    22    14    17    2
    23     1    13    1
    24     1     2    1
    25     4     5    2
    26     4     3    1
    27     2     3    2
    28     3    26    1
    29    28    26    2
    30    26    27    2
    31    26    29    1
    32    30    29    2
    33    30    31    1
    34    29    35    1
    35    32    31    1
    36    31    33    2
    37    35    36    1
    38    35    34    2
    39    33    34    1
