@<TRIPOS>MOLECULE
16863_out_ligand_01.pdbqt
 31 34 0 0 0
SMALL
GASTEIGER

@<TRIPOS>ATOM
      1  C         22.4420  -23.1900   -8.9360 C.2     1  UNL1       -0.0400
      2  C         21.4770  -24.1990   -9.1380 C.2     1  UNL1        0.0110
      3  C         20.2400  -24.1610   -8.4850 C.2     1  UNL1        0.0310
      4  C         19.9740  -23.1050   -7.6320 C.2     1  UNL1        0.0430
      5  C         20.9210  -22.0990   -7.4290 C.2     1  UNL1       -0.0290
      6  C         22.1510  -22.1240   -8.0710 C.2     1  UNL1        0.0180
      7  C         20.4330  -21.0830   -6.4470 C.2     1  UNL1        0.0610
      8  C         19.0050  -21.5670   -6.1640 C.2     1  UNL1        0.1370
      9  N         18.8170  -22.8450   -6.8760 N.am    1  UNL1       -0.3130
     10  C         17.7140  -23.6790   -6.7840 C.2     1  UNL1        0.2580
     11  O         17.5890  -24.7860   -7.2980 O.2     1  UNL1       -0.2670
     12  C         23.7580  -23.2470   -9.6710 C.3     1  UNL1        0.1620
     13  N         23.5490  -23.2810  -11.1030 N.am    1  UNL1       -0.3390
     14  C         24.4130  -22.6210  -11.9540 C.2     1  UNL1        0.3200
     15  O         25.3280  -21.9160  -11.5540 O.2     1  UNL1       -0.2470
     16  N         24.0690  -22.8560  -13.2690 N.am    1  UNL1       -0.3090
     17  H         23.1650  -23.2780  -13.4080 H       1  UNL1        0.1700
     18  H         23.1540  -24.1360  -11.4600 H       1  UNL1        0.1640
     19  C         24.7490  -22.4260  -14.4260 C.2     1  UNL1        0.0360
     20  C         24.3750  -21.1900  -14.9670 C.2     1  UNL1        0.0310
     21  C         24.9980  -20.6970  -16.1190 C.2     1  UNL1        0.0260
     22  C         25.9970  -21.4430  -16.7370 C.2     1  UNL1        0.0340
     23 CL         26.7640  -20.8390  -18.1530 Cl      1  UNL1       -0.0840
     24  C         26.3740  -22.6750  -16.2130 C.2     1  UNL1        0.0260
     25  C         25.7510  -23.1670  -15.0610 C.2     1  UNL1        0.0310
     26  C         16.5850  -23.1980   -5.9620 C.2     1  UNL1        0.0320
     27  C         16.5970  -23.3780   -4.5750 C.2     1  UNL1        0.0170
     28  C         15.5260  -22.9100   -3.8140 C.2     1  UNL1        0.0010
     29  C         14.4590  -22.2580   -4.4360 C.2     1  UNL1        0.0000
     30  C         14.4610  -22.0630   -5.8190 C.2     1  UNL1        0.0010
     31  C         15.5290  -22.5280   -6.5860 C.2     1  UNL1        0.0170
@<TRIPOS>BOND
     1    23    22    1
     2    22    24    2
     3    22    21    1
     4    24    25    1
     5    21    20    2
     6    25    19    2
     7    20    19    1
     8    19    16    1
     9    17    16    1
    10    16    14   am
    11    14    15    2
    12    14    13   am
    13    18    13    1
    14    13    12    1
    15    12     1    1
    16     2     1    2
    17     2     3    1
    18     1     6    1
    19     3     4    2
    20     6     5    2
    21     4     5    1
    22     4     9    1
    23     5     7    1
    24    11    10    2
    25     9    10   am
    26     9     8    1
    27    10    26    1
    28    31    26    2
    29    31    30    1
    30     7     8    2
    31    26    27    1
    32    30    29    2
    33    27    28    2
    34    29    28    1
