@<TRIPOS>MOLECULE
16901_out_ligand_01.pdbqt
 28 31 0 0 0
SMALL
GASTEIGER

@<TRIPOS>ATOM
      1  C         18.7110  -22.8730   -9.3480 C.2     1  UNL1        0.2580
      2  O         18.2790  -22.9280  -10.4950 O.2     1  UNL1       -0.2670
      3  N         20.0080  -22.5650   -8.9700 N.am    1  UNL1       -0.3130
      4  C         20.4930  -22.3690   -7.5910 C.2     1  UNL1        0.1370
      5  C         21.9290  -21.8360   -7.6780 C.2     1  UNL1        0.0610
      6  C         22.2160  -21.9500   -9.1390 C.2     1  UNL1       -0.0290
      7  C         23.4150  -21.6740   -9.7840 C.2     1  UNL1        0.0180
      8  C         23.4780  -21.8100  -11.1780 C.2     1  UNL1       -0.0400
      9  C         22.3260  -22.2060  -11.8890 C.2     1  UNL1        0.0110
     10  C         21.1220  -22.4740  -11.2270 C.2     1  UNL1        0.0310
     11  C         21.0820  -22.3440   -9.8500 C.2     1  UNL1        0.0430
     12  C         24.7490  -21.5000  -11.9260 C.3     1  UNL1        0.1610
     13  N         24.6330  -21.9110  -13.3060 N.am    1  UNL1       -0.3520
     14  C         24.7290  -21.0140  -14.3520 C.2     1  UNL1        0.2580
     15  O         24.8320  -19.8060  -14.1410 O.2     1  UNL1       -0.2670
     16  H         24.6840  -22.8990  -13.4940 H       1  UNL1        0.1630
     17  C         24.7090  -21.6120  -15.6840 C.2     1  UNL1        0.0720
     18  C         24.4090  -22.9020  -16.0890 C.2     1  UNL1        0.0250
     19  C         24.5150  -23.0770  -17.5020 C.2     1  UNL1        0.0090
     20  C         24.8870  -21.9150  -18.1370 C.2     1  UNL1        0.0500
     21  S         25.1000  -20.6260  -17.0380 S.3     1  UNL1       -0.0970
     22  C         17.7420  -23.1320   -8.2620 C.2     1  UNL1        0.0320
     23  C         16.7140  -22.2150   -8.0390 C.2     1  UNL1        0.0170
     24  C         15.7880  -22.4520   -7.0220 C.2     1  UNL1        0.0070
     25  C         15.8840  -23.6040   -6.2290 C.2     1  UNL1       -0.0620
     26  C         14.8620  -23.8760   -5.1640 C.3     1  UNL1        0.0480
     27  C         16.9000  -24.5350   -6.4880 C.2     1  UNL1        0.0070
     28  C         17.8290  -24.3030   -7.5040 C.2     1  UNL1        0.0170
@<TRIPOS>BOND
     1    20    19    2
     2    20    21    1
     3    19    18    1
     4    21    17    1
     5    18    17    2
     6    17    14    1
     7    14    15    2
     8    14    13   am
     9    16    13    1
    10    13    12    1
    11    12     8    1
    12     9    10    2
    13     9     8    1
    14    10    11    1
    15     8     7    2
    16     2     1    2
    17    11     6    2
    18    11     3    1
    19     7     6    1
    20     1     3   am
    21     1    22    1
    22     6     5    1
    23     3     4    1
    24    22    23    2
    25    22    28    1
    26    23    24    1
    27     5     4    2
    28    28    27    2
    29    24    25    2
    30    27    25    1
    31    25    26    1
