@<TRIPOS>MOLECULE
16909_out_ligand_01.pdbqt
 36 40 0 0 0
SMALL
GASTEIGER

@<TRIPOS>ATOM
      1  C         16.8090  -21.5960  -10.0730 C.3     1  UNL1        0.1210
      2  C         18.1690  -21.5880  -10.7260 C.2     1  UNL1       -0.0480
      3  C         18.8980  -22.7780  -10.8600 C.2     1  UNL1        0.0090
      4  C         20.1570  -22.7760  -11.4650 C.2     1  UNL1        0.0170
      5  C         20.6940  -21.5860  -11.9600 C.2     1  UNL1        0.0320
      6  C         19.9800  -20.3890  -11.8230 C.2     1  UNL1        0.0170
      7  C         18.7230  -20.3930  -11.2110 C.2     1  UNL1        0.0090
      8  C         22.0270  -21.6270  -12.6160 C.2     1  UNL1        0.2520
      9  N         22.9390  -22.5000  -12.0600 N.am    1  UNL1       -0.3520
     10  H         22.7210  -22.9060  -11.1580 H       1  UNL1        0.1630
     11  O         22.2710  -20.8900  -13.5630 O.2     1  UNL1       -0.2680
     12  C         24.3250  -22.5680  -12.5080 C.3     1  UNL1        0.0880
     13  C         24.5330  -23.8930  -13.2570 C.3     1  UNL1        0.0250
     14  C         25.9750  -24.0720  -13.7160 C.3     1  UNL1        0.0020
     15  C         26.9450  -23.9590  -12.5470 C.3     1  UNL1        0.0010
     16  C         26.7640  -22.6430  -11.7980 C.3     1  UNL1        0.0060
     17  C         25.3150  -22.4390  -11.3230 C.3     1  UNL1        0.0040
     18  C         25.2030  -21.0880  -10.6080 C.3     1  UNL1        0.0120
     19  S         16.2320  -23.2620   -9.6380 S.3     1  UNL1       -0.0870
     20  C         16.2400  -23.1550   -7.9090 C.ar    1  UNL1        0.1700
     21  N         15.3480  -22.5010   -7.2040 N.ar    1  UNL1       -0.2220
     22  C         15.7430  -22.6430   -5.9000 C.ar    1  UNL1        0.0890
     23  C         15.1540  -22.1410   -4.7390 C.2     1  UNL1        0.0530
     24  C         16.9000  -23.4100   -5.8100 C.ar    1  UNL1        0.0830
     25  C         15.7950  -22.4610   -3.5550 C.2     1  UNL1        0.1180
     26  N         16.9200  -23.2070   -3.4610 N.2     1  UNL1       -0.2710
     27  C         17.4930  -23.6900   -4.5870 C.2     1  UNL1        0.1480
     28  N         17.1920  -23.7440   -7.1160 N.ar    1  UNL1       -0.3190
     29  C         18.3090  -24.5740   -7.5460 C.3     1  UNL1        0.1700
     30  C         19.5670  -23.7660   -7.7610 C.2     1  UNL1       -0.0370
     31  C         19.6820  -22.4480   -7.2850 C.2     1  UNL1        0.0090
     32  C         20.8560  -21.7150   -7.4820 C.2     1  UNL1        0.0040
     33  C         21.9280  -22.2870   -8.1620 C.2     1  UNL1        0.0420
     34  C         21.8150  -23.5840   -8.6470 C.2     1  UNL1        0.1170
     35  F         22.8440  -24.1370   -9.3030 F       1  UNL1       -0.2060
     36  C         20.6500  -24.3230   -8.4580 C.2     1  UNL1        0.0510
@<TRIPOS>BOND
     1    14    13    1
     2    14    15    1
     3    11     8    2
     4    13    12    1
     5     8     9   am
     6     8     5    1
     7    15    16    1
     8    12     9    1
     9    12    17    1
    10     9    10    1
    11     5     6    2
    12     5     4    1
    13     6     7    1
    14    16    17    1
    15     4     3    2
    16    17    18    1
    17     7     2    2
    18     3     2    1
    19     2     1    1
    20     1    19    1
    21    19    20    1
    22    35    34    1
    23    34    36    1
    24    34    33    2
    25    36    30    2
    26    33    32    1
    27    20    21   ar
    28    20    28   ar
    29    30    29    1
    30    30    31    1
    31    29    28    1
    32    32    31    2
    33    21    22   ar
    34    28    24   ar
    35    22    24   ar
    36    22    23    1
    37    24    27    1
    38    23    25    2
    39    27    26    2
    40    25    26    1
