@<TRIPOS>MOLECULE
16913_out_ligand_01.pdbqt
 40 44 0 0 0
SMALL
GASTEIGER

@<TRIPOS>ATOM
      1  C         17.3820  -22.5280   -9.9320 C.2     1  UNL1        0.0320
      2  C         17.1730  -21.5480  -10.9100 C.2     1  UNL1        0.0180
      3  C         18.2250  -21.1350  -11.7320 C.2     1  UNL1        0.0120
      4  C         19.5060  -21.6790  -11.5770 C.2     1  UNL1       -0.0330
      5  C         19.7110  -22.6580  -10.5970 C.2     1  UNL1        0.0120
      6  C         18.6610  -23.0740   -9.7700 C.2     1  UNL1        0.0180
      7  C         20.5740  -21.2490  -12.4910 C.2     1  UNL1        0.0540
      8  C         21.8860  -21.5200  -12.3530 C.2     1  UNL1        0.1450
      9  O         22.3550  -22.2460  -11.2770 O.2     1  UNL1       -0.3030
     10  C         22.8150  -20.9850  -13.4040 C.2     1  UNL1        0.2820
     11  C         23.6930  -22.5170  -11.2050 C.2     1  UNL1        0.1030
     12  C         24.0930  -23.2790  -10.1010 C.2     1  UNL1        0.0390
     13  C         24.6160  -22.0790  -12.1570 C.2     1  UNL1        0.0710
     14  C         25.4310  -23.6180   -9.9350 C.2     1  UNL1        0.0030
     15  C         26.3650  -23.1960  -10.8750 C.2     1  UNL1        0.0020
     16  C         25.9620  -22.4340  -11.9760 C.2     1  UNL1        0.0330
     17  N         24.1600  -21.3020  -13.2600 N.am    1  UNL1       -0.3050
     18  O         22.3840  -20.3010  -14.3340 O.2     1  UNL1       -0.2650
     19  C         25.0930  -20.7990  -14.2710 C.3     1  UNL1        0.1740
     20  C         24.9770  -21.4940  -15.6080 C.2     1  UNL1       -0.0010
     21  C         24.6750  -22.8610  -15.7020 C.2     1  UNL1        0.0120
     22  C         24.5970  -23.4880  -16.9480 C.2     1  UNL1        0.0010
     23  C         24.8360  -22.7640  -18.1150 C.2     1  UNL1        0.0030
     24  C         25.1540  -21.4110  -18.0360 C.2     1  UNL1        0.0430
     25  C         25.2260  -20.7910  -16.7910 C.2     1  UNL1        0.1240
     26  F         25.5400  -19.4890  -16.7420 F       1  UNL1       -0.2050
     27  C         16.2280  -22.9430   -9.0860 C.2     1  UNL1        0.2510
     28  N         16.3120  -22.6380   -7.7410 N.am    1  UNL1       -0.3530
     29  H         17.2160  -22.3810   -7.3690 H       1  UNL1        0.1630
     30  O         15.2870  -23.5510   -9.5840 O.2     1  UNL1       -0.2680
     31  C         15.3170  -23.1250   -6.7900 C.3     1  UNL1        0.0810
     32  C         14.6300  -21.9310   -6.1300 C.3     1  UNL1        0.0320
     33  C         15.9860  -24.0580   -5.7660 C.3     1  UNL1        0.0290
     34  C         17.5090  -24.1180   -5.9110 C.3     1  UNL1        0.0400
     35  C         18.1570  -22.8300   -5.4670 C.2     1  UNL1       -0.0580
     36  C         17.8300  -22.2600   -4.2290 C.2     1  UNL1        0.0070
     37  C         18.4130  -21.0580   -3.8270 C.2     1  UNL1        0.0010
     38  C         19.3270  -20.4130   -4.6590 C.2     1  UNL1        0.0000
     39  C         19.6550  -20.9680   -5.8940 C.2     1  UNL1        0.0010
     40  C         19.0700  -22.1700   -6.2990 C.2     1  UNL1        0.0070
@<TRIPOS>BOND
     1    23    24    2
     2    23    22    1
     3    24    25    1
     4    22    21    2
     5    25    26    1
     6    25    20    2
     7    21    20    1
     8    20    19    1
     9    18    10    2
    10    19    17    1
    11    10    17   am
    12    10     8    1
    13    17    13    1
    14     7     8    2
    15     7     4    1
    16     8     9    1
    17    13    16    1
    18    13    11    2
    19    16    15    2
    20     3     4    2
    21     3     2    1
    22     4     5    1
    23     9    11    1
    24    11    12    1
    25     2     1    2
    26    15    14    1
    27     5     6    2
    28    12    14    2
    29     1     6    1
    30     1    27    1
    31    30    27    2
    32    27    28   am
    33    28    29    1
    34    28    31    1
    35    31    32    1
    36    31    33    1
    37    40    39    1
    38    40    35    2
    39    34    33    1
    40    34    35    1
    41    39    38    2
    42    35    36    1
    43    38    37    1
    44    36    37    2
