@<TRIPOS>MOLECULE
16926_out_ligand_01.pdbqt
 34 37 0 0 0
SMALL
GASTEIGER

@<TRIPOS>ATOM
      1  C         22.4470  -22.3800  -10.5580 C.2     1  UNL1        0.1300
      2  C         21.9130  -23.1590   -9.6060 C.2     1  UNL1        0.1210
      3  N         20.5570  -23.3370   -9.3890 N.pl3   1  UNL1       -0.3310
      4  C         19.6200  -22.6050  -10.1500 C.2     1  UNL1        0.1440
      5  N         18.2930  -22.7190   -9.8740 N.2     1  UNL1       -0.2350
      6  C         17.4060  -22.0210  -10.6330 C.2     1  UNL1        0.0330
      7  C         15.9490  -22.1890  -10.3180 C.3     1  UNL1        0.0700
      8  C         17.8000  -21.1760  -11.6640 C.2     1  UNL1        0.0280
      9  C         19.1550  -21.0420  -11.9330 C.2     1  UNL1        0.0210
     10  C         20.0760  -21.7620  -11.1700 C.2     1  UNL1        0.0620
     11  C         21.5280  -21.6330  -11.4330 C.2     1  UNL1        0.2090
     12  O         21.9190  -20.9280  -12.3550 O.2     1  UNL1       -0.2860
     13  C         20.0210  -24.2140   -8.3340 C.3     1  UNL1        0.2330
     14  C         19.2670  -23.4140   -7.2650 C.2     1  UNL1        0.2400
     15  O         19.7650  -22.4090   -6.7650 O.2     1  UNL1       -0.2710
     16  N         18.0290  -23.9550   -6.9610 N.am    1  UNL1       -0.3260
     17  H         17.7480  -24.7430   -7.5460 H       1  UNL1        0.1690
     18  C         17.0850  -23.4940   -6.0250 C.2     1  UNL1        0.0370
     19  C         17.2120  -23.6510   -4.6410 C.2     1  UNL1        0.0290
     20  C         16.2260  -23.1660   -3.7750 C.2     1  UNL1        0.0050
     21  C         15.1030  -22.5210   -4.2860 C.2     1  UNL1        0.0420
     22  C         14.9780  -22.3680   -5.6600 C.2     1  UNL1        0.1180
     23  F         13.8990  -21.7500   -6.1600 F       1  UNL1       -0.2060
     24  C         15.9530  -22.8460   -6.5300 C.2     1  UNL1        0.0710
     25  S         24.1550  -22.2450  -10.7170 S.O2    1  UNL1        0.2120
     26  O         24.5760  -20.8890  -10.4180 O.2     1  UNL1       -0.2170
     27  O         24.8010  -23.3510  -10.0240 O.2     1  UNL1       -0.2170
     28  C         24.4450  -22.5430  -12.4510 C.2     1  UNL1        0.0640
     29  C         24.4900  -21.4720  -13.3460 C.2     1  UNL1        0.0240
     30  C         24.7440  -21.7150  -14.6970 C.2     1  UNL1        0.0080
     31  C         24.9600  -23.0220  -15.1560 C.2     1  UNL1       -0.0620
     32  C         25.2700  -23.2730  -16.6030 C.3     1  UNL1        0.0480
     33  C         24.9480  -24.0830  -14.2400 C.2     1  UNL1        0.0080
     34  C         24.6910  -23.8480  -12.8890 C.2     1  UNL1        0.0240
@<TRIPOS>BOND
     1    32    31    1
     2    31    30    2
     3    31    33    1
     4    30    29    1
     5    33    34    2
     6    29    28    2
     7    34    28    1
     8    28    25    1
     9    12    11    2
    10     9     8    2
    11     9    10    1
    12     8     6    1
    13    11    10    1
    14    11     1    1
    15    10     4    2
    16    25     1    1
    17    25    26    2
    18    25    27    2
    19     6     7    1
    20     6     5    2
    21     1     2    2
    22     4     5    1
    23     4     3    1
    24     2     3    1
    25     3    13    1
    26    13    14    1
    27    17    16    1
    28    14    16   am
    29    14    15    2
    30    16    18    1
    31    24    18    2
    32    24    22    1
    33    23    22    1
    34    18    19    1
    35    22    21    2
    36    19    20    2
    37    21    20    1
