@<TRIPOS>MOLECULE
16922_out_ligand_01.pdbqt
 31 34 0 0 0
SMALL
GASTEIGER

@<TRIPOS>ATOM
      1  N         20.6200  -23.8580   -9.1630 N.ar    1  UNL1       -0.2080
      2  N         19.6180  -24.2100   -8.2710 N.ar    1  UNL1       -0.1440
      3  C         18.5800  -23.5820   -8.7430 C.ar    1  UNL1        0.2120
      4  C         17.1710  -23.5570   -8.2330 C.2     1  UNL1        0.2190
      5  N         16.2260  -22.8640   -8.8060 N.2     1  UNL1       -0.2320
      6  C         16.5830  -22.1450   -9.9310 C.2     1  UNL1        0.1370
      7  C         17.8170  -22.1130  -10.4600 C.2     1  UNL1        0.1230
      8  N         18.7980  -22.8350   -9.8510 N.ar    1  UNL1       -0.2510
      9  C         20.1230  -22.9890  -10.1470 C.ar    1  UNL1        0.3510
     10  O         20.7650  -22.5150  -11.0710 O.2     1  UNL1       -0.2440
     11  C         22.0040  -24.2400   -8.9880 C.3     1  UNL1        0.2590
     12  C         22.9690  -23.1250   -9.3930 C.2     1  UNL1        0.2420
     13  O         23.0290  -22.0840   -8.7400 O.2     1  UNL1       -0.2710
     14  N         23.6310  -23.3540  -10.5880 N.am    1  UNL1       -0.3230
     15  H         23.3720  -24.1880  -11.1210 H       1  UNL1        0.1690
     16  C         24.5920  -22.5270  -11.2130 C.2     1  UNL1        0.0760
     17  C         25.1060  -21.3550  -10.6550 C.2     1  UNL1        0.0740
     18  C         26.0620  -20.6190  -11.3550 C.2     1  UNL1        0.1180
     19  F         26.5520  -19.4960  -10.8140 F       1  UNL1       -0.2060
     20  C         26.5220  -21.0250  -12.6040 C.2     1  UNL1        0.0450
     21  C         26.0190  -22.1940  -13.1690 C.2     1  UNL1        0.0470
     22  C         25.0650  -22.9320  -12.4710 C.2     1  UNL1        0.1430
     23  F         24.5910  -24.0580  -13.0250 F       1  UNL1       -0.2040
     24  O         17.0520  -24.3460   -7.1170 O.2     1  UNL1       -0.2890
     25  C         16.6990  -23.6720   -5.9420 C.2     1  UNL1        0.0810
     26  C         15.3920  -23.8120   -5.4740 C.2     1  UNL1        0.0370
     27  C         14.9950  -23.1130   -4.3330 C.2     1  UNL1        0.0060
     28  C         15.9030  -22.2770   -3.6820 C.2     1  UNL1        0.0420
     29  C         17.1980  -22.1380   -4.1800 C.2     1  UNL1        0.1190
     30  F         18.0580  -21.3240   -3.5550 F       1  UNL1       -0.2060
     31  C         17.6080  -22.8230   -5.3160 C.2     1  UNL1        0.0790
@<TRIPOS>BOND
     1    21    20    2
     2    21    22    1
     3    23    22    1
     4    20    18    1
     5    22    16    2
     6    18    19    1
     7    18    17    2
     8    16    17    1
     9    16    14    1
    10    15    14    1
    11    10     9    2
    12    14    12   am
    13     7     6    2
    14     7     8    1
    15     9     8   ar
    16     9     1   ar
    17     6     5    1
    18     8     3   ar
    19    12    11    1
    20    12    13    2
    21     1    11    1
    22     1     2   ar
    23     5     4    2
    24     3     2   ar
    25     3     4    1
    26     4    24    1
    27    24    25    1
    28    25    26    2
    29    25    31    1
    30    26    27    1
    31    31    29    2
    32    27    28    2
    33    29    28    1
    34    29    30    1
