@<TRIPOS>MOLECULE
16941_out_ligand_01.pdbqt
 35 39 0 0 0
SMALL
GASTEIGER

@<TRIPOS>ATOM
      1  S         15.8400  -23.4430   -9.4440 S.3     1  UNL1       -0.0870
      2  C         16.3130  -21.7770   -9.9890 C.3     1  UNL1        0.1210
      3  C         17.6760  -21.6930  -10.6330 C.2     1  UNL1       -0.0480
      4  C         18.2040  -20.4600  -11.0470 C.2     1  UNL1        0.0090
      5  C         19.4820  -20.3870  -11.6110 C.2     1  UNL1        0.0170
      6  C         20.2460  -21.5490  -11.7670 C.2     1  UNL1        0.0320
      7  C         19.7300  -22.7800  -11.3510 C.2     1  UNL1        0.0170
      8  C         18.4500  -22.8510  -10.7970 C.2     1  UNL1        0.0090
      9  C         21.6170  -21.5160  -12.3440 C.2     1  UNL1        0.2520
     10  O         21.8100  -21.0080  -13.4420 O.2     1  UNL1       -0.2680
     11  N         22.6180  -22.0520  -11.5580 N.am    1  UNL1       -0.3520
     12  H         22.4080  -22.2260  -10.5830 H       1  UNL1        0.1630
     13  C         24.0180  -21.9620  -11.9530 C.3     1  UNL1        0.0840
     14  C         24.8830  -21.4980  -10.7770 C.3     1  UNL1        0.0250
     15  C         26.3380  -21.2730  -11.1940 C.3     1  UNL1        0.0020
     16  C         26.7990  -22.1950  -12.3250 C.3     1  UNL1        0.0000
     17  C         26.0370  -23.5130  -12.3240 C.3     1  UNL1        0.0020
     18  C         24.5320  -23.2990  -12.5210 C.3     1  UNL1        0.0250
     19  C         15.9690  -23.2640   -7.7260 C.ar    1  UNL1        0.1710
     20  N         15.1130  -22.5850   -6.9930 N.ar    1  UNL1       -0.2210
     21  C         15.5580  -22.7310   -5.7070 C.ar    1  UNL1        0.1050
     22  C         15.0530  -22.2420   -4.4970 C.2     1  UNL1        0.0370
     23  C         16.7010  -23.5220   -5.6610 C.ar    1  UNL1        0.1610
     24  C         15.7340  -22.5990   -3.3310 C.2     1  UNL1        0.0220
     25  C         16.8620  -23.4120   -3.4220 C.2     1  UNL1        0.1190
     26  N         17.3910  -23.9100   -4.5660 N.2     1  UNL1       -0.2410
     27  N         16.9710  -23.8270   -6.9730 N.ar    1  UNL1       -0.3040
     28  C         18.0660  -24.6760   -7.4030 C.3     1  UNL1        0.1710
     29  C         19.3280  -23.8900   -7.6690 C.2     1  UNL1       -0.0370
     30  C         19.4660  -22.5680   -7.2140 C.2     1  UNL1        0.0090
     31  C         20.6350  -21.8410   -7.4700 C.2     1  UNL1        0.0040
     32  C         21.6800  -22.4290   -8.1800 C.2     1  UNL1        0.0420
     33  C         21.5500  -23.7380   -8.6270 C.2     1  UNL1        0.1170
     34  F         22.5550  -24.3020   -9.3090 F       1  UNL1       -0.2060
     35  C         20.3910  -24.4710   -8.3780 C.2     1  UNL1        0.0510
@<TRIPOS>BOND
     1    10     9    2
     2    18    17    1
     3    18    13    1
     4     9     6    1
     5     9    11   am
     6    16    17    1
     7    16    15    1
     8    13    11    1
     9    13    14    1
    10     6     5    2
    11     6     7    1
    12     5     4    1
    13    11    12    1
    14     7     8    2
    15    15    14    1
    16     4     3    2
    17     8     3    1
    18     3     2    1
    19     2     1    1
    20     1    19    1
    21    34    33    1
    22    33    35    1
    23    33    32    2
    24    35    29    2
    25    32    31    1
    26    19    20   ar
    27    19    27   ar
    28    29    28    1
    29    29    30    1
    30    31    30    2
    31    28    27    1
    32    20    21   ar
    33    27    23   ar
    34    21    23   ar
    35    21    22    1
    36    23    26    1
    37    26    25    2
    38    22    24    2
    39    25    24    1
