@<TRIPOS>MOLECULE
1694_out_ligand_01.pdbqt
 31 34 0 0 0
SMALL
GASTEIGER

@<TRIPOS>ATOM
      1  C         23.0370  -22.9240   -9.0660 C.2     1  UNL1       -0.0400
      2  C         22.7740  -21.8060   -8.2490 C.2     1  UNL1        0.0110
      3  C         21.5580  -21.6770   -7.5680 C.2     1  UNL1        0.0310
      4  C         20.6120  -22.6770   -7.7100 C.2     1  UNL1        0.0430
      5  C         20.8640  -23.7880   -8.5110 C.2     1  UNL1       -0.0290
      6  C         22.0660  -23.9300   -9.1900 C.2     1  UNL1        0.0180
      7  C         19.7290  -24.7590   -8.4740 C.2     1  UNL1        0.0610
      8  C         18.6840  -23.9950   -7.6500 C.2     1  UNL1        0.1370
      9  N         19.3300  -22.7720   -7.1360 N.am    1  UNL1       -0.3130
     10  C         18.7970  -21.8870   -6.2130 C.2     1  UNL1        0.2580
     11  O         19.3740  -20.9310   -5.7020 O.2     1  UNL1       -0.2670
     12  C         24.3680  -23.0690   -9.7600 C.3     1  UNL1        0.1620
     13  N         24.1870  -23.3580  -11.1660 N.am    1  UNL1       -0.3390
     14  C         24.9570  -22.7170  -12.1200 C.2     1  UNL1        0.3210
     15  N         24.5480  -23.0760  -13.3870 N.am    1  UNL1       -0.3080
     16  O         25.8750  -21.9620  -11.8270 O.2     1  UNL1       -0.2470
     17  H         23.9100  -23.8550  -13.4150 H       1  UNL1        0.1700
     18  H         23.2400  -23.5660  -11.4410 H       1  UNL1        0.1640
     19  C         25.0210  -22.5950  -14.6300 C.2     1  UNL1        0.0420
     20  C         26.0330  -23.2450  -15.3460 C.2     1  UNL1        0.0300
     21  C         26.4850  -22.7420  -16.5700 C.2     1  UNL1        0.0020
     22  C         25.9340  -21.5800  -17.0920 C.2     1  UNL1        0.0010
     23  C         24.9310  -20.9160  -16.3900 C.2     1  UNL1        0.0090
     24  C         24.4640  -21.4090  -15.1570 C.2     1  UNL1       -0.0350
     25  C         23.3810  -20.6400  -14.4500 C.3     1  UNL1        0.0500
     26  C         17.4070  -22.1340   -5.7740 C.2     1  UNL1        0.0320
     27  C         16.3590  -22.1180   -6.7010 C.2     1  UNL1        0.0170
     28  C         15.0540  -22.3460   -6.2660 C.2     1  UNL1        0.0010
     29  C         14.7990  -22.5740   -4.9120 C.2     1  UNL1        0.0000
     30  C         15.8460  -22.5660   -3.9870 C.2     1  UNL1        0.0010
     31  C         17.1540  -22.3400   -4.4160 C.2     1  UNL1        0.0170
@<TRIPOS>BOND
     1    22    21    2
     2    22    23    1
     3    21    20    1
     4    23    24    2
     5    20    19    2
     6    24    19    1
     7    24    25    1
     8    19    15    1
     9    17    15    1
    10    15    14   am
    11    14    16    2
    12    14    13   am
    13    18    13    1
    14    13    12    1
    15    12     1    1
    16     6     1    2
    17     6     5    1
    18     1     2    1
    19     5     7    1
    20     5     4    2
    21     7     8    2
    22     2     3    2
    23     4     3    1
    24     4     9    1
    25     8     9    1
    26     9    10   am
    27    27    28    1
    28    27    26    2
    29    28    29    2
    30    10    26    1
    31    10    11    2
    32    26    31    1
    33    29    30    1
    34    31    30    2
