@<TRIPOS>MOLECULE
16951_out_ligand_01.pdbqt
 36 40 0 0 0
SMALL
GASTEIGER

@<TRIPOS>ATOM
      1  C         16.6780  -21.7240  -10.0410 C.3     1  UNL1        0.1210
      2  C         18.0170  -21.6540  -10.7360 C.2     1  UNL1       -0.0480
      3  C         18.8160  -22.7980  -10.8910 C.2     1  UNL1        0.0090
      4  C         20.0730  -22.7110  -11.5050 C.2     1  UNL1        0.0170
      5  C         20.5530  -21.4750  -11.9630 C.2     1  UNL1        0.0320
      6  C         19.7460  -20.3370  -11.8360 C.2     1  UNL1        0.0170
      7  C         18.4930  -20.4270  -11.2250 C.2     1  UNL1        0.0090
      8  C         21.8930  -21.3140  -12.6020 C.2     1  UNL1        0.2520
      9  O         21.9910  -20.8240  -13.7230 O.2     1  UNL1       -0.2680
     10  N         22.9860  -21.6960  -11.8450 N.am    1  UNL1       -0.3520
     11  H         22.8500  -21.8260  -10.8520 H       1  UNL1        0.1630
     12  C         24.3520  -21.4340  -12.2960 C.3     1  UNL1        0.0840
     13  C         25.2770  -21.1950  -11.0870 C.3     1  UNL1        0.0250
     14  C         26.7510  -21.5080  -11.3380 C.2     1  UNL1        0.0020
     15  C         27.1110  -22.9970  -11.4650 C.2     1  UNL1        0.0000
     16  C         25.9450  -23.9840  -11.4600 C.3     1  UNL1        0.0000
     17  C         25.0420  -23.9110  -12.6880 C.3     1  UNL1        0.0020
     18  C         24.8020  -22.5220  -13.2780 C.3     1  UNL1        0.0250
     19  S         16.1820  -23.3880   -9.5160 S.3     1  UNL1       -0.0870
     20  C         16.2480  -23.2480   -7.7890 C.ar    1  UNL1        0.1700
     21  N         15.4010  -22.5440   -7.0740 N.ar    1  UNL1       -0.2220
     22  C         15.7960  -22.7020   -5.7730 C.ar    1  UNL1        0.0890
     23  C         15.2250  -22.1810   -4.6110 C.2     1  UNL1        0.0530
     24  C         16.9380  -23.4930   -5.6940 C.ar    1  UNL1        0.0830
     25  C         15.8730  -22.4990   -3.4300 C.2     1  UNL1        0.1180
     26  N         16.9990  -23.2470   -3.3460 N.2     1  UNL1       -0.2710
     27  C         17.5520  -23.7530   -4.4770 C.2     1  UNL1        0.1480
     28  N         17.1970  -23.8630   -7.0020 N.ar    1  UNL1       -0.3190
     29  C         18.3270  -24.6760   -7.4340 C.3     1  UNL1        0.1700
     30  C         19.5610  -23.8470   -7.7100 C.2     1  UNL1       -0.0370
     31  C         19.6720  -22.5320   -7.2240 C.2     1  UNL1        0.0090
     32  C         20.8080  -21.7570   -7.4940 C.2     1  UNL1        0.0040
     33  C         21.8460  -22.2860   -8.2560 C.2     1  UNL1        0.0420
     34  C         21.7460  -23.5900   -8.7330 C.2     1  UNL1        0.1170
     35  F         22.7490  -24.1080   -9.4540 F       1  UNL1       -0.2060
     36  C         20.6230  -24.3710   -8.4630 C.2     1  UNL1        0.0510
@<TRIPOS>BOND
     1     9     8    2
     2    18    17    1
     3    18    12    1
     4    17    16    1
     5     8     5    1
     6     8    10   am
     7    12    10    1
     8    12    13    1
     9     5     6    2
    10     5     4    1
    11    10    11    1
    12     6     7    1
    13     4     3    2
    14    15    16    1
    15    15    14    2
    16    14    13    1
    17     7     2    2
    18     3     2    1
    19     2     1    1
    20     1    19    1
    21    19    20    1
    22    35    34    1
    23    34    36    1
    24    34    33    2
    25    36    30    2
    26    33    32    1
    27    20    21   ar
    28    20    28   ar
    29    30    29    1
    30    30    31    1
    31    32    31    2
    32    29    28    1
    33    21    22   ar
    34    28    24   ar
    35    22    24   ar
    36    22    23    1
    37    24    27    1
    38    23    25    2
    39    27    26    2
    40    25    26    1
