@<TRIPOS>MOLECULE
16965_out_ligand_01.pdbqt
 36 39 0 0 0
SMALL
GASTEIGER

@<TRIPOS>ATOM
      1  N         22.2350  -22.3110  -10.8010 N.ar    1  UNL1       -0.2650
      2  C         21.3650  -21.7280  -11.7080 C.ar    1  UNL1        0.2650
      3  O         21.7090  -21.2090  -12.7690 O.2     1  UNL1       -0.2670
      4  C         19.9480  -21.7400  -11.3530 C.ar    1  UNL1        0.0780
      5  C         18.9970  -21.0660  -12.1250 C.2     1  UNL1        0.0220
      6  C         17.6660  -21.0840  -11.7280 C.2     1  UNL1        0.0200
      7  C         17.3460  -21.7690  -10.5700 C.2     1  UNL1        0.1190
      8  N         18.2560  -22.4190   -9.8070 N.2     1  UNL1       -0.2420
      9  C         19.5440  -22.4240  -10.2230 C.ar    1  UNL1        0.1490
     10  N         20.4820  -23.1290   -9.4500 N.ar    1  UNL1       -0.2740
     11  C         21.8360  -23.0890   -9.7170 C.ar    1  UNL1        0.3330
     12  O         22.6470  -23.7260   -9.0430 O.2     1  UNL1       -0.2460
     13  C         23.6640  -22.2420  -11.0970 C.3     1  UNL1        0.1420
     14  C         24.0830  -23.2650  -12.1610 C.3     1  UNL1        0.0590
     15  C         24.7450  -22.5920  -13.3370 C.2     1  UNL1       -0.0540
     16  C         25.3440  -21.3410  -13.1840 C.2     1  UNL1        0.0100
     17  C         25.9940  -20.7450  -14.2600 C.2     1  UNL1        0.0400
     18  C         26.0460  -21.3780  -15.5060 C.2     1  UNL1        0.1010
     19  C         25.4760  -22.6530  -15.6710 C.2     1  UNL1        0.1020
     20  C         24.8180  -23.2420  -14.5810 C.2     1  UNL1        0.0460
     21  O         26.7440  -20.6690  -16.4510 O.2     1  UNL1       -0.3530
     22  C         25.9870  -19.7230  -17.1980 C.3     1  UNL1        0.2100
     23  O         25.6120  -23.2600  -16.8920 O.2     1  UNL1       -0.3530
     24  C         24.4710  -23.2890  -17.7430 C.3     1  UNL1        0.2100
     25  C         20.0010  -23.9650   -8.3410 C.3     1  UNL1        0.2380
     26  C         19.2060  -23.2280   -7.2530 C.2     1  UNL1        0.2400
     27  O         19.7200  -22.2950   -6.6370 O.2     1  UNL1       -0.2710
     28  N         17.9820  -23.8020   -6.9640 N.am    1  UNL1       -0.3260
     29  H         17.8040  -24.6860   -7.4130 H       1  UNL1        0.1690
     30  C         17.0240  -23.3940   -6.0170 C.2     1  UNL1        0.0350
     31  C         17.2700  -23.7230   -4.6780 C.2     1  UNL1        0.0290
     32  C         16.3590  -23.3790   -3.6790 C.2     1  UNL1        0.0030
     33  C         15.2010  -22.6780   -4.0000 C.2     1  UNL1        0.0070
     34  C         14.9470  -22.3270   -5.3280 C.2     1  UNL1       -0.0600
     35  C         13.6910  -21.5940   -5.6930 C.3     1  UNL1        0.0480
     36  C         15.8550  -22.7090   -6.3360 C.2     1  UNL1        0.0360
@<TRIPOS>BOND
     1    24    23    1
     2    22    21    1
     3    23    19    1
     4    21    18    1
     5    19    18    2
     6    19    20    1
     7    18    17    1
     8    20    15    2
     9    17    16    2
    10    15    16    1
    11    15    14    1
    12     3     2    2
    13    14    13    1
    14     5     6    1
    15     5     4    2
    16     6     7    2
    17     2     4   ar
    18     2     1   ar
    19     4     9   ar
    20    13     1    1
    21     1    11   ar
    22     7     8    1
    23     9     8    2
    24     9    10   ar
    25    11    10   ar
    26    11    12    2
    27    10    25    1
    28    25    26    1
    29    29    28    1
    30    26    28   am
    31    26    27    2
    32    28    30    1
    33    36    30    2
    34    36    34    1
    35    30    31    1
    36    35    34    1
    37    34    33    2
    38    31    32    2
    39    33    32    1
