@<TRIPOS>MOLECULE
16969_out_ligand_01.pdbqt
 30 32 0 0 0
SMALL
GASTEIGER

@<TRIPOS>ATOM
      1  C         18.4820  -23.1340   -9.1090 C.2     1  UNL1        0.1180
      2  C         19.3000  -22.4320  -10.0040 C.2     1  UNL1        0.0450
      3  C         20.6620  -22.7490  -10.0960 C.2     1  UNL1        0.0340
      4  C         21.1900  -23.7910   -9.3210 C.2     1  UNL1        0.0200
      5  C         20.3610  -24.4900   -8.4400 C.2     1  UNL1        0.0450
      6  C         19.0110  -24.1580   -8.3360 C.2     1  UNL1        0.1390
      7  F         18.2650  -24.8400   -7.4600 F       1  UNL1       -0.2040
      8  S         16.7660  -22.7460   -9.0070 S.O2    1  UNL1        0.2620
      9  O         16.4660  -21.8230  -10.0800 O.2     1  UNL1       -0.2000
     10  O         15.9970  -23.9540   -8.8260 O.2     1  UNL1       -0.2000
     11  N         16.6940  -21.8270   -7.6060 N.3     1  UNL1       -0.3100
     12  H         16.1910  -20.9480   -7.7320 H       1  UNL1        0.1720
     13  C         16.6470  -22.4830   -6.2910 C.3     1  UNL1        0.0970
     14  C         15.1880  -22.5120   -5.8010 C.3     1  UNL1        0.0260
     15  C         15.0390  -22.3540   -4.2880 C.3     1  UNL1        0.0020
     16  C         16.1920  -23.0060   -3.5460 C.3     1  UNL1        0.0010
     17  C         17.5370  -22.3810   -3.9140 C.3     1  UNL1        0.0060
     18  C         17.5660  -21.7270   -5.3100 C.3     1  UNL1        0.0050
     19  C         19.0130  -21.6390   -5.8040 C.3     1  UNL1        0.0120
     20  C         21.5090  -21.9800  -11.0540 C.2     1  UNL1        0.2560
     21  O         20.9890  -21.0570  -11.6660 O.2     1  UNL1       -0.2670
     22  N         22.8310  -22.3800  -11.1180 N.am    1  UNL1       -0.3230
     23  H         23.1380  -23.0730  -10.4480 H       1  UNL1        0.1690
     24  C         23.8400  -21.8610  -11.9590 C.2     1  UNL1        0.0360
     25  C         25.0000  -21.3780  -11.3380 C.2     1  UNL1        0.0290
     26  C         26.0510  -20.8500  -12.0930 C.2     1  UNL1        0.0040
     27  C         25.9500  -20.8030  -13.4820 C.2     1  UNL1        0.0240
     28  C         24.8010  -21.2850  -14.1030 C.2     1  UNL1        0.0360
     29 CL         24.6830  -21.2300  -15.8200 Cl      1  UNL1       -0.0840
     30  C         23.7480  -21.8130  -13.3520 C.2     1  UNL1        0.0530
@<TRIPOS>BOND
     1    29    28    1
     2    28    27    2
     3    28    30    1
     4    27    26    1
     5    30    24    2
     6    26    25    2
     7    24    25    1
     8    24    22    1
     9    21    20    2
    10    22    20   am
    11    22    23    1
    12    20     3    1
    13     3     2    1
    14     3     4    2
    15     9     8    2
    16     2     1    2
    17     4     5    1
    18     1     8    1
    19     1     6    1
    20     8    10    2
    21     8    11    1
    22     5     6    2
    23     6     7    1
    24    12    11    1
    25    11    13    1
    26    13    14    1
    27    13    18    1
    28    19    18    1
    29    14    15    1
    30    18    17    1
    31    15    16    1
    32    17    16    1
