@<TRIPOS>MOLECULE
16972_out_ligand_01.pdbqt
 37 39 0 0 0
SMALL
GASTEIGER

@<TRIPOS>ATOM
      1  C         26.2290  -20.5060  -16.2040 C.3     1  UNL1        0.0500
      2  C         25.8810  -21.1110  -14.8690 C.2     1  UNL1       -0.0340
      3  C         26.1960  -20.2830  -13.7210 C.2     1  UNL1        0.0330
      4  C         25.9060  -20.6670  -12.4660 C.2     1  UNL1        0.0120
      5  C         26.2470  -19.7730  -11.3030 C.3     1  UNL1        0.0680
      6  N         25.3000  -21.9040  -12.2490 N.am    1  UNL1       -0.3080
      7  C         25.0350  -22.7940  -13.2970 C.2     1  UNL1        0.2690
      8  O         24.6030  -23.9300  -13.0910 O.2     1  UNL1       -0.2660
      9  C         25.3200  -22.3230  -14.6860 C.2     1  UNL1        0.1180
     10  C         24.9810  -23.1910  -15.7610 C.1     1  UNL1        0.1050
     11  N         24.7140  -23.8590  -16.6720 N.1     1  UNL1       -0.1910
     12  C         24.9610  -22.3690  -10.8980 C.3     1  UNL1        0.2350
     13  C         23.5740  -21.8850  -10.4610 C.2     1  UNL1        0.2400
     14  O         23.4510  -21.1330   -9.4970 O.2     1  UNL1       -0.2710
     15  N         22.5520  -22.3840  -11.2530 N.am    1  UNL1       -0.3260
     16  H         22.8340  -23.0370  -11.9860 H       1  UNL1        0.1690
     17  C         21.1710  -22.1340  -11.1420 C.2     1  UNL1        0.0350
     18  C         20.4780  -21.2130  -11.9320 C.2     1  UNL1        0.0290
     19  C         19.1040  -21.0180  -11.7590 C.2     1  UNL1        0.0030
     20  C         18.4050  -21.7490  -10.7990 C.2     1  UNL1        0.0170
     21  C         19.0840  -22.6850  -10.0130 C.2     1  UNL1        0.0340
     22  C         20.4660  -22.8640  -10.1790 C.2     1  UNL1        0.0460
     23  C         18.3870  -23.4890   -8.9730 C.2     1  UNL1        0.2520
     24  O         18.9580  -24.4250   -8.4270 O.2     1  UNL1       -0.2680
     25  N         17.0810  -23.1400   -8.7070 N.am    1  UNL1       -0.3530
     26  H         16.5870  -22.5550   -9.3670 H       1  UNL1        0.1630
     27  C         16.2860  -23.9440   -7.8080 C.3     1  UNL1        0.1610
     28  C         16.2660  -23.3380   -6.4310 C.2     1  UNL1       -0.0400
     29  C         15.1330  -23.4510   -5.6160 C.2     1  UNL1        0.0090
     30  C         15.1070  -22.8610   -4.3520 C.2     1  UNL1        0.0010
     31  C         16.2140  -22.1480   -3.8910 C.2     1  UNL1        0.0160
     32  C         17.3600  -22.0180   -4.6880 C.2     1  UNL1        0.0480
     33  C         17.3710  -22.6090   -5.9620 C.2     1  UNL1        0.0250
     34  C         18.5460  -21.2210   -4.2030 C.3     1  UNL1        0.4170
     35  F         19.1750  -21.8190   -3.1540 F       1  UNL1       -0.1660
     36  F         18.2120  -19.9710   -3.7750 F       1  UNL1       -0.1660
     37  F         19.5000  -21.0430   -5.1580 F       1  UNL1       -0.1660
@<TRIPOS>BOND
     1    11    10    3
     2     1     2    1
     3    10     9    1
     4     2     9    2
     5     2     3    1
     6     9     7    1
     7     3     4    2
     8     7     8    2
     9     7     6   am
    10     4     6    1
    11     4     5    1
    12     6    12    1
    13    16    15    1
    14    18    19    1
    15    18    17    2
    16    19    20    2
    17    15    17    1
    18    15    13   am
    19    17    22    1
    20    12    13    1
    21    20    21    1
    22    13    14    2
    23    22    21    2
    24    21    23    1
    25    26    25    1
    26    23    25   am
    27    23    24    2
    28    25    27    1
    29    27    28    1
    30    28    33    2
    31    28    29    1
    32    33    32    1
    33    29    30    2
    34    37    34    1
    35    32    34    1
    36    32    31    2
    37    30    31    1
    38    34    36    1
    39    34    35    1
