@<TRIPOS>MOLECULE
16978_out_ligand_01.pdbqt
 32 35 0 0 0
SMALL
GASTEIGER

@<TRIPOS>ATOM
      1  C         18.9690  -23.6650   -8.2610 C.2     1  UNL1        0.2580
      2  O         19.9300  -24.4140   -8.1120 O.2     1  UNL1       -0.2670
      3  N         18.7970  -22.7590   -9.2980 N.am    1  UNL1       -0.3130
      4  C         17.5760  -21.9890   -9.6060 C.3     1  UNL1        0.1370
      5  C         17.7630  -21.3750  -11.0000 C.3     1  UNL1        0.0610
      6  C         19.2270  -21.5750  -11.2210 C.2     1  UNL1       -0.0300
      7  C         20.0000  -21.0650  -12.2510 C.2     1  UNL1        0.0100
      8  C         21.3480  -21.4240  -12.3050 C.2     1  UNL1        0.0090
      9  C         21.9080  -22.3060  -11.3550 C.2     1  UNL1       -0.0380
     10  C         21.1020  -22.8090  -10.3170 C.2     1  UNL1        0.0390
     11  C         19.7710  -22.4280  -10.2580 C.2     1  UNL1        0.0440
     12  C         23.3670  -22.6900  -11.4320 C.3     1  UNL1        0.1630
     13  N         23.7820  -22.9440  -12.7940 N.am    1  UNL1       -0.3390
     14  C         24.5860  -22.0530  -13.4730 C.2     1  UNL1        0.3210
     15  O         25.0270  -21.0370  -12.9530 O.2     1  UNL1       -0.2470
     16  N         24.8140  -22.4940  -14.7590 N.am    1  UNL1       -0.3080
     17  H         24.5560  -23.4520  -14.9240 H       1  UNL1        0.1700
     18  H         23.1430  -23.4920  -13.3480 H       1  UNL1        0.1640
     19  C         25.5340  -21.8420  -15.7870 C.2     1  UNL1        0.0420
     20  C         26.4170  -20.7880  -15.5250 C.2     1  UNL1        0.0300
     21  C         27.1190  -20.1600  -16.5560 C.2     1  UNL1        0.0020
     22  C         26.9430  -20.5740  -17.8700 C.2     1  UNL1        0.0010
     23  C         26.0590  -21.6110  -18.1530 C.2     1  UNL1        0.0090
     24  C         25.3460  -22.2540  -17.1240 C.2     1  UNL1       -0.0350
     25  C         24.4020  -23.3670  -17.4990 C.3     1  UNL1        0.0500
     26  C         17.8840  -23.7640   -7.2570 C.2     1  UNL1        0.0320
     27  C         18.0750  -23.1920   -5.9970 C.2     1  UNL1        0.0170
     28  C         17.0620  -23.2700   -5.0400 C.2     1  UNL1        0.0070
     29  C         15.8550  -23.9200   -5.3330 C.2     1  UNL1       -0.0620
     30  C         14.7620  -23.9820   -4.3060 C.3     1  UNL1        0.0480
     31  C         15.6540  -24.4460   -6.6170 C.2     1  UNL1        0.0070
     32  C         16.6620  -24.3630   -7.5790 C.2     1  UNL1        0.0170
@<TRIPOS>BOND
     1    23    22    2
     2    23    24    1
     3    22    21    1
     4    25    24    1
     5    24    19    2
     6    21    20    2
     7    19    20    1
     8    19    16    1
     9    17    16    1
    10    16    14   am
    11    14    15    2
    12    14    13   am
    13    18    13    1
    14    13    12    1
    15     8     7    1
    16     8     9    2
    17     7     6    2
    18    12     9    1
    19     9    10    1
    20     6     5    1
    21     6    11    1
    22     5     4    1
    23    10    11    2
    24    11     3    1
    25     4     3    1
    26     3     1   am
    27     1     2    2
    28     1    26    1
    29    32    26    2
    30    32    31    1
    31    26    27    1
    32    31    29    2
    33    27    28    2
    34    29    28    1
    35    29    30    1
