@<TRIPOS>MOLECULE
17008_out_ligand_01.pdbqt
 38 42 0 0 0
SMALL
GASTEIGER

@<TRIPOS>ATOM
      1  C         17.6150  -21.7040  -10.5650 C.2     1  UNL1       -0.0480
      2  C         18.1570  -20.4790  -10.9810 C.2     1  UNL1        0.0090
      3  C         19.4210  -20.4260  -11.5780 C.2     1  UNL1        0.0170
      4  C         20.1520  -21.6030  -11.7820 C.2     1  UNL1        0.0320
      5  C         19.6170  -22.8270  -11.3640 C.2     1  UNL1        0.0170
      6  C         18.3570  -22.8790  -10.7630 C.2     1  UNL1        0.0090
      7  C         16.2580  -21.7590   -9.9070 C.3     1  UNL1        0.1210
      8  S         15.8360  -23.4490   -9.3880 S.3     1  UNL1       -0.0870
      9  C         15.9730  -23.2580   -7.6730 C.ar    1  UNL1        0.1700
     10  N         16.9510  -23.8560   -6.9180 N.ar    1  UNL1       -0.3190
     11  C         16.7200  -23.5050   -5.6040 C.ar    1  UNL1        0.0830
     12  C         17.3450  -23.8080   -4.4020 C.2     1  UNL1        0.1480
     13  C         15.6070  -22.6710   -5.6550 C.ar    1  UNL1        0.0890
     14  N         16.8540  -23.2740   -3.2600 N.2     1  UNL1       -0.2710
     15  C         15.7710  -22.4640   -3.3160 C.2     1  UNL1        0.1180
     16  C         15.1020  -22.1190   -4.4790 C.2     1  UNL1        0.0530
     17  N         15.1650  -22.5230   -6.9460 N.ar    1  UNL1       -0.2220
     18  C         18.0240  -24.7200   -7.3880 C.3     1  UNL1        0.1700
     19  C         19.2920  -23.9540   -7.6850 C.2     1  UNL1       -0.0400
     20  C         19.4340  -22.6290   -7.2470 C.2     1  UNL1        0.0090
     21  C         20.5990  -21.9070   -7.5160 C.2     1  UNL1        0.0070
     22  C         21.6480  -22.4950   -8.2270 C.2     1  UNL1       -0.0620
     23  C         22.8890  -21.7160   -8.5480 C.3     1  UNL1        0.0480
     24  C         21.5050  -23.8100   -8.6830 C.2     1  UNL1        0.0070
     25  C         20.3400  -24.5330   -8.4150 C.2     1  UNL1        0.0090
     26  C         21.5080  -21.5970  -12.3990 C.2     1  UNL1        0.2510
     27  O         21.7650  -20.8230  -13.3150 O.2     1  UNL1       -0.2680
     28  N         22.4310  -22.4720  -11.8660 N.am    1  UNL1       -0.3570
     29  H         22.2270  -22.9470  -10.9980 H       1  UNL1        0.1620
     30  C         23.7930  -22.5360  -12.3520 C.3     1  UNL1        0.1230
     31  C         24.7730  -23.1070  -11.3250 C.3     1  UNL1        0.0240
     32  C         26.2500  -22.8380  -11.6410 C.3     1  UNL1        0.0400
     33  C         26.5490  -21.4340  -12.1090 C.2     1  UNL1       -0.0580
     34  C         26.5520  -20.3590  -11.2080 C.2     1  UNL1        0.0070
     35  C         26.8230  -19.0630  -11.6510 C.2     1  UNL1        0.0010
     36  C         27.1030  -18.8270  -12.9950 C.2     1  UNL1        0.0000
     37  C         27.1210  -19.8890  -13.8970 C.2     1  UNL1        0.0010
     38  C         26.8480  -21.1860  -13.4560 C.2     1  UNL1        0.0070
@<TRIPOS>BOND
     1    37    38    1
     2    37    36    2
     3    38    33    2
     4    27    26    2
     5    36    35    1
     6    26    28   am
     7    26     4    1
     8    30    28    1
     9    30    31    1
    10    33    32    1
    11    33    34    1
    12    28    29    1
    13     4     3    2
    14     4     5    1
    15    35    34    2
    16    32    31    1
    17     3     2    1
    18     5     6    2
    19     2     1    2
    20     6     1    1
    21     1     7    1
    22     7     8    1
    23     8     9    1
    24    24    25    1
    25    24    22    2
    26    23    22    1
    27    25    19    2
    28    22    21    1
    29    19    18    1
    30    19    20    1
    31     9    17   ar
    32     9    10   ar
    33    21    20    2
    34    18    10    1
    35    17    13   ar
    36    10    11   ar
    37    13    11   ar
    38    13    16    1
    39    11    12    1
    40    16    15    2
    41    12    14    2
    42    15    14    1
