@<TRIPOS>MOLECULE
17001_out_ligand_01.pdbqt
 36 40 0 0 0
SMALL
GASTEIGER

@<TRIPOS>ATOM
      1  C         22.4690  -23.0720   -9.9350 C.2     1  UNL1        0.0540
      2  C         21.1370  -22.9020   -9.8440 C.2     1  UNL1        0.1450
      3  O         20.4700  -22.0450  -10.6970 O.2     1  UNL1       -0.3030
      4  C         19.1180  -21.8990  -10.5520 C.2     1  UNL1        0.1030
      5  C         18.5130  -21.0040  -11.4390 C.2     1  UNL1        0.0390
      6  C         17.1410  -20.7800  -11.3780 C.2     1  UNL1        0.0030
      7  C         16.3800  -21.4550  -10.4310 C.2     1  UNL1        0.0020
      8  C         16.9900  -22.3520   -9.5450 C.2     1  UNL1        0.0330
      9  C         18.3720  -22.5880   -9.5920 C.2     1  UNL1        0.0710
     10  N         19.0350  -23.4930   -8.7160 N.am    1  UNL1       -0.3050
     11  C         20.4080  -23.6920   -8.7970 C.2     1  UNL1        0.2820
     12  O         21.0190  -24.4610   -8.0530 O.2     1  UNL1       -0.2650
     13  C         23.3530  -22.3950  -10.8940 C.2     1  UNL1       -0.0330
     14  C         24.5630  -21.8060  -10.5020 C.2     1  UNL1        0.0120
     15  C         25.3980  -21.1960  -11.4450 C.2     1  UNL1        0.0180
     16  C         25.0320  -21.1750  -12.7970 C.2     1  UNL1        0.0320
     17  C         23.8410  -21.7910  -13.1960 C.2     1  UNL1        0.0180
     18  C         23.0090  -22.3980  -12.2510 C.2     1  UNL1        0.0120
     19  C         25.8860  -20.5390  -13.8370 C.2     1  UNL1        0.2510
     20  O         27.1060  -20.6420  -13.7830 O.2     1  UNL1       -0.2680
     21  N         25.2240  -19.8900  -14.8570 N.am    1  UNL1       -0.3540
     22  H         24.2320  -20.0450  -14.9850 H       1  UNL1        0.1620
     23  C         25.9250  -19.3380  -16.0050 C.3     1  UNL1        0.1550
     24  C         25.8890  -20.2660  -17.2210 C.3     1  UNL1        0.1390
     25  C         26.9170  -21.3870  -17.2320 C.3     1  UNL1        0.0350
     26  C         26.2600  -22.3840  -18.1520 C.3     1  UNL1        0.0290
     27  C         24.8030  -22.2600  -17.7610 C.3     1  UNL1        0.1680
     28  O         24.5950  -20.9060  -17.3280 O.3     1  UNL1       -0.3840
     29  C         18.3000  -24.2380   -7.6920 C.3     1  UNL1        0.1710
     30  C         18.1400  -23.4900   -6.3840 C.2     1  UNL1       -0.0370
     31  C         17.4210  -24.0480   -5.3130 C.2     1  UNL1        0.0090
     32  C         17.2590  -23.3470   -4.1130 C.2     1  UNL1        0.0040
     33  C         17.8080  -22.0740   -3.9730 C.2     1  UNL1        0.0420
     34  C         18.5050  -21.5130   -5.0350 C.2     1  UNL1        0.1170
     35  F         19.0250  -20.2850   -4.9060 F       1  UNL1       -0.2060
     36  C         18.6690  -22.2010   -6.2330 C.2     1  UNL1        0.0510
@<TRIPOS>BOND
     1    26    27    1
     2    26    25    1
     3    27    28    1
     4    28    24    1
     5    25    24    1
     6    24    23    1
     7    23    21    1
     8    22    21    1
     9    21    19   am
    10    19    20    2
    11    19    16    1
    12    17    16    2
    13    17    18    1
    14    16    15    1
    15    18    13    2
    16    15    14    2
    17     5     6    1
    18     5     4    2
    19     6     7    2
    20    13    14    1
    21    13     1    1
    22     3     4    1
    23     3     2    1
    24     4     9    1
    25     7     8    1
    26     1     2    2
    27     2    11    1
    28     9     8    2
    29     9    10    1
    30    11    10   am
    31    11    12    2
    32    10    29    1
    33    29    30    1
    34    30    36    2
    35    30    31    1
    36    36    34    1
    37    31    32    2
    38    34    35    1
    39    34    33    2
    40    32    33    1
