@<TRIPOS>MOLECULE
17024_out_ligand_01.pdbqt
 32 35 0 0 0
SMALL
GASTEIGER

@<TRIPOS>ATOM
      1  C         20.8700  -21.8150  -10.8930 C.2     1  UNL1        0.0530
      2  C         20.3930  -20.8220  -11.7680 C.2     1  UNL1        0.0190
      3  C         19.0300  -20.7090  -12.0300 C.2     1  UNL1        0.0010
      4  C         18.1410  -21.5790  -11.4120 C.2     1  UNL1        0.0020
      5  C         18.6110  -22.5780  -10.5530 C.2     1  UNL1        0.0240
      6  C         19.9840  -22.7530  -10.3060 C.2     1  UNL1        0.0240
      7  N         20.4600  -23.7170   -9.3920 N.pl3   1  UNL1       -0.2830
      8  H         20.3910  -24.6470   -9.8410 H       1  UNL1        0.1280
      9  C         19.8980  -23.7770   -8.0310 C.3     1  UNL1        0.1950
     10  C         20.0400  -22.4340   -7.2910 C.2     1  UNL1        0.2370
     11  O         21.0610  -21.7510   -7.4440 O.2     1  UNL1       -0.2720
     12  N         19.0540  -22.0600   -6.3670 N.am    1  UNL1       -0.3170
     13  C         19.5370  -21.2120   -5.2750 C.3     1  UNL1        0.1320
     14  C         17.6990  -22.5120   -6.3450 C.2     1  UNL1        0.0430
     15  C         18.4850  -20.7690   -4.2720 C.3     1  UNL1        0.0250
     16  C         17.6180  -21.9530   -3.8850 C.3     1  UNL1        0.0420
     17  C         16.9790  -22.4920   -5.1350 C.2     1  UNL1       -0.0310
     18  C         15.6640  -22.9810   -5.0850 C.2     1  UNL1        0.0090
     19  C         15.0370  -23.4340   -6.2420 C.2     1  UNL1        0.0010
     20  C         15.7130  -23.3840   -7.4560 C.2     1  UNL1        0.0020
     21  C         17.0290  -22.9160   -7.5080 C.2     1  UNL1        0.0300
     22  C         22.3380  -21.8840  -10.6200 C.2     1  UNL1        0.2530
     23  O         22.8690  -21.1300   -9.8120 O.2     1  UNL1       -0.2680
     24  N         23.0430  -22.8170  -11.3530 N.am    1  UNL1       -0.3530
     25  H         22.6130  -23.2080  -12.1800 H       1  UNL1        0.1630
     26  C         24.4830  -22.8660  -11.2700 C.3     1  UNL1        0.1610
     27  C         25.0960  -21.7140  -12.0210 C.2     1  UNL1       -0.0410
     28  C         24.7180  -21.4500  -13.3440 C.2     1  UNL1        0.0090
     29  C         25.2630  -20.3650  -14.0340 C.2     1  UNL1        0.0010
     30  C         26.1850  -19.5320  -13.4040 C.2     1  UNL1        0.0000
     31  C         26.5610  -19.7770  -12.0850 C.2     1  UNL1        0.0010
     32  C         26.0160  -20.8620  -11.3930 C.2     1  UNL1        0.0090
@<TRIPOS>BOND
     1    29    30    2
     2    29    28    1
     3    30    31    1
     4    28    27    2
     5    25    24    1
     6    31    32    2
     7     3     2    1
     8     3     4    2
     9    27    32    1
    10    27    26    1
    11     2     1    2
    12     4     5    1
    13    24    26    1
    14    24    22   am
    15     1    22    1
    16     1     6    1
    17    22    23    2
    18     5     6    2
    19     6     7    1
    20     8     7    1
    21     7     9    1
    22     9    10    1
    23    21    20    1
    24    21    14    2
    25    20    19    2
    26    11    10    2
    27    10    12   am
    28    12    14    1
    29    12    13    1
    30    14    17    1
    31    19    18    1
    32    13    15    1
    33    17    18    2
    34    17    16    1
    35    15    16    1
