@<TRIPOS>MOLECULE
17028_out_ligand_01.pdbqt
 32 34 0 0 0
SMALL
GASTEIGER

@<TRIPOS>ATOM
      1  N         24.4010  -21.5460  -16.2000 N.1     1  UNL1       -0.1910
      2  C         24.4740  -21.5210  -15.0410 C.1     1  UNL1        0.0990
      3  C         24.5860  -21.4840  -13.6130 C.2     1  UNL1        0.0460
      4  C         25.7770  -21.0550  -13.0190 C.2     1  UNL1        0.0230
      5  C         25.8880  -21.0230  -11.6310 C.2     1  UNL1        0.0040
      6  C         24.8080  -21.4150  -10.8380 C.2     1  UNL1        0.0290
      7  C         23.6070  -21.8440  -11.4190 C.2     1  UNL1        0.0360
      8  C         23.5050  -21.8790  -12.8120 C.2     1  UNL1        0.0520
      9  N         22.5690  -22.2260  -10.5400 N.am    1  UNL1       -0.3230
     10  C         22.6770  -23.0410   -9.4260 C.2     1  UNL1        0.2560
     11  O         23.6810  -23.6310   -9.0480 O.2     1  UNL1       -0.2670
     12  H         21.6440  -21.9160  -10.8020 H       1  UNL1        0.1690
     13  C         21.4180  -23.2330   -8.6510 C.2     1  UNL1        0.0340
     14  C         20.7320  -24.4420   -8.7810 C.2     1  UNL1        0.0190
     15  C         19.5510  -24.6780   -8.0630 C.2     1  UNL1        0.0270
     16  C         18.9990  -23.7130   -7.2050 C.2     1  UNL1        0.0410
     17  C         19.7400  -22.5170   -7.0540 C.2     1  UNL1        0.1240
     18  C         20.9320  -22.2680   -7.7670 C.2     1  UNL1        0.0550
     19  N         17.8680  -23.9960   -6.4170 N.pl3   1  UNL1       -0.2910
     20  H         17.7210  -23.2600   -5.7190 H       1  UNL1        0.1270
     21  C         16.6140  -24.3890   -7.0600 C.3     1  UNL1        0.0920
     22  C         16.0240  -23.2300   -7.8700 C.3     1  UNL1        0.0190
     23  C         15.9690  -23.4500   -9.3870 C.3     1  UNL1        0.0400
     24  C         16.8980  -22.5550  -10.1680 C.2     1  UNL1       -0.0580
     25  C         16.5010  -21.2580  -10.5230 C.2     1  UNL1        0.0070
     26  C         17.3650  -20.4240  -11.2340 C.2     1  UNL1        0.0010
     27  C         18.6310  -20.8770  -11.5990 C.2     1  UNL1        0.0000
     28  C         19.0340  -22.1660  -11.2550 C.2     1  UNL1        0.0010
     29  C         18.1730  -23.0020  -10.5440 C.2     1  UNL1        0.0070
     30  N         19.2760  -21.4570   -6.1540 N.pl3   1  UNL1       -0.1140
     31  O         20.1290  -20.6760   -5.7060 O.2     1  UNL1       -0.5320
     32  O         18.0580  -21.3770   -5.9310 O.2     1  UNL1       -0.5320
@<TRIPOS>BOND
     1     1     2    3
     2     2     3    1
     3     3     4    2
     4     3     8    1
     5     4     5    1
     6     8     7    2
     7     5     6    2
     8    27    28    2
     9    27    26    1
    10     7     6    1
    11     7     9    1
    12    28    29    1
    13    26    25    2
    14    12     9    1
    15    29    24    2
    16     9    10   am
    17    25    24    1
    18    24    23    1
    19    10    11    2
    20    10    13    1
    21    23    22    1
    22    14    13    2
    23    14    15    1
    24    13    18    1
    25    15    16    2
    26    22    21    1
    27    18    17    2
    28    16    17    1
    29    16    19    1
    30    21    19    1
    31    17    30    1
    32    19    20    1
    33    30    32    2
    34    30    31    2
