@<TRIPOS>MOLECULE
17032_out_ligand_01.pdbqt
 32 35 0 0 0
SMALL
GASTEIGER

@<TRIPOS>ATOM
      1  C         20.1080  -23.5040   -9.1890 C.2     1  UNL1        0.2710
      2  O         19.9590  -24.5270   -8.5280 O.2     1  UNL1       -0.2660
      3  N         19.1300  -22.5660   -9.4130 N.am    1  UNL1       -0.3420
      4  H         19.4330  -21.7190   -9.9020 H       1  UNL1        0.1640
      5  C         21.4320  -23.2120   -9.8220 C.2     1  UNL1        0.1290
      6  N         21.5900  -22.5570  -11.0460 N.pl3   1  UNL1       -0.2090
      7  N         20.6170  -22.0690  -11.8680 N.2     1  UNL1       -0.1770
      8  C         22.8670  -22.3210  -11.5750 C.2     1  UNL1        0.1680
      9  C         21.2860  -21.4950  -12.8700 C.2     1  UNL1        0.1600
     10  C         22.6840  -21.6150  -12.7500 C.2     1  UNL1        0.0980
     11  N         24.0080  -22.7380  -10.9300 N.2     1  UNL1       -0.2400
     12  C         23.8310  -23.3320   -9.7890 C.2     1  UNL1        0.1210
     13  C         22.5250  -23.6140   -9.1460 C.2     1  UNL1        0.0570
     14  C         23.6820  -21.0990  -13.6610 C.2     1  UNL1        0.2540
     15  N         24.9560  -21.0480  -13.1770 N.am    1  UNL1       -0.3660
     16  H         25.1490  -21.2860  -12.2070 H       1  UNL1        0.1590
     17  H         25.6750  -20.6260  -13.7460 H       1  UNL1        0.1590
     18  O         23.4150  -20.7190  -14.7950 O.2     1  UNL1       -0.2680
     19  C         17.7110  -22.5600   -8.9490 C.3     1  UNL1        0.0600
     20  C         16.6670  -21.6910   -9.7510 C.3     1  UNL1        0.0360
     21  C         15.6910  -22.8760   -9.6390 C.3     1  UNL1        0.0060
     22  C         16.9190  -23.7970   -9.5190 C.3     1  UNL1        0.0360
     23  C         17.6930  -22.3490   -7.3340 C.2     1  UNL1       -0.0290
     24  C         18.7820  -21.7970   -6.6270 C.2     1  UNL1        0.0100
     25  C         18.7490  -21.5950   -5.2470 C.2     1  UNL1        0.0010
     26  C         17.6080  -21.9260   -4.5230 C.2     1  UNL1        0.0160
     27  C         16.4920  -22.4600   -5.1740 C.2     1  UNL1        0.0480
     28  C         16.5520  -22.6620   -6.5640 C.2     1  UNL1        0.0250
     29  C         15.2440  -22.8280   -4.4120 C.3     1  UNL1        0.4170
     30  F         15.5100  -23.2820   -3.1540 F       1  UNL1       -0.1660
     31  F         14.4000  -21.7700   -4.2540 F       1  UNL1       -0.1660
     32  F         14.5050  -23.8050   -5.0100 F       1  UNL1       -0.1660
@<TRIPOS>BOND
     1    18    14    2
     2    17    15    1
     3    14    15   am
     4    14    10    1
     5    15    16    1
     6     9    10    1
     7     9     7    2
     8    10     8    2
     9     7     6    1
    10     8     6    1
    11     8    11    1
    12     6     5    1
    13    11    12    2
    14     4     3    1
    15     5     1    1
    16     5    13    2
    17    12    13    1
    18    20    21    1
    19    20    19    1
    20    21    22    1
    21    22    19    1
    22     3     1   am
    23     3    19    1
    24     1     2    2
    25    19    23    1
    26    23    24    2
    27    23    28    1
    28    24    25    1
    29    28    27    2
    30    25    26    2
    31    27    26    1
    32    27    29    1
    33    32    29    1
    34    29    31    1
    35    29    30    1
