@<TRIPOS>MOLECULE
17031_out_ligand_01.pdbqt
 37 42 0 0 0
SMALL
GASTEIGER

@<TRIPOS>ATOM
      1  C         18.7860  -24.0320   -8.5840 C.2     1  UNL1        0.1850
      2  N         17.9090  -24.5030   -7.6710 N.2     1  UNL1       -0.2060
      3  C         16.6390  -24.0460   -7.6910 C.2     1  UNL1        0.1580
      4  N         16.1450  -23.1180   -8.5320 N.pl3   1  UNL1       -0.2230
      5  C         17.0610  -22.6450   -9.3930 C.ar    1  UNL1        0.1150
      6  S         16.6460  -21.4240  -10.5360 S.2     1  UNL1       -0.0730
      7  C         18.2120  -21.4170  -11.1220 C.ar    1  UNL1       -0.0080
      8  C         19.0450  -22.3080  -10.5030 C.ar    1  UNL1       -0.0280
      9  C         18.3940  -23.0400   -9.4800 C.ar    1  UNL1        0.0600
     10  C         20.4180  -22.2430  -11.0660 C.3     1  UNL1        0.0410
     11  C         20.2080  -21.3910  -12.3600 C.3     1  UNL1        0.0100
     12  C         18.8670  -20.6140  -12.1810 C.3     1  UNL1        0.0470
     13  O         20.0980  -24.4900   -8.5890 O.2     1  UNL1       -0.2910
     14  C         21.1100  -23.5570   -8.5820 C.2     1  UNL1        0.0790
     15  C         21.1710  -22.4860   -7.6870 C.2     1  UNL1        0.0370
     16  C         22.2530  -21.6000   -7.7180 C.2     1  UNL1        0.0040
     17  C         23.2910  -21.8010   -8.6250 C.2     1  UNL1        0.0170
     18  C         23.2500  -22.9000   -9.4940 C.2     1  UNL1        0.0340
     19  C         22.1660  -23.7840   -9.4660 C.2     1  UNL1        0.0540
     20  C         24.3600  -23.1610  -10.4410 C.2     1  UNL1        0.2520
     21  O         25.5120  -23.2410  -10.0360 O.2     1  UNL1       -0.2680
     22  N         23.9880  -23.3120  -11.7610 N.am    1  UNL1       -0.3530
     23  H         23.0120  -23.4920  -11.9510 H       1  UNL1        0.1630
     24  C         24.9430  -23.7510  -12.7540 C.3     1  UNL1        0.1610
     25  C         24.9100  -22.8490  -13.9600 C.2     1  UNL1       -0.0410
     26  C         25.6810  -23.1420  -15.0970 C.2     1  UNL1        0.0090
     27  C         25.6640  -22.2860  -16.2000 C.2     1  UNL1        0.0010
     28  C         24.8800  -21.1300  -16.1770 C.2     1  UNL1        0.0000
     29  C         24.1240  -20.8240  -15.0480 C.2     1  UNL1        0.0010
     30  C         24.1440  -21.6740  -13.9420 C.2     1  UNL1        0.0090
     31  C         15.6700  -24.6480   -6.6770 C.3     1  UNL1        0.3520
     32  N         15.9030  -24.2260   -5.2800 N.3     1  UNL1        0.0950
     33  C         14.7660  -23.4890   -4.7080 C.3     1  UNL1        0.2730
     34  C         15.1290  -22.1330   -4.0960 C.3     1  UNL1        0.0300
     35  C         16.3250  -22.2170   -3.1530 C.3     1  UNL1        0.0030
     36  C         17.4150  -23.1510   -3.6750 C.3     1  UNL1        0.0300
     37  C         17.1910  -23.5460   -5.1330 C.3     1  UNL1        0.2730
@<TRIPOS>BOND
     1    27    28    2
     2    27    26    1
     3    28    29    1
     4    26    25    2
     5    29    30    2
     6    25    30    1
     7    25    24    1
     8    24    22    1
     9    11    12    1
    10    11    10    1
    11    12     7    1
    12    23    22    1
    13    22    20   am
    14     7     6   ar
    15     7     8   ar
    16    10     8    1
    17     6     5   ar
    18     8     9   ar
    19    20    21    2
    20    20    18    1
    21    18    19    1
    22    18    17    2
    23     9     5   ar
    24     9     1    1
    25    19    14    2
    26     5     4    1
    27    17    16    1
    28    13     1    1
    29    13    14    1
    30     1     2    2
    31    14    15    1
    32     4     3    1
    33    16    15    2
    34     3     2    2
    35     3    31    1
    36    31    32    1
    37    32    37    1
    38    32    33    1
    39    37    36    1
    40    33    34    1
    41    34    35    1
    42    36    35    1
