@<TRIPOS>MOLECULE
17033_out_ligand_01.pdbqt
 36 39 0 0 0
SMALL
GASTEIGER

@<TRIPOS>ATOM
      1  N         24.6270  -22.0250  -11.3630 N.pl3   1  UNL1       -0.2830
      2  H         24.0220  -21.1970  -11.4790 H       1  UNL1        0.1280
      3  C         24.1870  -22.8530  -10.2170 C.3     1  UNL1        0.1950
      4  C         22.9740  -22.2380   -9.4990 C.2     1  UNL1        0.2350
      5  O         22.7790  -21.0260   -9.5100 O.2     1  UNL1       -0.2720
      6  N         22.2030  -23.1970   -8.8690 N.am    1  UNL1       -0.3260
      7  H         22.5460  -24.1460   -9.0220 H       1  UNL1        0.1690
      8  C         21.0320  -23.0310   -8.1140 C.2     1  UNL1        0.0340
      9  C         20.0980  -24.0650   -8.1410 C.2     1  UNL1        0.0320
     10  C         18.9070  -23.9730   -7.4060 C.2     1  UNL1        0.0310
     11  C         18.6010  -22.8510   -6.6220 C.2     1  UNL1        0.0300
     12  C         19.5560  -21.8220   -6.6160 C.2     1  UNL1        0.0310
     13  C         20.7540  -21.9070   -7.3450 C.2     1  UNL1        0.0320
     14  N         17.4190  -22.7640   -5.8980 N.pl3   1  UNL1       -0.3810
     15  C         17.3620  -23.1770   -4.4930 C.3     1  UNL1        0.1230
     16  C         16.2520  -22.4240   -3.7620 C.3     1  UNL1        0.0200
     17  C         14.8820  -22.6590   -4.3930 C.3     1  UNL1        0.0030
     18  C         14.9670  -22.9940   -5.8800 C.3     1  UNL1        0.0200
     19  C         16.1750  -22.3430   -6.5500 C.3     1  UNL1        0.1230
     20  C         24.7850  -22.6750  -12.6090 C.2     1  UNL1        0.0240
     21  C         25.7790  -23.6580  -12.7620 C.2     1  UNL1        0.0240
     22  C         26.0270  -24.2580  -13.9990 C.2     1  UNL1        0.0020
     23  C         25.3030  -23.8690  -15.1190 C.2     1  UNL1        0.0010
     24  C         24.3190  -22.8880  -15.0010 C.2     1  UNL1        0.0190
     25  C         24.0370  -22.2950  -13.7550 C.2     1  UNL1        0.0530
     26  C         22.9410  -21.2730  -13.6440 C.2     1  UNL1        0.2530
     27  O         22.9460  -20.2760  -14.3590 O.2     1  UNL1       -0.2680
     28  N         21.9770  -21.4850  -12.6770 N.am    1  UNL1       -0.3530
     29  H         22.1470  -22.1670  -11.9520 H       1  UNL1        0.1630
     30  C         20.9460  -20.5090  -12.4000 C.3     1  UNL1        0.1610
     31  C         19.7310  -21.1770  -11.8100 C.2     1  UNL1       -0.0410
     32  C         19.7720  -22.5220  -11.4150 C.2     1  UNL1        0.0090
     33  C         18.6480  -23.1270  -10.8490 C.2     1  UNL1        0.0010
     34  C         17.4790  -22.3920  -10.6630 C.2     1  UNL1        0.0000
     35  C         17.4290  -21.0510  -11.0420 C.2     1  UNL1        0.0010
     36  C         18.5510  -20.4450  -11.6100 C.2     1  UNL1        0.0090
@<TRIPOS>BOND
     1    23    24    2
     2    23    22    1
     3    24    25    1
     4    27    26    2
     5    22    21    2
     6    25    26    1
     7    25    20    2
     8    26    28   am
     9    21    20    1
    10    28    30    1
    11    28    29    1
    12    20     1    1
    13    30    31    1
    14    31    36    2
    15    31    32    1
    16    36    35    1
    17     2     1    1
    18    32    33    2
    19     1     3    1
    20    35    34    2
    21    33    34    1
    22     3     4    1
    23     5     4    2
    24     4     6   am
    25     7     6    1
    26     6     8    1
    27     9     8    2
    28     9    10    1
    29     8    13    1
    30    10    11    2
    31    13    12    2
    32    11    12    1
    33    11    14    1
    34    19    14    1
    35    19    18    1
    36    14    15    1
    37    18    17    1
    38    15    16    1
    39    17    16    1
