@<TRIPOS>MOLECULE
17035_out_ligand_01.pdbqt
 34 37 0 0 0
SMALL
GASTEIGER

@<TRIPOS>ATOM
      1  C         20.3860  -24.1350   -8.5590 C.2     1  UNL1        0.1060
      2  C         20.6940  -23.0990   -9.3680 C.2     1  UNL1        0.0590
      3  C         22.1620  -22.8380   -9.5460 C.2     1  UNL1        0.2670
      4  O         22.9360  -23.1390   -8.6370 O.2     1  UNL1       -0.2670
      5  N         22.5240  -22.3280  -10.8070 N.am    1  UNL1       -0.2440
      6  C         21.5860  -21.9200  -11.7790 C.2     1  UNL1        0.2660
      7  O         21.8420  -21.5970  -12.9380 O.2     1  UNL1       -0.2670
      8  C         20.1700  -21.7770  -11.3560 C.2     1  UNL1        0.0440
      9  C         19.2850  -21.0450  -12.1650 C.2     1  UNL1        0.0180
     10  C         17.9760  -20.8120  -11.7460 C.2     1  UNL1        0.0010
     11  C         17.5560  -21.2860  -10.5080 C.2     1  UNL1        0.0010
     12  C         18.4340  -22.0210   -9.7080 C.2     1  UNL1        0.0130
     13  C         19.7370  -22.3110  -10.1450 C.2     1  UNL1       -0.0030
     14  N         19.1750  -24.7450   -8.3240 N.pl3   1  UNL1       -0.3650
     15  H         19.1040  -25.7180   -8.6040 H       1  UNL1        0.1650
     16  C         18.0730  -24.2570   -7.5980 C.2     1  UNL1        0.0330
     17  C         16.7460  -24.3640   -8.0400 C.2     1  UNL1        0.0290
     18  C         15.6810  -23.8700   -7.2780 C.2     1  UNL1        0.0040
     19  C         15.9250  -23.2510   -6.0550 C.2     1  UNL1        0.0250
     20  C         17.2400  -23.1260   -5.6090 C.2     1  UNL1        0.0760
     21  C         18.3050  -23.6300   -6.3650 C.2     1  UNL1        0.0540
     22  S         17.5610  -22.3730   -4.0440 S.O2    1  UNL1        0.2390
     23  O         18.1560  -21.0740   -4.2560 O.2     1  UNL1       -0.2060
     24  O         18.1380  -23.3530   -3.1540 O.2     1  UNL1       -0.2060
     25  N         16.0110  -22.0810   -3.4740 N.3     1  UNL1       -0.2250
     26  H         15.7520  -21.1100   -3.6480 H       1  UNL1        0.1360
     27  H         15.9420  -22.3560   -2.4940 H       1  UNL1        0.1360
     28  C         23.9370  -22.2440  -11.1330 C.2     1  UNL1        0.0470
     29  C         24.7150  -21.1460  -10.7240 C.2     1  UNL1        0.0300
     30  C         26.0760  -21.0560  -11.0360 C.2     1  UNL1        0.0040
     31  C         26.6920  -22.0680  -11.7650 C.2     1  UNL1        0.0240
     32  C         25.9410  -23.1630  -12.1780 C.2     1  UNL1        0.0360
     33 CL         26.7030  -24.4250  -13.0680 Cl      1  UNL1       -0.0840
     34  C         24.5810  -23.2530  -11.8690 C.2     1  UNL1        0.0540
@<TRIPOS>BOND
     1    33    32    1
     2     7     6    2
     3    32    34    1
     4    32    31    2
     5     9    10    1
     6     9     8    2
     7    34    28    2
     8     6     8    1
     9     6     5   am
    10    31    30    1
    11    10    11    2
    12     8    13    1
    13    28     5    1
    14    28    29    1
    15    30    29    2
    16     5     3   am
    17    11    12    1
    18    13    12    2
    19    13     2    1
    20     3     2    1
    21     3     4    2
    22     2     1    2
    23    15    14    1
    24     1    14    1
    25    14    16    1
    26    17    16    2
    27    17    18    1
    28    16    21    1
    29    18    19    2
    30    21    20    2
    31    19    20    1
    32    20    22    1
    33    23    22    2
    34    22    25    1
    35    22    24    2
    36    26    25    1
    37    25    27    1
