@<TRIPOS>MOLECULE
17041_out_ligand_01.pdbqt
 34 38 0 0 0
SMALL
GASTEIGER

@<TRIPOS>ATOM
      1  C         20.8820  -21.4210  -12.2300 C.2     1  UNL1        0.0340
      2  C         20.2250  -20.1810  -12.2040 C.2     1  UNL1        0.0170
      3  C         19.0010  -20.0500  -11.5460 C.2     1  UNL1        0.0040
      4  C         18.4300  -21.1510  -10.9090 C.2     1  UNL1        0.0370
      5  C         19.0860  -22.3820  -10.9350 C.2     1  UNL1        0.0790
      6  C         20.3170  -22.5190  -11.5720 C.2     1  UNL1        0.0540
      7  O         18.5760  -23.4500  -10.2420 O.2     1  UNL1       -0.2910
      8  C         17.6060  -23.1580   -9.2900 C.2     1  UNL1        0.1850
      9  N         16.2970  -23.2430   -9.6200 N.2     1  UNL1       -0.2170
     10  C         15.3940  -22.9780   -8.6670 C.2     1  UNL1        0.2370
     11  N         15.6310  -22.6370   -7.3960 N.2     1  UNL1       -0.2340
     12  C         16.9430  -22.5900   -7.1080 C.2     1  UNL1        0.1140
     13  S         17.4680  -22.1870   -5.5380 S.3     1  UNL1       -0.0800
     14  C         17.9890  -22.8380   -7.9810 C.2     1  UNL1        0.0650
     15  C         19.1080  -22.3300   -5.9870 C.2     1  UNL1        0.0650
     16  C         19.2600  -22.6780   -7.3150 C.2     1  UNL1       -0.0020
     17  C         20.5890  -22.8250   -7.8910 C.2     1  UNL1       -0.0240
     18  C         21.4870  -21.7470   -7.8780 C.2     1  UNL1        0.0150
     19  C         22.7700  -21.9020   -8.4110 C.2     1  UNL1        0.0430
     20  C         23.1470  -23.1260   -8.9530 C.2     1  UNL1        0.1160
     21  F         24.3780  -23.2740   -9.4610 F       1  UNL1       -0.2060
     22  C         22.2660  -24.2020   -8.9760 C.2     1  UNL1        0.0430
     23  C         20.9820  -24.0530   -8.4430 C.2     1  UNL1        0.0150
     24  C         22.1920  -21.6080  -12.9110 C.2     1  UNL1        0.2520
     25  O         22.3700  -21.1530  -14.0340 O.2     1  UNL1       -0.2680
     26  N         23.1580  -22.2830  -12.1980 N.am    1  UNL1       -0.3530
     27  H         22.9980  -22.5390  -11.2360 H       1  UNL1        0.1630
     28  C         24.4740  -22.5370  -12.7380 C.3     1  UNL1        0.1610
     29  C         25.3570  -21.3330  -12.5390 C.2     1  UNL1       -0.0410
     30  C         25.7490  -20.5390  -13.6280 C.2     1  UNL1        0.0090
     31  C         26.5390  -19.4070  -13.4210 C.2     1  UNL1        0.0010
     32  C         26.9450  -19.0570  -12.1340 C.2     1  UNL1        0.0000
     33  C         26.5450  -19.8280  -11.0470 C.2     1  UNL1        0.0010
     34  C         25.7510  -20.9580  -11.2460 C.2     1  UNL1        0.0090
@<TRIPOS>BOND
     1    25    24    2
     2    30    31    1
     3    30    29    2
     4    31    32    2
     5    24     1    1
     6    24    26   am
     7    28    29    1
     8    28    26    1
     9    29    34    1
    10     1     2    2
    11     1     6    1
    12     2     3    1
    13    26    27    1
    14    32    33    1
    15     6     5    2
    16     3     4    2
    17    34    33    2
    18     5     4    1
    19     5     7    1
    20     7     8    1
    21     9     8    2
    22     9    10    1
    23    21    20    1
    24     8    14    1
    25    22    20    2
    26    22    23    1
    27    20    19    1
    28    10    11    2
    29    23    17    2
    30    19    18    2
    31    14    16    1
    32    14    12    2
    33    17    18    1
    34    17    16    1
    35    11    12    1
    36    16    15    2
    37    12    13    1
    38    15    13    1
