@<TRIPOS>MOLECULE
17049_out_ligand_01.pdbqt
 31 34 0 0 0
SMALL
GASTEIGER

@<TRIPOS>ATOM
      1  C         19.8680  -22.4120  -10.1290 C.2     1  UNL1        0.0320
      2  C         20.2480  -23.1880   -9.0230 C.2     1  UNL1        0.0180
      3  C         19.2730  -23.7540   -8.1980 C.2     1  UNL1        0.0260
      4  C         17.9190  -23.5400   -8.4810 C.2     1  UNL1        0.0790
      5  C         17.5300  -22.8030   -9.6020 C.2     1  UNL1        0.0260
      6  C         18.5070  -22.2380  -10.4240 C.2     1  UNL1        0.0180
      7  C         20.8750  -21.7860  -11.0330 C.2     1  UNL1        0.2560
      8  O         20.6360  -20.6700  -11.4780 O.2     1  UNL1       -0.2670
      9  N         22.0170  -22.5370  -11.2430 N.am    1  UNL1       -0.3230
     10  H         22.1220  -23.3800  -10.6930 H       1  UNL1        0.1690
     11  C         23.1130  -22.2170  -12.0750 C.2     1  UNL1        0.0370
     12  C         24.4570  -22.2920  -11.6610 C.2     1  UNL1        0.0320
     13  C         25.5010  -21.9530  -12.5330 C.2     1  UNL1        0.0420
     14  C         25.1710  -21.5440  -13.8040 C.2     1  UNL1        0.1050
     15  C         23.8630  -21.4650  -14.2140 C.2     1  UNL1        0.1070
     16  O         26.0450  -21.1790  -14.7780 O.2     1  UNL1       -0.3230
     17  C         22.8150  -21.7900  -13.3780 C.2     1  UNL1        0.0690
     18  O         23.7470  -21.0380  -15.5020 O.2     1  UNL1       -0.3230
     19  C         25.1360  -20.8590  -15.8520 C.3     1  UNL1        0.3520
     20  S         16.6810  -24.2650   -7.4240 S.O2    1  UNL1        0.2630
     21  O         15.6340  -24.8050   -8.2650 O.2     1  UNL1       -0.2000
     22  O         17.3720  -25.0930   -6.4570 O.2     1  UNL1       -0.2000
     23  N         16.0810  -22.9360   -6.5690 N.pl3   1  UNL1       -0.2780
     24  H         15.0930  -23.0650   -6.3420 H       1  UNL1        0.1790
     25  C         16.8870  -22.3820   -5.5260 C.2     1  UNL1        0.0810
     26  C         18.0450  -21.6640   -5.8200 C.2     1  UNL1        0.0330
     27  C         18.8390  -21.1740   -4.7790 C.2     1  UNL1        0.0020
     28  C         18.4800  -21.4030   -3.4490 C.2     1  UNL1        0.0030
     29  C         17.3230  -22.1250   -3.1530 C.2     1  UNL1        0.0440
     30  C         16.5370  -22.6080   -4.1920 C.2     1  UNL1        0.1430
     31  F         15.4320  -23.3170   -3.9060 F       1  UNL1       -0.2040
@<TRIPOS>BOND
     1    19    18    1
     2    19    16    1
     3    18    15    1
     4    16    14    1
     5    15    14    2
     6    15    17    1
     7    14    13    1
     8    17    11    2
     9    13    12    2
    10    11    12    1
    11    11     9    1
    12     8     7    2
    13     9     7   am
    14     9    10    1
    15     7     1    1
    16     6     1    2
    17     6     5    1
    18     1     2    1
    19     5     4    2
    20     2     3    2
    21     4     3    1
    22     4    20    1
    23    21    20    2
    24    20    23    1
    25    20    22    2
    26    23    24    1
    27    23    25    1
    28    26    25    2
    29    26    27    1
    30    25    30    1
    31    27    28    2
    32    30    31    1
    33    30    29    2
    34    28    29    1
