@<TRIPOS>MOLECULE
17048_out_ligand_01.pdbqt
 35 38 0 0 0
SMALL
GASTEIGER

@<TRIPOS>ATOM
      1  C         22.7300  -22.4760  -11.4920 C.2     1  UNL1        0.0750
      2  C         21.7880  -21.7950  -12.2640 C.2     1  UNL1        0.0270
      3  C         20.4550  -21.7630  -11.8480 C.2     1  UNL1        0.0310
      4  C         20.0570  -22.4010  -10.6640 C.2     1  UNL1        0.0340
      5  C         21.0180  -23.0550   -9.8890 C.2     1  UNL1        0.0310
      6  C         22.3560  -23.0880  -10.2950 C.2     1  UNL1        0.0270
      7  N         18.6920  -22.3310  -10.3290 N.am    1  UNL1       -0.3270
      8  C         17.7240  -21.4970  -10.8580 C.2     1  UNL1        0.2310
      9  O         17.8930  -20.6690  -11.7510 O.2     1  UNL1       -0.2720
     10  H         18.3850  -22.9010   -9.5400 H       1  UNL1        0.1690
     11  C         16.3470  -21.7030  -10.2420 C.3     1  UNL1        0.1840
     12  S         16.1850  -23.3780   -9.5340 S.3     1  UNL1       -0.1010
     13  C         16.4320  -23.0640   -7.7940 C.2     1  UNL1        0.0950
     14  C         15.5620  -23.6410   -6.8810 C.2     1  UNL1        0.0460
     15  C         15.7540  -23.4060   -5.5150 C.2     1  UNL1       -0.0470
     16  C         14.8020  -24.0340   -4.5310 C.3     1  UNL1        0.0490
     17  C         16.8380  -22.5940   -5.1050 C.2     1  UNL1       -0.0010
     18  C         17.1350  -22.3060   -3.7520 C.2     1  UNL1        0.0140
     19  C         17.6620  -22.0480   -6.1140 C.2     1  UNL1        0.0690
     20  C         18.2190  -21.4990   -3.4080 C.2     1  UNL1        0.0010
     21  C         19.0200  -20.9660   -4.4080 C.2     1  UNL1        0.0020
     22  C         18.7350  -21.2470   -5.7450 C.2     1  UNL1        0.0320
     23  N         17.4540  -22.2600   -7.4270 N.2     1  UNL1       -0.2410
     24  S         24.4280  -22.5190  -12.0240 S.O2    1  UNL1        0.2470
     25  O         24.6300  -23.7280  -12.7940 O.2     1  UNL1       -0.2050
     26  O         25.2420  -22.2250  -10.8620 O.2     1  UNL1       -0.2050
     27  N         24.5940  -21.1870  -13.0510 N.pl3   1  UNL1       -0.1580
     28  H         23.8780  -20.4940  -12.8280 H       1  UNL1        0.1480
     29  C         24.6930  -21.5040  -14.4660 C.ar    1  UNL1        0.1700
     30  O         23.6530  -21.9950  -15.1920 O.2     1  UNL1       -0.2000
     31  N         24.0540  -22.1960  -16.4990 N.ar    1  UNL1       -0.1310
     32  C         25.3320  -21.7990  -16.5490 C.ar    1  UNL1        0.0680
     33  C         26.0890  -21.8800  -17.8220 C.3     1  UNL1        0.0730
     34  C         25.7850  -21.3220  -15.2840 C.ar    1  UNL1        0.0130
     35  C         27.1180  -20.7690  -14.9510 C.3     1  UNL1        0.0540
@<TRIPOS>BOND
     1    33    32    1
     2    32    31   ar
     3    32    34   ar
     4    31    30   ar
     5    34    35    1
     6    34    29   ar
     7    30    29   ar
     8    29    27    1
     9    27    28    1
    10    27    24    1
    11    25    24    2
    12     2     3    1
    13     2     1    2
    14    24     1    1
    15    24    26    2
    16     3     4    2
    17     9     8    2
    18     1     6    1
    19     8     7   am
    20     8    11    1
    21     4     7    1
    22     4     5    1
    23     7    10    1
    24     6     5    2
    25    11    12    1
    26    12    13    1
    27    13    23    2
    28    13    14    1
    29    23    19    1
    30    14    15    2
    31    19    22    1
    32    19    17    2
    33    22    21    2
    34    15    17    1
    35    15    16    1
    36    17    18    1
    37    21    20    1
    38    18    20    2
