@<TRIPOS>MOLECULE
17040_out_ligand_01.pdbqt
 29 31 0 0 0
SMALL
GASTEIGER

@<TRIPOS>ATOM
      1  C         20.1180  -21.4170  -11.0520 C.2     1  UNL1       -0.0280
      2  C         19.1500  -20.9500  -11.9560 C.2     1  UNL1        0.0090
      3  C         17.8170  -21.3290  -11.8090 C.2     1  UNL1        0.0030
      4  C         17.4420  -22.1790  -10.7630 C.2     1  UNL1        0.0290
      5  C         18.3930  -22.6640   -9.8510 C.2     1  UNL1        0.0350
      6  C         19.7270  -22.2760  -10.0010 C.2     1  UNL1        0.0380
      7  N         17.9310  -23.5280   -8.8310 N.am    1  UNL1       -0.3240
      8  C         16.7380  -23.4480   -8.1380 C.2     1  UNL1        0.2450
      9  O         15.8270  -22.6430   -8.2850 O.2     1  UNL1       -0.2680
     10  H         18.5740  -24.2510   -8.5420 H       1  UNL1        0.1690
     11  C         16.6410  -24.5290   -7.1190 C.2     1  UNL1        0.0750
     12  C         17.0290  -24.3770   -5.8440 C.2     1  UNL1        0.0170
     13  C         17.6290  -23.1670   -5.2700 C.2     1  UNL1       -0.0360
     14  C         17.3750  -22.8420   -3.9320 C.2     1  UNL1        0.0110
     15  C         17.9530  -21.7080   -3.3580 C.2     1  UNL1        0.0010
     16  C         18.7930  -20.8920   -4.1170 C.2     1  UNL1        0.0000
     17  C         19.0540  -21.2110   -5.4480 C.2     1  UNL1        0.0010
     18  C         18.4740  -22.3450   -6.0250 C.2     1  UNL1        0.0110
     19  C         21.5690  -21.0080  -11.1860 C.3     1  UNL1        0.3120
     20  N         22.4900  -22.1520  -11.2390 N.3     1  UNL1        0.1060
     21  C         23.2000  -22.1750  -12.5370 C.3     1  UNL1        0.2740
     22  C         24.5850  -22.7150  -12.2260 C.3     1  UNL1        0.0330
     23  C         24.8750  -22.1040  -10.8670 C.3     1  UNL1        0.0470
     24  C         23.5200  -22.1610  -10.1580 C.3     1  UNL1        0.3140
     25  C         23.3820  -23.4740   -9.3530 C.2     1  UNL1        0.2490
     26  N         24.5680  -24.0100   -8.9130 N.am    1  UNL1       -0.3680
     27  H         24.4440  -24.7680   -8.2540 H       1  UNL1        0.1590
     28  H         25.3010  -23.3570   -8.6710 H       1  UNL1        0.1590
     29  O         22.3180  -24.0470   -9.0870 O.2     1  UNL1       -0.2710
@<TRIPOS>BOND
     1    21    22    1
     2    21    20    1
     3    22    23    1
     4     2     3    1
     5     2     1    2
     6     3     4    2
     7    20    19    1
     8    20    24    1
     9    19     1    1
    10     1     6    1
    11    23    24    1
    12     4     5    1
    13    24    25    1
    14     6     5    2
    15     5     7    1
    16    25    29    2
    17    25    26   am
    18    26    28    1
    19    26    27    1
    20     7    10    1
    21     7     8   am
    22     9     8    2
    23     8    11    1
    24    11    12    2
    25    18    17    1
    26    18    13    2
    27    12    13    1
    28    17    16    2
    29    13    14    1
    30    16    15    1
    31    14    15    2
