@<TRIPOS>MOLECULE
17050_out_ligand_01.pdbqt
 33 36 0 0 0
SMALL
GASTEIGER

@<TRIPOS>ATOM
      1  C         20.7960  -22.7640   -9.9770 C.2     1  UNL1        0.0340
      2  C         20.1110  -22.0190  -10.9470 C.2     1  UNL1        0.0170
      3  C         20.7470  -21.6810  -12.1420 C.2     1  UNL1        0.0030
      4  C         22.0650  -22.0790  -12.3690 C.2     1  UNL1        0.0240
      5  C         22.7540  -22.8060  -11.3990 C.2     1  UNL1        0.0230
      6  C         22.1290  -23.1380  -10.1970 C.2     1  UNL1        0.0410
      7  C         20.1590  -23.1550   -8.6850 C.2     1  UNL1        0.2560
      8  O         20.3150  -24.3030   -8.2910 O.2     1  UNL1       -0.2670
      9  N         19.4010  -22.1670   -8.0820 N.am    1  UNL1       -0.3230
     10  H         19.2490  -21.3160   -8.6060 H       1  UNL1        0.1690
     11  C         18.7240  -22.2450   -6.8450 C.2     1  UNL1        0.0370
     12  C         19.0110  -21.4320   -5.7460 C.2     1  UNL1        0.0320
     13  C         18.2940  -21.5720   -4.5510 C.2     1  UNL1        0.0420
     14  C         17.2860  -22.5240   -4.4500 C.2     1  UNL1        0.1020
     15  C         16.9700  -23.3190   -5.5540 C.2     1  UNL1        0.1040
     16  O         16.6400  -22.6190   -3.2450 O.2     1  UNL1       -0.3460
     17  C         17.6930  -23.1890   -6.7400 C.2     1  UNL1        0.0690
     18  O         15.9660  -24.2540   -5.5440 O.2     1  UNL1       -0.3460
     19  C         15.0890  -24.0650   -4.4270 C.3     1  UNL1        0.2020
     20  C         15.8840  -23.8320   -3.1530 C.3     1  UNL1        0.2020
     21  N         24.1240  -23.1800  -11.6190 N.pl3   1  UNL1       -0.1810
     22  H         24.3510  -24.0300  -11.0990 H       1  UNL1        0.1460
     23  S         25.2590  -21.9930  -11.1520 S.O2    1  UNL1        0.2470
     24  O         26.4480  -22.7300  -10.7710 O.2     1  UNL1       -0.2050
     25  O         24.6680  -21.0120  -10.2710 O.2     1  UNL1       -0.2050
     26  C         25.6050  -21.1910  -12.6940 C.2     1  UNL1        0.0980
     27  C         25.1840  -21.8220  -13.8760 C.2     1  UNL1        0.0500
     28  C         25.4470  -21.2290  -15.1080 C.2     1  UNL1        0.0350
     29 CL         24.9280  -21.9980  -16.5550 Cl      1  UNL1       -0.0840
     30  C         26.1280  -20.0180  -15.1760 C.2     1  UNL1        0.0250
     31  C         26.5520  -19.3940  -13.9990 C.2     1  UNL1        0.0270
     32  C         26.2950  -19.9760  -12.7510 C.2     1  UNL1        0.0570
     33 CL         26.8530  -19.1090  -11.3690 Cl      1  UNL1       -0.0830
@<TRIPOS>BOND
     1    29    28    1
     2    30    28    2
     3    30    31    1
     4    28    27    1
     5    31    32    2
     6    27    26    2
     7    32    26    1
     8    32    33    1
     9    26    23    1
    10     4     3    2
    11     4     5    1
    12     3     2    1
    13    21     5    1
    14    21    23    1
    15    21    22    1
    16     5     6    2
    17    23    24    2
    18    23    25    2
    19     2     1    2
    20     6     1    1
    21     1     7    1
    22     7     8    2
    23     7     9   am
    24    10     9    1
    25     9    11    1
    26    11    17    2
    27    11    12    1
    28    17    15    1
    29    12    13    2
    30    15    18    1
    31    15    14    2
    32    18    19    1
    33    13    14    1
    34    14    16    1
    35    19    20    1
    36    16    20    1
