@<TRIPOS>MOLECULE
17066_out_ligand_01.pdbqt
 32 35 0 0 0
SMALL
GASTEIGER

@<TRIPOS>ATOM
      1  C         18.6980  -22.2720  -10.0710 C.2     1  UNL1        0.0330
      2  C         18.6540  -21.6610  -11.3330 C.2     1  UNL1        0.0170
      3  C         19.8420  -21.3260  -11.9890 C.2     1  UNL1        0.0030
      4  C         21.0720  -21.5830  -11.3840 C.2     1  UNL1        0.0250
      5  C         21.1070  -22.1700  -10.1160 C.2     1  UNL1        0.0800
      6  C         19.9280  -22.5270   -9.4580 C.2     1  UNL1        0.0420
      7  S         22.6640  -22.4710   -9.3120 S.O2    1  UNL1        0.2630
      8  O         22.8910  -23.9010   -9.2920 O.2     1  UNL1       -0.2000
      9  O         22.6720  -21.6920   -8.0920 O.2     1  UNL1       -0.2000
     10  N         23.7740  -21.7420  -10.3550 N.pl3   1  UNL1       -0.2810
     11  H         23.3980  -20.8960  -10.7810 H       1  UNL1        0.1790
     12  C         24.6350  -22.5590  -11.1430 C.2     1  UNL1        0.0450
     13  C         25.8890  -22.9190  -10.6120 C.2     1  UNL1        0.0330
     14  C         26.7820  -23.6900  -11.3610 C.2     1  UNL1        0.0420
     15  C         26.3880  -24.0830  -12.6200 C.2     1  UNL1        0.1050
     16  C         25.1600  -23.7360  -13.1360 C.2     1  UNL1        0.1070
     17  O         27.1210  -24.8320  -13.4860 O.2     1  UNL1       -0.3230
     18  C         24.2590  -22.9740  -12.4220 C.2     1  UNL1        0.0690
     19  O         24.9700  -24.2240  -14.3910 O.2     1  UNL1       -0.3230
     20  C         26.2100  -24.9280  -14.6020 C.3     1  UNL1        0.3520
     21  C         17.4550  -22.6120   -9.3280 C.2     1  UNL1        0.2560
     22  N         17.5090  -22.3650   -7.9690 N.am    1  UNL1       -0.3220
     23  H         18.3290  -21.8800   -7.6350 H       1  UNL1        0.1690
     24  O         16.5090  -23.0420   -9.9770 O.2     1  UNL1       -0.2670
     25  C         16.5120  -22.6270   -6.9990 C.2     1  UNL1        0.0410
     26  C         16.6460  -23.7680   -6.1770 C.2     1  UNL1       -0.0350
     27  C         15.6560  -24.0480   -5.2190 C.2     1  UNL1        0.0090
     28  C         17.8170  -24.7080   -6.2830 C.3     1  UNL1        0.0500
     29  C         14.5480  -23.2160   -5.0680 C.2     1  UNL1        0.0070
     30  C         14.4130  -22.0810   -5.8660 C.2     1  UNL1       -0.0600
     31  C         13.2080  -21.1960   -5.7370 C.3     1  UNL1        0.0480
     32  C         15.3900  -21.8040   -6.8350 C.2     1  UNL1        0.0370
@<TRIPOS>BOND
     1    20    19    1
     2    20    17    1
     3    19    16    1
     4    17    15    1
     5    16    15    2
     6    16    18    1
     7    15    14    1
     8    18    12    2
     9     3     4    2
    10     3     2    1
    11     4     5    1
    12    14    13    2
    13     2     1    2
    14    12    13    1
    15    12    10    1
    16    11    10    1
    17    10     7    1
    18     5     6    2
    19     5     7    1
    20     1     6    1
    21     1    21    1
    22    24    21    2
    23    21    22   am
    24     7     8    2
    25     7     9    2
    26    22    23    1
    27    22    25    1
    28    25    32    2
    29    25    26    1
    30    32    30    1
    31    28    26    1
    32    26    27    2
    33    30    31    1
    34    30    29    2
    35    27    29    1
