@<TRIPOS>MOLECULE
17071_out_ligand_01.pdbqt
 32 35 0 0 0
SMALL
GASTEIGER

@<TRIPOS>ATOM
      1  N         21.5430  -22.4130  -10.4780 N.am    1  UNL1       -0.2440
      2  C         21.2500  -22.8100   -9.1590 C.2     1  UNL1        0.2670
      3  O         22.0690  -23.0240   -8.2640 O.2     1  UNL1       -0.2670
      4  C         19.7950  -23.0640   -8.8840 C.2     1  UNL1        0.0590
      5  C         19.5370  -24.0270   -7.9740 C.2     1  UNL1        0.1060
      6  C         18.7950  -22.3510   -9.6740 C.2     1  UNL1       -0.0030
      7  C         17.5180  -22.0170   -9.1930 C.2     1  UNL1        0.0130
      8  C         16.5950  -21.3560  -10.0080 C.2     1  UNL1        0.0010
      9  C         16.9440  -21.0000  -11.3060 C.2     1  UNL1        0.0010
     10  C         18.2270  -21.2780  -11.7750 C.2     1  UNL1        0.0180
     11  C         19.1580  -21.9330  -10.9510 C.2     1  UNL1        0.0440
     12  C         20.5490  -22.1220  -11.4370 C.2     1  UNL1        0.2660
     13  O         20.7280  -21.9400  -12.6410 O.2     1  UNL1       -0.2670
     14  N         18.3420  -24.6150   -7.6250 N.pl3   1  UNL1       -0.3650
     15  H         18.1890  -25.5500   -7.9870 H       1  UNL1        0.1650
     16  C         17.4080  -24.2020   -6.6570 C.2     1  UNL1        0.0320
     17  C         16.0400  -24.3360   -6.9430 C.2     1  UNL1        0.0290
     18  C         15.0650  -23.9360   -6.0270 C.2     1  UNL1        0.0030
     19  C         15.4410  -23.3910   -4.8030 C.2     1  UNL1        0.0090
     20  C         16.7970  -23.2470   -4.4860 C.2     1  UNL1       -0.0330
     21  C         17.7680  -23.6430   -5.4230 C.2     1  UNL1        0.0380
     22  C         17.2040  -22.6220   -3.1790 C.3     1  UNL1        0.2030
     23  O         17.7380  -21.3220   -3.3950 O.3     1  UNL1       -0.3960
     24  H         18.3770  -21.3840   -4.1250 H       1  UNL1        0.2090
     25  C         22.9370  -22.3360  -10.8770 C.2     1  UNL1        0.0460
     26  C         23.8120  -21.4180  -10.2820 C.2     1  UNL1        0.0310
     27  C         25.1560  -21.3370  -10.6640 C.2     1  UNL1        0.0090
     28  C         25.6720  -22.1750  -11.6580 C.2     1  UNL1       -0.0560
     29  C         27.1210  -22.0590  -12.0440 C.3     1  UNL1        0.0490
     30  C         24.8160  -23.1020  -12.2750 C.2     1  UNL1       -0.0540
     31  C         23.4660  -23.1710  -11.8750 C.2     1  UNL1        0.0370
     32  C         25.3130  -24.0350  -13.3460 C.3     1  UNL1        0.0490
@<TRIPOS>BOND
     1    32    30    1
     2    13    12    2
     3    30    31    1
     4    30    28    2
     5    29    28    1
     6    31    25    2
     7    10     9    2
     8    10    11    1
     9    28    27    1
    10    12    11    1
    11    12     1   am
    12     9     8    1
    13    11     6    2
    14    25     1    1
    15    25    26    1
    16    27    26    2
    17     1     2   am
    18     8     7    2
    19     6     7    1
    20     6     4    1
    21     2     4    1
    22     2     3    2
    23     4     5    2
    24    15    14    1
    25     5    14    1
    26    14    16    1
    27    17    16    2
    28    17    18    1
    29    16    21    1
    30    18    19    2
    31    21    20    2
    32    19    20    1
    33    20    22    1
    34    24    23    1
    35    23    22    1
