@<TRIPOS>MOLECULE
17082_out_ligand_01.pdbqt
 31 34 0 0 0
SMALL
GASTEIGER

@<TRIPOS>ATOM
      1  C         18.7860  -22.3340   -9.8360 C.2     1  UNL1        0.0330
      2  C         18.6420  -21.7980  -11.1250 C.2     1  UNL1        0.0170
      3  C         19.7720  -21.4610  -11.8750 C.2     1  UNL1        0.0030
      4  C         21.0460  -21.6600  -11.3450 C.2     1  UNL1        0.0250
      5  C         21.1840  -22.1910  -10.0590 C.2     1  UNL1        0.0800
      6  C         20.0610  -22.5070   -9.2900 C.2     1  UNL1        0.0420
      7  S         22.8060  -22.4440   -9.3840 S.O2    1  UNL1        0.2630
      8  O         23.0980  -23.8580   -9.3700 O.2     1  UNL1       -0.2000
      9  O         22.9040  -21.6510   -8.1760 O.2     1  UNL1       -0.2000
     10  N         23.7990  -21.6740  -10.5220 N.pl3   1  UNL1       -0.2810
     11  H         24.1590  -20.7990  -10.1420 H       1  UNL1        0.1790
     12  C         24.7070  -22.4850  -11.2590 C.2     1  UNL1        0.0450
     13  C         25.8980  -22.9320  -10.6600 C.2     1  UNL1        0.0330
     14  C         26.7670  -23.7740  -11.3610 C.2     1  UNL1        0.0420
     15  C         26.4090  -24.1450  -12.6400 C.2     1  UNL1        0.1050
     16  C         25.2420  -23.7050  -13.2210 C.2     1  UNL1        0.1070
     17  O         27.1210  -24.9600  -13.4610 O.2     1  UNL1       -0.3230
     18  C         24.3690  -22.8700  -12.5580 C.2     1  UNL1        0.0690
     19  O         25.0730  -24.1900  -14.4800 O.2     1  UNL1       -0.3230
     20  C         26.2550  -25.0110  -14.6140 C.3     1  UNL1        0.3520
     21  C         17.6030  -22.7110   -9.0140 C.2     1  UNL1        0.2560
     22  N         17.7620  -22.5170   -7.6540 N.am    1  UNL1       -0.3230
     23  H         18.6080  -22.0530   -7.3510 H       1  UNL1        0.1690
     24  O         16.6050  -23.1170   -9.5940 O.2     1  UNL1       -0.2670
     25  C         16.8290  -22.8040   -6.6340 C.2     1  UNL1        0.0350
     26  C         17.0290  -23.7660   -5.6450 C.2     1  UNL1        0.0290
     27  C         16.0600  -23.9810   -4.6620 C.2     1  UNL1        0.0030
     28  C         14.8790  -23.2390   -4.6610 C.2     1  UNL1        0.0070
     29  C         14.6540  -22.2780   -5.6510 C.2     1  UNL1       -0.0600
     30  C         13.4030  -21.4510   -5.6360 C.3     1  UNL1        0.0480
     31  C         15.6410  -22.0590   -6.6250 C.2     1  UNL1        0.0360
@<TRIPOS>BOND
     1    20    19    1
     2    20    17    1
     3    19    16    1
     4    17    15    1
     5    16    15    2
     6    16    18    1
     7    15    14    1
     8    18    12    2
     9     3     4    2
    10     3     2    1
    11    14    13    2
    12     4     5    1
    13    12    13    1
    14    12    10    1
    15     2     1    2
    16    10    11    1
    17    10     7    1
    18     5     7    1
    19     5     6    2
    20     1     6    1
    21     1    21    1
    22    24    21    2
    23     7     8    2
    24     7     9    2
    25    21    22   am
    26    22    23    1
    27    22    25    1
    28    25    31    2
    29    25    26    1
    30    31    29    1
    31    29    30    1
    32    29    28    2
    33    26    27    2
    34    27    28    1
