@<TRIPOS>MOLECULE
17093_out_ligand_01.pdbqt
 31 34 0 0 0
SMALL
GASTEIGER

@<TRIPOS>ATOM
      1  C         21.3880  -22.5350   -9.9880 C.2     1  UNL1        0.0810
      2  C         20.7240  -23.0410   -8.8600 C.2     1  UNL1        0.0420
      3  C         19.3340  -22.9630   -8.7880 C.2     1  UNL1        0.0340
      4  C         18.5950  -22.4360   -9.8480 C.2     1  UNL1        0.0170
      5  C         19.2570  -21.9510  -10.9780 C.2     1  UNL1        0.0090
      6  C         20.6610  -21.9790  -11.0620 C.2     1  UNL1       -0.0390
      7  C         21.3100  -21.4470  -12.3110 C.3     1  UNL1        0.0500
      8  S         23.1710  -22.6200   -9.9860 S.O2    1  UNL1        0.2460
      9  O         23.5830  -23.5360   -8.9450 O.2     1  UNL1       -0.2060
     10  O         23.7080  -21.2760  -10.0300 O.2     1  UNL1       -0.2060
     11  N         23.5070  -23.3850  -11.4630 N.pl3   1  UNL1       -0.1810
     12  H         23.3080  -24.3830  -11.3880 H       1  UNL1        0.1460
     13  C         24.7100  -23.0220  -12.1300 C.2     1  UNL1        0.0230
     14  C         25.9310  -23.3490  -11.5440 C.2     1  UNL1        0.0240
     15  C         27.1210  -23.0400  -12.2010 C.2     1  UNL1        0.0020
     16  C         27.0860  -22.4040  -13.4430 C.2     1  UNL1        0.0070
     17  C         25.8630  -22.0630  -14.0340 C.2     1  UNL1       -0.0600
     18  C         25.8250  -21.4250  -15.3910 C.3     1  UNL1        0.0480
     19  C         24.6710  -22.3860  -13.3720 C.2     1  UNL1        0.0310
     20  C         18.6430  -23.4790   -7.5860 C.2     1  UNL1        0.2580
     21  O         18.3120  -24.6600   -7.6450 O.2     1  UNL1       -0.2670
     22  N         18.4450  -22.5930   -6.5110 N.am    1  UNL1       -0.3130
     23  C         19.2140  -21.3420   -6.4220 C.3     1  UNL1        0.1330
     24  C         17.4930  -22.8470   -5.4540 C.2     1  UNL1        0.0430
     25  C         19.6120  -20.9960   -5.0010 C.3     1  UNL1        0.0250
     26  C         18.3610  -20.8200   -4.1680 C.3     1  UNL1        0.0420
     27  C         17.4380  -21.9990   -4.3250 C.2     1  UNL1       -0.0310
     28  C         16.4820  -22.2160   -3.3140 C.2     1  UNL1        0.0090
     29  C         15.5880  -23.2760   -3.3980 C.2     1  UNL1        0.0010
     30  C         15.6330  -24.1210   -4.4980 C.2     1  UNL1        0.0020
     31  C         16.5710  -23.9040   -5.5150 C.2     1  UNL1        0.0300
@<TRIPOS>BOND
     1    18    17    1
     2    17    16    2
     3    17    19    1
     4    16    15    1
     5    19    13    2
     6     7     6    1
     7    15    14    2
     8    13    14    1
     9    13    11    1
    10    11    12    1
    11    11     8    1
    12     6     5    1
    13     6     1    2
    14     5     4    2
    15    10     8    2
    16     1     8    1
    17     1     2    1
    18     8     9    2
    19     4     3    1
    20     2     3    2
    21     3    20    1
    22    21    20    2
    23    20    22   am
    24    22    23    1
    25    22    24    1
    26    23    25    1
    27    31    24    2
    28    31    30    1
    29    24    27    1
    30    25    26    1
    31    30    29    2
    32    27    26    1
    33    27    28    2
    34    29    28    1
