@<TRIPOS>MOLECULE
170_out_ligand_01.pdbqt
 36 39 0 0 0
SMALL
GASTEIGER

@<TRIPOS>ATOM
      1  C         18.6240  -22.3350  -10.6050 C.2     1  UNL1        0.0360
      2  C         17.6360  -21.5290  -11.1780 C.2     1  UNL1        0.0290
      3  C         16.3460  -21.4810  -10.6350 C.2     1  UNL1        0.0040
      4  C         16.0250  -22.2490   -9.5200 C.2     1  UNL1        0.0250
      5  C         17.0030  -23.0730   -8.9620 C.2     1  UNL1        0.0820
      6  C         18.3020  -23.1060   -9.4850 C.2     1  UNL1        0.0540
      7  N         19.9440  -22.4340  -11.0940 N.am    1  UNL1       -0.3230
      8  C         20.7150  -21.4220  -11.6340 C.2     1  UNL1        0.2560
      9  O         20.4190  -20.2390  -11.7400 O.2     1  UNL1       -0.2670
     10  H         20.3900  -23.3340  -10.9700 H       1  UNL1        0.1690
     11  C         22.0600  -21.8480  -12.1070 C.2     1  UNL1        0.0320
     12  C         22.8080  -22.8090  -11.4110 C.2     1  UNL1        0.0180
     13  C         24.0610  -23.2000  -11.8950 C.2     1  UNL1        0.0260
     14  C         24.5500  -22.6440  -13.0830 C.2     1  UNL1        0.0790
     15  C         23.8170  -21.6710  -13.7690 C.2     1  UNL1        0.0260
     16  C         22.5630  -21.2880  -13.2880 C.2     1  UNL1        0.0180
     17  S         26.1640  -23.1200  -13.6780 S.O2    1  UNL1        0.2600
     18  O         27.0940  -22.0890  -13.2690 O.2     1  UNL1       -0.2000
     19  O         26.3640  -24.5050  -13.3020 O.2     1  UNL1       -0.2000
     20  N         26.0090  -23.0550  -15.3490 N.3     1  UNL1       -0.3070
     21  C         26.3090  -21.8040  -16.0750 C.3     1  UNL1        0.1350
     22  C         25.2090  -21.6940  -17.1240 C.3     1  UNL1        0.0220
     23  C         24.8500  -23.1420  -17.4000 C.3     1  UNL1        0.0220
     24  C         24.8960  -23.7620  -16.0110 C.3     1  UNL1        0.1350
     25  S         16.6050  -24.0660   -7.5430 S.O2    1  UNL1        0.2630
     26  O         15.5380  -24.9690   -7.9200 O.2     1  UNL1       -0.2000
     27  O         17.8480  -24.5630   -6.9930 O.2     1  UNL1       -0.2000
     28  N         16.0110  -22.9350   -6.4320 N.pl3   1  UNL1       -0.2790
     29  H         15.0940  -23.2190   -6.0830 H       1  UNL1        0.1790
     30  C         16.9100  -22.4040   -5.4490 C.2     1  UNL1        0.0640
     31  C         17.9410  -21.5470   -5.8400 C.2     1  UNL1        0.0320
     32  C         18.8430  -21.0580   -4.8940 C.2     1  UNL1        0.0020
     33  C         18.7190  -21.4220   -3.5530 C.2     1  UNL1        0.0020
     34  C         17.6880  -22.2720   -3.1530 C.2     1  UNL1        0.0260
     35  C         16.7830  -22.7610   -4.0970 C.2     1  UNL1        0.0610
     36 CL         15.5140  -23.8050   -3.5660 Cl      1  UNL1       -0.0820
@<TRIPOS>BOND
     1    23    22    1
     2    23    24    1
     3    22    21    1
     4    21    20    1
     5    24    20    1
     6    20    17    1
     7    15    16    1
     8    15    14    2
     9    17    19    2
    10    17    18    2
    11    17    14    1
    12    16    11    2
    13    14    13    1
    14    11     8    1
    15    11    12    1
    16    13    12    2
    17     9     8    2
    18     8     7   am
    19     2     3    1
    20     2     1    2
    21     7    10    1
    22     7     1    1
    23     3     4    2
    24     1     6    1
    25     4     5    1
    26     6     5    2
    27     5    25    1
    28    26    25    2
    29    25    27    2
    30    25    28    1
    31    28    29    1
    32    28    30    1
    33    31    30    2
    34    31    32    1
    35    30    35    1
    36    32    33    2
    37    35    36    1
    38    35    34    2
    39    33    34    1
