@<TRIPOS>MOLECULE
17103_out_ligand_01.pdbqt
 36 39 0 0 0
SMALL
GASTEIGER

@<TRIPOS>ATOM
      1  C         21.1960  -22.0710  -10.2330 C.2     1  UNL1        0.0820
      2  C         21.1980  -21.0940  -11.2300 C.2     1  UNL1        0.0250
      3  C         20.0290  -20.8620  -11.9500 C.2     1  UNL1        0.0040
      4  C         18.8680  -21.5900  -11.6650 C.2     1  UNL1        0.0290
      5  C         18.8590  -22.5570  -10.6550 C.2     1  UNL1        0.0360
      6  C         20.0350  -22.7920   -9.9340 C.2     1  UNL1        0.0540
      7  N         17.7250  -23.3150  -10.2970 N.am    1  UNL1       -0.3270
      8  C         16.6730  -22.9300   -9.4820 C.2     1  UNL1        0.2220
      9  O         16.5120  -21.8260   -8.9760 O.2     1  UNL1       -0.2730
     10  H         17.6900  -24.2600  -10.6610 H       1  UNL1        0.1690
     11  C         15.6590  -24.0500   -9.3070 C.3     1  UNL1        0.1030
     12  C         15.5060  -24.5070   -7.8550 C.3     1  UNL1        0.0140
     13  C         16.8290  -24.6650   -7.0950 C.3     1  UNL1        0.0410
     14  C         16.9600  -23.7560   -5.9130 C.2     1  UNL1       -0.0300
     15  C         16.1870  -23.7960   -4.7670 C.2     1  UNL1        0.0960
     16  N         16.6150  -22.8100   -3.9230 N.pl3   1  UNL1       -0.3650
     17  C         17.6530  -22.1120   -4.4930 C.2     1  UNL1        0.0420
     18  H         16.2330  -22.6190   -3.0060 H       1  UNL1        0.1650
     19  C         18.3900  -21.0290   -3.9990 C.2     1  UNL1        0.0300
     20  C         17.8980  -22.6880   -5.7410 C.2     1  UNL1       -0.0020
     21  C         19.4110  -20.5180   -4.8070 C.2     1  UNL1        0.0020
     22  C         19.6830  -21.0710   -6.0550 C.2     1  UNL1        0.0010
     23  C         18.9360  -22.1540   -6.5330 C.2     1  UNL1        0.0140
     24  S         22.6690  -22.3710   -9.2930 S.O2    1  UNL1        0.2630
     25  O         22.9220  -23.7960   -9.3360 O.2     1  UNL1       -0.2000
     26  O         22.5750  -21.6730   -8.0310 O.2     1  UNL1       -0.2000
     27  N         23.8710  -21.6600  -10.2490 N.pl3   1  UNL1       -0.2810
     28  H         23.5210  -20.8130  -10.6960 H       1  UNL1        0.1790
     29  C         24.6870  -22.5180  -11.0340 C.2     1  UNL1        0.0420
     30  C         25.9860  -22.8160  -10.6270 C.2     1  UNL1        0.0330
     31  C         26.8000  -23.6290  -11.4230 C.2     1  UNL1        0.0390
     32  C         26.3150  -24.1430  -12.6250 C.2     1  UNL1        0.0680
     33  C         25.0110  -23.8350  -13.0250 C.2     1  UNL1        0.0390
     34  C         24.1970  -23.0220  -12.2350 C.2     1  UNL1        0.0330
     35  O         27.0020  -24.9450  -13.4940 O.2     1  UNL1       -0.3560
     36  C         26.8350  -24.6820  -14.8820 C.3     1  UNL1        0.2100
@<TRIPOS>BOND
     1    36    35    1
     2    35    32    1
     3    33    32    2
     4    33    34    1
     5    32    31    1
     6    34    29    2
     7     3     4    2
     8     3     2    1
     9     4     5    1
    10    31    30    2
    11     2     1    2
    12    29    30    1
    13    29    27    1
    14    28    27    1
    15    10     7    1
    16     5     7    1
    17     5     6    2
    18     7     8   am
    19    27    24    1
    20     1     6    1
    21     1    24    1
    22     8    11    1
    23     8     9    2
    24    25    24    2
    25    11    12    1
    26    24    26    2
    27    12    13    1
    28    13    14    1
    29    23    22    2
    30    23    20    1
    31    22    21    1
    32    14    20    1
    33    14    15    2
    34    20    17    2
    35    21    19    2
    36    15    16    1
    37    17    19    1
    38    17    16    1
    39    16    18    1
