@<TRIPOS>MOLECULE
17107_out_ligand_01.pdbqt
 26 28 0 0 0
SMALL
GASTEIGER

@<TRIPOS>ATOM
      1  C         20.1460  -22.4600   -7.9490 C.2     1  UNL1        0.2560
      2  O         21.1920  -22.0770   -7.4390 O.2     1  UNL1       -0.2670
      3  N         19.8990  -22.6630   -9.2950 N.am    1  UNL1       -0.3230
      4  H         19.0270  -23.1120   -9.5390 H       1  UNL1        0.1690
      5  C         19.0060  -22.7920   -7.0460 C.2     1  UNL1        0.0320
      6  C         18.2580  -23.9680   -7.2040 C.2     1  UNL1        0.0180
      7  C         17.1950  -24.2410   -6.3380 C.2     1  UNL1        0.0260
      8  C         16.8810  -23.3360   -5.3190 C.2     1  UNL1        0.0740
      9  C         17.6020  -22.1470   -5.1740 C.2     1  UNL1        0.0260
     10  C         18.6640  -21.8770   -6.0390 C.2     1  UNL1        0.0180
     11  S         15.5140  -23.6640   -4.2430 S.O2    1  UNL1        0.2390
     12  O         14.3490  -23.9750   -5.0360 O.2     1  UNL1       -0.2060
     13  O         15.9590  -24.5000   -3.1530 O.2     1  UNL1       -0.2060
     14  N         15.2340  -22.1490   -3.5750 N.3     1  UNL1       -0.2250
     15  H         15.9020  -21.4770   -3.9530 H       1  UNL1        0.1360
     16  H         15.2520  -22.2140   -2.5570 H       1  UNL1        0.1360
     17  C         20.7690  -22.3980  -10.3740 C.2     1  UNL1        0.0350
     18  C         20.2800  -21.5830  -11.4020 C.2     1  UNL1        0.0300
     19  C         21.0790  -21.2670  -12.5050 C.2     1  UNL1        0.0140
     20  C         22.3870  -21.7570  -12.6030 C.2     1  UNL1       -0.0260
     21  C         23.2050  -21.4510  -13.7020 C.2     1  UNL1        0.0120
     22  C         22.8920  -22.5770  -11.5690 C.2     1  UNL1       -0.0240
     23  C         24.5080  -21.9460  -13.7820 C.2     1  UNL1        0.0010
     24  C         25.0070  -22.7540  -12.7650 C.2     1  UNL1        0.0010
     25  C         24.2050  -23.0670  -11.6660 C.2     1  UNL1        0.0120
     26  C         22.0740  -22.8860  -10.4660 C.2     1  UNL1        0.0420
@<TRIPOS>BOND
     1    23    21    2
     2    23    24    1
     3    21    20    1
     4    24    25    2
     5    20    19    2
     6    20    22    1
     7    19    18    1
     8    25    22    1
     9    22    26    2
    10    18    17    2
    11    26    17    1
    12    17     3    1
    13     4     3    1
    14     3     1   am
    15     1     2    2
    16     1     5    1
    17     6     5    2
    18     6     7    1
    19     5    10    1
    20     7     8    2
    21    10     9    2
    22     8     9    1
    23     8    11    1
    24    12    11    2
    25    11    14    1
    26    11    13    2
    27    15    14    1
    28    14    16    1
