@<TRIPOS>MOLECULE
17100_out_ligand_01.pdbqt
 33 36 0 0 0
SMALL
GASTEIGER

@<TRIPOS>ATOM
      1  C         19.0960  -21.0200  -12.1540 C.3     1  UNL1        0.0490
      2  C         18.4150  -21.6940  -10.9960 C.2     1  UNL1       -0.0460
      3  C         17.0450  -21.4700  -10.7850 C.2     1  UNL1        0.0090
      4  C         16.3820  -22.0550   -9.7030 C.2     1  UNL1        0.0250
      5  C         17.0920  -22.8700   -8.8190 C.2     1  UNL1        0.0750
      6  C         18.4480  -23.1300   -9.0180 C.2     1  UNL1        0.0420
      7  C         19.1010  -22.5530  -10.1130 C.2     1  UNL1        0.0390
      8  C         20.5390  -22.8720  -10.2790 C.2     1  UNL1        0.2560
      9  O         20.9270  -23.9730   -9.9140 O.2     1  UNL1       -0.2670
     10  N         21.2670  -21.8640  -10.8790 N.am    1  UNL1       -0.3230
     11  H         20.7470  -21.0520  -11.1890 H       1  UNL1        0.1690
     12  C         22.6490  -21.8540  -11.1530 C.2     1  UNL1        0.0370
     13  C         23.6360  -21.6970  -10.1770 C.2     1  UNL1        0.0320
     14  C         24.9910  -21.6990  -10.5290 C.2     1  UNL1        0.0420
     15  C         25.3650  -21.8600  -11.8590 C.2     1  UNL1        0.1020
     16  C         24.3850  -21.9880  -12.8440 C.2     1  UNL1        0.1040
     17  O         26.7090  -21.8750  -12.1270 O.2     1  UNL1       -0.3460
     18  C         23.0350  -21.9990  -12.4930 C.2     1  UNL1        0.0690
     19  O         24.6740  -22.1150  -14.1800 O.2     1  UNL1       -0.3460
     20  C         26.0340  -21.7590  -14.4560 C.3     1  UNL1        0.2020
     21  C         26.9720  -22.3870  -13.4380 C.3     1  UNL1        0.2020
     22  S         16.2660  -23.6120   -7.4330 S.O2    1  UNL1        0.2460
     23  O         15.4390  -22.6080   -6.7990 O.2     1  UNL1       -0.2060
     24  O         15.7080  -24.8600   -7.9070 O.2     1  UNL1       -0.2060
     25  N         17.5570  -24.0160   -6.4130 N.pl3   1  UNL1       -0.1780
     26  H         17.4160  -24.9660   -6.0620 H       1  UNL1        0.1460
     27  C         17.9160  -23.0500   -5.4230 C.2     1  UNL1        0.0610
     28  C         18.6790  -21.9350   -5.7700 C.2     1  UNL1        0.0270
     29  C         18.9690  -20.9680   -4.8030 C.2     1  UNL1        0.0020
     30  C         18.4890  -21.1070   -3.4980 C.2     1  UNL1        0.0030
     31  C         17.7190  -22.2180   -3.1530 C.2     1  UNL1        0.0440
     32  C         17.4330  -23.1790   -4.1170 C.2     1  UNL1        0.1380
     33  F         16.6960  -24.2480   -3.7810 F       1  UNL1       -0.2040
@<TRIPOS>BOND
     1    20    19    1
     2    20    21    1
     3    19    16    1
     4    21    17    1
     5    16    18    1
     6    16    15    2
     7    18    12    2
     8     1     2    1
     9    17    15    1
    10    15    14    1
    11    11    10    1
    12    12    10    1
    13    12    13    1
    14     2     3    2
    15     2     7    1
    16    10     8   am
    17     3     4    1
    18    14    13    2
    19     8     7    1
    20     8     9    2
    21     7     6    2
    22     4     5    2
    23     6     5    1
    24     5    22    1
    25    24    22    2
    26    22    23    2
    27    22    25    1
    28    25    26    1
    29    25    27    1
    30    28    27    2
    31    28    29    1
    32    27    32    1
    33    29    30    2
    34    32    33    1
    35    32    31    2
    36    30    31    1
