@<TRIPOS>MOLECULE
17113_out_ligand_01.pdbqt
 33 36 0 0 0
SMALL
GASTEIGER

@<TRIPOS>ATOM
      1  C         18.3910  -21.8280  -11.0210 C.3     1  UNL1        0.0490
      2  C         19.8850  -21.9960  -11.0390 C.2     1  UNL1       -0.0460
      3  C         20.6030  -21.5720  -12.1700 C.2     1  UNL1        0.0090
      4  C         21.9860  -21.7520  -12.2490 C.2     1  UNL1        0.0260
      5  C         22.6630  -22.3610  -11.1920 C.2     1  UNL1        0.0800
      6  C         21.9810  -22.7560  -10.0400 C.2     1  UNL1        0.0420
      7  C         20.5960  -22.5650   -9.9640 C.2     1  UNL1        0.0390
      8  C         19.9320  -23.0310   -8.7220 C.2     1  UNL1        0.2560
      9  O         19.9360  -24.2330   -8.4930 O.2     1  UNL1       -0.2670
     10  N         19.4230  -22.0140   -7.9420 N.am    1  UNL1       -0.3230
     11  H         19.6010  -21.0670   -8.2560 H       1  UNL1        0.1690
     12  C         18.7220  -22.1370   -6.7250 C.2     1  UNL1        0.0370
     13  C         19.0140  -21.3920   -5.5800 C.2     1  UNL1        0.0320
     14  C         18.2790  -21.5800   -4.4030 C.2     1  UNL1        0.0420
     15  C         17.2520  -22.5180   -4.3650 C.2     1  UNL1        0.1020
     16  C         16.9380  -23.2490   -5.5120 C.2     1  UNL1        0.1040
     17  O         16.5910  -22.6640   -3.1730 O.2     1  UNL1       -0.3460
     18  C         17.6780  -23.0710   -6.6800 C.2     1  UNL1        0.0690
     19  O         15.9190  -24.1660   -5.5620 O.2     1  UNL1       -0.3460
     20  C         15.0290  -24.0160   -4.4490 C.3     1  UNL1        0.2020
     21  C         15.8090  -23.8630   -3.1540 C.3     1  UNL1        0.2020
     22  S         24.4160  -22.6410  -11.2910 S.O2    1  UNL1        0.2630
     23  O         25.0430  -21.4090  -11.7190 O.2     1  UNL1       -0.2000
     24  O         24.8110  -23.2980  -10.0640 O.2     1  UNL1       -0.2000
     25  N         24.5440  -23.7930  -12.5190 N.pl3   1  UNL1       -0.2810
     26  H         23.7200  -24.3900  -12.5690 H       1  UNL1        0.1790
     27  C         25.1830  -23.4380  -13.7400 C.2     1  UNL1        0.0420
     28  C         24.5440  -22.6130  -14.6680 C.2     1  UNL1        0.0330
     29  C         25.1730  -22.3090  -15.8760 C.2     1  UNL1        0.0440
     30  C         26.4330  -22.8340  -16.1450 C.2     1  UNL1        0.1160
     31  F         27.0340  -22.5440  -17.3050 F       1  UNL1       -0.2060
     32  C         27.0770  -23.6540  -15.2260 C.2     1  UNL1        0.0440
     33  C         26.4500  -23.9580  -14.0160 C.2     1  UNL1        0.0330
@<TRIPOS>BOND
     1    31    30    1
     2    30    29    2
     3    30    32    1
     4    29    28    1
     5    32    33    2
     6    28    27    2
     7    33    27    1
     8    27    25    1
     9    26    25    1
    10    25    22    1
    11     4     3    1
    12     4     5    2
    13     3     2    2
    14    23    22    2
    15    22     5    1
    16    22    24    2
    17     5     6    1
    18     2     1    1
    19     2     7    1
    20     6     7    2
    21     7     8    1
    22     8     9    2
    23     8    10   am
    24    11    10    1
    25    10    12    1
    26    12    18    2
    27    12    13    1
    28    18    16    1
    29    13    14    2
    30    19    16    1
    31    19    20    1
    32    16    15    2
    33    20    21    1
    34    14    15    1
    35    15    17    1
    36    17    21    1
