@<TRIPOS>MOLECULE
17118_out_ligand_01.pdbqt
 30 33 0 0 0
SMALL
GASTEIGER

@<TRIPOS>ATOM
      1  C         19.9770  -21.9320   -7.0800 C.2     1  UNL1        0.0350
      2  C         20.2330  -21.0380   -6.0380 C.2     1  UNL1        0.0290
      3  C         19.2880  -20.8320   -5.0350 C.2     1  UNL1        0.0030
      4  C         18.0690  -21.5140   -5.0650 C.2     1  UNL1        0.0100
      5  C         17.7730  -22.4080   -6.1040 C.2     1  UNL1       -0.0190
      6  C         18.7530  -22.6070   -7.1030 C.2     1  UNL1        0.0390
      7  N         20.9780  -22.0860   -8.0580 N.am    1  UNL1       -0.3230
      8  C         21.3640  -23.2430   -8.7070 C.2     1  UNL1        0.2580
      9  O         20.9430  -24.3710   -8.4730 O.2     1  UNL1       -0.2670
     10  H         21.5310  -21.2630   -8.2650 H       1  UNL1        0.1690
     11  C         22.4140  -23.0230   -9.7040 C.2     1  UNL1        0.0600
     12  C         23.7290  -23.4170   -9.5230 C.2     1  UNL1        0.1080
     13  N         24.4550  -23.0370  -10.6160 N.pl3   1  UNL1       -0.3590
     14  C         25.8730  -23.2670  -10.7820 C.3     1  UNL1        0.1560
     15  C         23.6380  -22.4240  -11.5410 C.2     1  UNL1        0.0450
     16  C         23.9300  -21.8850  -12.8050 C.2     1  UNL1        0.0300
     17  C         22.3430  -22.4230  -11.0080 C.2     1  UNL1        0.0080
     18  C         22.8790  -21.3490  -13.5530 C.2     1  UNL1        0.0020
     19  C         21.5780  -21.3610  -13.0630 C.2     1  UNL1        0.0010
     20  C         21.2980  -21.8970  -11.8020 C.2     1  UNL1        0.0150
     21  C         16.4610  -23.1840   -6.1810 C.3     1  UNL1        0.1390
     22  C         16.5770  -24.4210   -7.0730 C.3     1  UNL1        0.0540
     23  N         15.3830  -22.3190   -6.6300 N.am    1  UNL1       -0.3210
     24  C         14.3810  -22.1870   -5.7050 C.2     1  UNL1        0.3240
     25  H         15.3870  -21.7630   -7.4740 H       1  UNL1        0.1650
     26  O         13.3950  -21.4840   -5.8340 O.2     1  UNL1       -0.2470
     27  N         14.6710  -22.9610   -4.6400 N.am    1  UNL1       -0.2770
     28  C         15.8540  -23.6070   -4.8200 C.2     1  UNL1        0.2580
     29  H         14.0780  -23.0570   -3.8340 H       1  UNL1        0.1730
     30  O         16.3280  -24.4010   -4.0170 O.2     1  UNL1       -0.2700
@<TRIPOS>BOND
     1    18    19    2
     2    18    16    1
     3    19    20    1
     4    16    15    2
     5    20    17    2
     6    15    17    1
     7    15    13    1
     8    17    11    1
     9    14    13    1
    10    13    12    1
    11    11    12    2
    12    11     8    1
    13     8     9    2
    14     8     7   am
    15    10     7    1
    16     7     1    1
    17    25    23    1
    18     6     1    2
    19     6     5    1
    20     1     2    1
    21    22    21    1
    22    23    21    1
    23    23    24   am
    24    21     5    1
    25    21    28    1
    26     5     4    2
    27     2     3    2
    28    26    24    2
    29    24    27   am
    30     4     3    1
    31    28    27   am
    32    28    30    2
    33    27    29    1
