@<TRIPOS>MOLECULE
17116_out_ligand_01.pdbqt
 32 35 0 0 0
SMALL
GASTEIGER

@<TRIPOS>ATOM
      1  C         20.0730  -22.6200  -10.1150 C.2     1  UNL1        0.0330
      2  C         19.3550  -21.8620  -11.0520 C.2     1  UNL1        0.0170
      3  C         20.0190  -21.2620  -12.1250 C.2     1  UNL1        0.0030
      4  C         21.4000  -21.4080  -12.2610 C.2     1  UNL1        0.0250
      5  C         22.1130  -22.1460  -11.3110 C.2     1  UNL1        0.0800
      6  C         21.4590  -22.7570  -10.2380 C.2     1  UNL1        0.0420
      7  S         23.8700  -22.3330  -11.4690 S.O2    1  UNL1        0.2630
      8  O         24.4570  -21.8610  -10.2330 O.2     1  UNL1       -0.2000
      9  O         24.1530  -23.6610  -11.9700 O.2     1  UNL1       -0.2000
     10  N         24.2610  -21.1910  -12.6520 N.pl3   1  UNL1       -0.2810
     11  H         24.6900  -20.3670  -12.2320 H       1  UNL1        0.1790
     12  C         24.8010  -21.6600  -13.8800 C.2     1  UNL1        0.0450
     13  C         26.1960  -21.7900  -14.0140 C.2     1  UNL1        0.0330
     14  C         26.7530  -22.2110  -15.2250 C.2     1  UNL1        0.0420
     15  C         25.8920  -22.4790  -16.2660 C.2     1  UNL1        0.1050
     16  C         24.5290  -22.3440  -16.1330 C.2     1  UNL1        0.1070
     17  O         26.2530  -22.8940  -17.5090 O.2     1  UNL1       -0.3230
     18  C         23.9500  -21.9310  -14.9520 C.2     1  UNL1        0.0690
     19  O         23.8640  -22.6560  -17.2770 O.2     1  UNL1       -0.3230
     20  C         24.9630  -22.9960  -18.1490 C.3     1  UNL1        0.3520
     21  C         19.3970  -23.2560   -8.9510 C.2     1  UNL1        0.2560
     22  N         18.3900  -22.4950   -8.3870 N.am    1  UNL1       -0.3220
     23  H         18.1380  -21.6550   -8.8850 H       1  UNL1        0.1690
     24  O         19.7630  -24.3780   -8.6260 O.2     1  UNL1       -0.2670
     25  C         17.6020  -22.8000   -7.2470 C.2     1  UNL1        0.0410
     26  C         16.4720  -23.6190   -7.3330 C.2     1  UNL1        0.0300
     27  C         15.7140  -23.9160   -6.2020 C.2     1  UNL1        0.0030
     28  C         16.0780  -23.3990   -4.9650 C.2     1  UNL1        0.0070
     29  C         17.2060  -22.5770   -4.8370 C.2     1  UNL1       -0.0540
     30  C         17.5450  -22.0510   -3.4670 C.3     1  UNL1        0.0490
     31  C         17.9830  -22.2710   -5.9840 C.2     1  UNL1       -0.0290
     32  C         19.2010  -21.3840   -5.8660 C.3     1  UNL1        0.0510
@<TRIPOS>BOND
     1    20    17    1
     2    20    19    1
     3    17    15    1
     4    19    16    1
     5    15    16    2
     6    15    14    1
     7    16    18    1
     8    14    13    2
     9    18    12    2
    10    13    12    1
    11    12    10    1
    12    10    11    1
    13    10     7    1
    14     4     3    2
    15     4     5    1
    16     3     2    1
    17     9     7    2
    18     7     5    1
    19     7     8    2
    20     5     6    2
    21     2     1    2
    22     6     1    1
    23     1    21    1
    24    21    24    2
    25    21    22   am
    26    23    22    1
    27    22    25    1
    28    26    25    2
    29    26    27    1
    30    25    31    1
    31    27    28    2
    32    31    32    1
    33    31    29    2
    34    28    29    1
    35    29    30    1
