@<TRIPOS>MOLECULE
17123_out_ligand_01.pdbqt
 35 37 0 0 0
SMALL
GASTEIGER

@<TRIPOS>ATOM
      1  C         19.3800  -22.8710   -9.9810 C.2     1  UNL1        0.0340
      2  C         19.5260  -22.0080  -11.0730 C.2     1  UNL1        0.0310
      3  C         20.7890  -21.7600  -11.6210 C.2     1  UNL1        0.0270
      4  C         21.9150  -22.3680  -11.0640 C.2     1  UNL1        0.0800
      5  C         21.7870  -23.2300   -9.9730 C.2     1  UNL1        0.0270
      6  C         20.5200  -23.4830   -9.4400 C.2     1  UNL1        0.0310
      7  N         18.1350  -23.2080   -9.4100 N.am    1  UNL1       -0.3270
      8  C         16.9000  -22.6700   -9.7300 C.2     1  UNL1        0.2220
      9  O         16.6990  -21.6880  -10.4320 O.2     1  UNL1       -0.2730
     10  H         18.1560  -23.9010   -8.6740 H       1  UNL1        0.1690
     11  C         15.7650  -23.4280   -9.0630 C.3     1  UNL1        0.1110
     12  C         15.6340  -23.1200   -7.5750 C.3     1  UNL1        0.0930
     13  C         16.6940  -23.7050   -6.6500 C.2     1  UNL1        0.1600
     14  O         17.0050  -24.8930   -6.7010 O.2     1  UNL1       -0.2920
     15  C         17.3020  -22.8580   -5.5930 C.2     1  UNL1        0.0160
     16  C         16.8420  -22.9180   -4.2670 C.2     1  UNL1       -0.0480
     17  C         17.4600  -22.0970   -3.3140 C.2     1  UNL1        0.0080
     18  C         15.6870  -23.7860   -3.8550 C.3     1  UNL1        0.0490
     19  C         18.5050  -21.2390   -3.6710 C.2     1  UNL1        0.0070
     20  C         18.9490  -21.1720   -4.9930 C.2     1  UNL1       -0.0610
     21  C         20.0300  -20.2080   -5.3890 C.3     1  UNL1        0.0480
     22  C         18.3280  -21.9750   -5.9570 C.2     1  UNL1        0.0220
     23  S         23.5130  -22.0790  -11.7870 S.O2    1  UNL1        0.2640
     24  O         24.0600  -23.3750  -12.1300 O.2     1  UNL1       -0.2000
     25  O         24.2360  -21.1730  -10.9190 O.2     1  UNL1       -0.2000
     26  N         23.1760  -21.2980  -13.2220 N.pl3   1  UNL1       -0.2640
     27  H         22.5950  -20.4720  -13.1160 H       1  UNL1        0.1800
     28  C         24.1450  -21.1640  -14.2330 C.2     1  UNL1        0.1410
     29  C         24.3120  -22.0330  -15.2830 C.2     1  UNL1        0.0770
     30  C         25.2650  -21.6710  -16.2110 C.2     1  UNL1        0.0360
     31  C         25.5680  -22.5650  -17.3760 C.3     1  UNL1        0.0700
     32  N         25.9760  -20.5300  -16.1040 N.2     1  UNL1       -0.2390
     33  C         25.7010  -19.7260  -15.0620 C.2     1  UNL1        0.1240
     34  C         26.4670  -18.4430  -14.9490 C.3     1  UNL1        0.0930
     35  N         24.8000  -20.0010  -14.1050 N.2     1  UNL1       -0.2160
@<TRIPOS>BOND
     1    31    30    1
     2    30    32    1
     3    30    29    2
     4    32    33    2
     5    29    28    1
     6    33    34    1
     7    33    35    1
     8    28    35    2
     9    28    26    1
    10    26    27    1
    11    26    23    1
    12    24    23    2
    13    23     4    1
    14    23    25    2
    15     3     2    1
    16     3     4    2
    17     2     1    2
    18     4     5    1
    19     9     8    2
    20     1     6    1
    21     1     7    1
    22     5     6    2
    23     8     7   am
    24     8    11    1
    25     7    10    1
    26    11    12    1
    27    12    13    1
    28    14    13    2
    29    13    15    1
    30    22    15    2
    31    22    20    1
    32    15    16    1
    33    21    20    1
    34    20    19    2
    35    16    18    1
    36    16    17    2
    37    19    17    1
