@<TRIPOS>MOLECULE
17126_out_ligand_01.pdbqt
 29 31 0 0 0
SMALL
GASTEIGER

@<TRIPOS>ATOM
      1  C         17.0160  -20.7740  -11.3820 C.3     1  UNL1        0.0500
      2  C         18.3830  -21.3650  -11.1680 C.2     1  UNL1       -0.0390
      3  C         19.4360  -20.9190  -11.9870 C.2     1  UNL1        0.0090
      4  C         20.7320  -21.4180  -11.8340 C.2     1  UNL1        0.0170
      5  C         21.0030  -22.3640  -10.8420 C.2     1  UNL1        0.0330
      6  C         19.9710  -22.8230  -10.0190 C.2     1  UNL1        0.0420
      7  C         18.6690  -22.3230  -10.1760 C.2     1  UNL1        0.0810
      8  S         17.4090  -22.9410   -9.0650 S.O2    1  UNL1        0.2460
      9  O         16.6340  -23.9360   -9.7740 O.2     1  UNL1       -0.2060
     10  O         16.7770  -21.8050   -8.4280 O.2     1  UNL1       -0.2060
     11  N         18.3790  -23.6830   -7.8720 N.pl3   1  UNL1       -0.1810
     12  H         19.3100  -23.8030   -8.2750 H       1  UNL1        0.1460
     13  C         18.4440  -22.9470   -6.6440 C.2     1  UNL1        0.0230
     14  C         19.2230  -21.7900   -6.5610 C.2     1  UNL1        0.0270
     15  C         19.2460  -21.0550   -5.3730 C.2     1  UNL1        0.0440
     16  C         18.4820  -21.4760   -4.2910 C.2     1  UNL1        0.1160
     17  F         18.5040  -20.7690   -3.1530 F       1  UNL1       -0.2060
     18  C         17.6870  -22.6140   -4.3740 C.2     1  UNL1        0.0440
     19  C         17.6630  -23.3500   -5.5590 C.2     1  UNL1        0.0270
     20  C         22.3610  -22.9390  -10.6590 C.2     1  UNL1        0.2520
     21  O         22.5720  -23.7140   -9.7340 O.2     1  UNL1       -0.2680
     22  N         23.3200  -22.5330  -11.5610 N.am    1  UNL1       -0.3520
     23  H         23.0890  -21.8400  -12.2600 H       1  UNL1        0.1630
     24  C         24.6830  -23.0580  -11.5250 C.3     1  UNL1        0.0840
     25  C         25.1320  -23.5420  -12.9180 C.3     1  UNL1        0.0250
     26  C         25.9810  -22.5270  -13.6890 C.3     1  UNL1        0.0020
     27  C         25.6100  -21.0910  -13.3530 C.3     1  UNL1        0.0000
     28  C         25.8070  -20.7860  -11.8680 C.3     1  UNL1        0.0020
     29  C         25.6470  -22.0110  -10.9610 C.3     1  UNL1        0.0250
@<TRIPOS>BOND
     1    26    27    1
     2    26    25    1
     3    27    28    1
     4    25    24    1
     5    23    22    1
     6     3     4    1
     7     3     2    2
     8    28    29    1
     9     4     5    2
    10    22    24    1
    11    22    20   am
    12    24    29    1
    13     1     2    1
    14     2     7    1
    15     5    20    1
    16     5     6    1
    17    20    21    2
    18     7     6    2
    19     7     8    1
    20     9     8    2
    21     8    10    2
    22     8    11    1
    23    12    11    1
    24    11    13    1
    25    13    14    2
    26    13    19    1
    27    14    15    1
    28    19    18    2
    29    15    16    2
    30    18    16    1
    31    16    17    1
