@<TRIPOS>MOLECULE
17129_out_ligand_01.pdbqt
 33 36 0 0 0
SMALL
GASTEIGER

@<TRIPOS>ATOM
      1  C         17.5600  -23.4760   -8.6730 C.2     1  UNL1        0.0860
      2  C         18.9610  -23.5890   -8.6310 C.2     1  UNL1        0.0420
      3  C         19.7500  -22.9950   -9.6190 C.2     1  UNL1        0.0330
      4  C         19.1400  -22.2780  -10.6500 C.2     1  UNL1        0.0170
      5  C         17.7490  -22.1440  -10.6780 C.2     1  UNL1        0.0090
      6  C         16.9350  -22.7350   -9.6920 C.2     1  UNL1       -0.0390
      7  C         15.4480  -22.5430   -9.8020 C.3     1  UNL1        0.0500
      8  C         21.2210  -23.2000   -9.5630 C.2     1  UNL1        0.2510
      9  O         21.6670  -24.2600   -9.1390 O.2     1  UNL1       -0.2680
     10  N         22.0000  -22.1450   -9.9820 N.am    1  UNL1       -0.3530
     11  H         21.5710  -21.2370  -10.0910 H       1  UNL1        0.1630
     12  C         23.4390  -22.1700   -9.8430 C.3     1  UNL1        0.1610
     13  C         24.1050  -21.7440  -11.1270 C.2     1  UNL1       -0.0380
     14  C         25.4200  -21.2220  -11.1140 C.2     1  UNL1        0.0120
     15  C         26.0560  -20.8470  -12.3020 C.2     1  UNL1        0.0400
     16  C         25.3600  -21.0090  -13.4800 C.2     1  UNL1        0.1050
     17  C         24.0860  -21.5210  -13.5050 C.2     1  UNL1        0.1050
     18  O         25.8210  -20.7010  -14.7230 O.2     1  UNL1       -0.3230
     19  C         23.4330  -21.9000  -12.3510 C.2     1  UNL1        0.0480
     20  O         23.5830  -21.5990  -14.7660 O.2     1  UNL1       -0.3230
     21  C         24.6860  -21.0750  -15.5310 C.3     1  UNL1        0.3520
     22  S         16.6770  -24.3310   -7.3700 S.O2    1  UNL1        0.2630
     23  O         17.5930  -25.1280   -6.5840 O.2     1  UNL1       -0.2000
     24  O         15.5130  -24.9350   -7.9840 O.2     1  UNL1       -0.2000
     25  N         16.1000  -23.0650   -6.4090 N.pl3   1  UNL1       -0.2810
     26  H         15.4580  -22.4610   -6.9210 H       1  UNL1        0.1790
     27  C         16.9710  -22.4560   -5.4620 C.2     1  UNL1        0.0430
     28  C         16.7330  -22.6600   -4.1020 C.2     1  UNL1        0.0300
     29  C         17.5560  -22.0520   -3.1540 C.2     1  UNL1        0.0030
     30  C         18.6140  -21.2400   -3.5650 C.2     1  UNL1        0.0070
     31  C         18.8560  -21.0250   -4.9270 C.2     1  UNL1       -0.0600
     32  C         20.0150  -20.1850   -5.3720 C.3     1  UNL1        0.0480
     33  C         18.0330  -21.6510   -5.8730 C.2     1  UNL1        0.0370
@<TRIPOS>BOND
     1    21    20    1
     2    21    18    1
     3    20    17    1
     4    18    16    1
     5    17    16    2
     6    17    19    1
     7    16    15    1
     8    19    13    2
     9    15    14    2
    10    13    14    1
    11    13    12    1
    12     5     4    2
    13     5     6    1
    14     4     3    1
    15    11    10    1
    16    10    12    1
    17    10     8   am
    18     7     6    1
    19     6     1    2
    20     3     8    1
    21     3     2    2
    22     8     9    2
    23     1     2    1
    24     1    22    1
    25    24    22    2
    26    22    23    2
    27    22    25    1
    28    26    25    1
    29    25    27    1
    30    33    27    2
    31    33    31    1
    32    27    28    1
    33    32    31    1
    34    31    30    2
    35    28    29    2
    36    30    29    1
