@<TRIPOS>MOLECULE
17135_out_ligand_01.pdbqt
 29 31 0 0 0
SMALL
GASTEIGER

@<TRIPOS>ATOM
      1  C         20.4520  -22.4570   -7.6920 C.2     1  UNL1        0.0320
      2  C         19.6890  -23.6340   -7.7060 C.2     1  UNL1        0.0180
      3  C         18.6640  -23.8130   -6.7750 C.2     1  UNL1        0.0260
      4  C         18.4060  -22.8150   -5.8300 C.2     1  UNL1        0.0790
      5  C         19.1320  -21.6210   -5.8340 C.2     1  UNL1        0.0260
      6  C         20.1570  -21.4450   -6.7660 C.2     1  UNL1        0.0180
      7  C         21.5630  -22.2290   -8.6620 C.2     1  UNL1        0.2560
      8  N         21.2540  -22.5350   -9.9760 N.am    1  UNL1       -0.3220
      9  H         20.3630  -22.9810  -10.1330 H       1  UNL1        0.1690
     10  O         22.6370  -21.8410   -8.2220 O.2     1  UNL1       -0.2670
     11  C         22.0740  -22.3840  -11.1210 C.2     1  UNL1        0.0410
     12  C         21.6290  -21.5520  -12.1710 C.2     1  UNL1       -0.0350
     13  C         22.4320  -21.3940  -13.3130 C.2     1  UNL1        0.0090
     14  C         20.3120  -20.8250  -12.1240 C.3     1  UNL1        0.0500
     15  C         23.6630  -22.0400  -13.4190 C.2     1  UNL1        0.0070
     16  C         24.1210  -22.8470  -12.3780 C.2     1  UNL1       -0.0600
     17  C         25.4310  -23.5700  -12.4920 C.3     1  UNL1        0.0480
     18  C         23.3170  -23.0200  -11.2420 C.2     1  UNL1        0.0370
     19  S         17.1020  -23.0420   -4.6360 S.O2    1  UNL1        0.2630
     20  O         17.2480  -22.0260   -3.6170 O.2     1  UNL1       -0.2000
     21  O         17.0680  -24.4480   -4.2960 O.2     1  UNL1       -0.2000
     22  N         15.7090  -22.7410   -5.5400 N.pl3   1  UNL1       -0.2810
     23  H         14.8600  -22.9110   -5.0030 H       1  UNL1        0.1790
     24  C         15.6930  -23.0420   -6.9290 C.2     1  UNL1        0.0420
     25  C         15.9080  -22.0470   -7.8830 C.2     1  UNL1        0.0300
     26  C         15.9210  -22.3720   -9.2400 C.2     1  UNL1        0.0020
     27  C         15.7200  -23.6920   -9.6430 C.2     1  UNL1        0.0000
     28  C         15.5000  -24.6860   -8.6900 C.2     1  UNL1        0.0020
     29  C         15.4860  -24.3610   -7.3330 C.2     1  UNL1        0.0300
@<TRIPOS>BOND
     1    15    13    2
     2    15    16    1
     3    13    12    1
     4    17    16    1
     5    16    18    2
     6    12    14    1
     7    12    11    2
     8    18    11    1
     9    11     8    1
    10     9     8    1
    11     8     7   am
    12    27    26    2
    13    27    28    1
    14    26    25    1
    15    28    29    2
    16     7    10    2
    17     7     1    1
    18    25    24    2
    19     2     1    2
    20     2     3    1
    21     1     6    1
    22    29    24    1
    23    24    22    1
    24     3     4    2
    25     6     5    2
    26     5     4    1
    27     4    19    1
    28    22    23    1
    29    22    19    1
    30    19    21    2
    31    19    20    2
