@<TRIPOS>MOLECULE
17134_out_ligand_01.pdbqt
 31 34 0 0 0
SMALL
GASTEIGER

@<TRIPOS>ATOM
      1  C         21.5570  -22.5350   -9.4720 C.2     1  UNL1        0.0320
      2  C         20.5580  -22.6530  -10.4490 C.2     1  UNL1        0.0180
      3  C         19.2380  -22.9220  -10.0800 C.2     1  UNL1        0.0260
      4  C         18.9200  -23.0790   -8.7280 C.2     1  UNL1        0.0790
      5  C         19.9010  -22.9280   -7.7430 C.2     1  UNL1        0.0260
      6  C         21.2210  -22.6550   -8.1160 C.2     1  UNL1        0.0180
      7  C         22.9490  -22.2520   -9.9210 C.2     1  UNL1        0.2510
      8  O         23.4880  -21.1940   -9.6190 O.2     1  UNL1       -0.2680
      9  N         23.5480  -23.2170  -10.7040 N.am    1  UNL1       -0.3530
     10  H         22.9760  -23.9480  -11.1030 H       1  UNL1        0.1630
     11  C         24.8310  -22.9860  -11.3300 C.3     1  UNL1        0.1610
     12  C         24.6550  -22.6770  -12.7960 C.2     1  UNL1       -0.0380
     13  C         24.0360  -21.4750  -13.2080 C.2     1  UNL1        0.0120
     14  C         23.8890  -21.1700  -14.5660 C.2     1  UNL1        0.0400
     15  C         24.3740  -22.0760  -15.4830 C.2     1  UNL1        0.1050
     16  C         24.9840  -23.2460  -15.0930 C.2     1  UNL1        0.1050
     17  O         24.3210  -21.9440  -16.8350 O.2     1  UNL1       -0.3230
     18  C         25.1420  -23.5740  -13.7630 C.2     1  UNL1        0.0480
     19  O         25.3930  -23.9940  -16.1510 O.2     1  UNL1       -0.3230
     20  C         24.9550  -23.1710  -17.2520 C.3     1  UNL1        0.3520
     21  S         17.2370  -23.4140   -8.2480 S.O2    1  UNL1        0.2630
     22  O         16.4220  -23.3070   -9.4400 O.2     1  UNL1       -0.2000
     23  O         17.2290  -24.6140   -7.4420 O.2     1  UNL1       -0.2000
     24  N         16.8410  -22.0810   -7.2930 N.pl3   1  UNL1       -0.2810
     25  H         17.2950  -21.2270   -7.6120 H       1  UNL1        0.1790
     26  C         16.6400  -22.2510   -5.8960 C.2     1  UNL1        0.0420
     27  C         15.3500  -22.4990   -5.4240 C.2     1  UNL1        0.0300
     28  C         15.1240  -22.6310   -4.0540 C.2     1  UNL1        0.0020
     29  C         16.1860  -22.5170   -3.1560 C.2     1  UNL1        0.0000
     30  C         17.4740  -22.2750   -3.6290 C.2     1  UNL1        0.0020
     31  C         17.7030  -22.1420   -4.9990 C.2     1  UNL1        0.0300
@<TRIPOS>BOND
     1    20    17    1
     2    20    19    1
     3    17    15    1
     4    19    16    1
     5    15    16    2
     6    15    14    1
     7    16    18    1
     8    14    13    2
     9    18    12    2
    10    13    12    1
    11    12    11    1
    12    11     9    1
    13    10     9    1
    14     9     7   am
    15     2     3    1
    16     2     1    2
    17     3     4    2
    18     7     8    2
    19     7     1    1
    20     1     6    1
    21    22    21    2
    22     4    21    1
    23     4     5    1
    24    21    23    2
    25    21    24    1
    26     6     5    2
    27    25    24    1
    28    24    26    1
    29    26    27    2
    30    26    31    1
    31    27    28    1
    32    31    30    2
    33    28    29    2
    34    30    29    1
