@<TRIPOS>MOLECULE
17151_out_ligand_01.pdbqt
 31 34 0 0 0
SMALL
GASTEIGER

@<TRIPOS>ATOM
      1  C         19.9600  -22.2850  -10.3030 C.2     1  UNL1        0.0320
      2  C         20.3760  -23.0060   -9.1740 C.2     1  UNL1        0.0180
      3  C         19.4280  -23.5880   -8.3270 C.2     1  UNL1        0.0260
      4  C         18.0650  -23.4440   -8.6120 C.2     1  UNL1        0.0790
      5  C         17.6420  -22.6940   -9.7130 C.2     1  UNL1        0.0260
      6  C         18.5920  -22.1170  -10.5590 C.2     1  UNL1        0.0180
      7  C         20.9370  -21.6460  -11.2320 C.2     1  UNL1        0.2560
      8  O         20.5850  -20.6450  -11.8430 O.2     1  UNL1       -0.2670
      9  N         22.1550  -22.2950  -11.3340 N.am    1  UNL1       -0.3230
     10  H         22.2420  -23.1860  -10.8650 H       1  UNL1        0.1690
     11  C         23.2740  -21.9010  -12.0990 C.2     1  UNL1        0.0370
     12  C         24.5590  -21.7380  -11.5740 C.2     1  UNL1        0.0320
     13  C         25.6190  -21.3430  -12.3990 C.2     1  UNL1        0.0420
     14  C         25.4000  -21.1080  -13.7520 C.2     1  UNL1        0.1020
     15  C         24.1260  -21.3000  -14.2910 C.2     1  UNL1        0.1040
     16  O         26.4790  -20.7040  -14.4940 O.2     1  UNL1       -0.3460
     17  C         23.0670  -21.6800  -13.4660 C.2     1  UNL1        0.0690
     18  O         23.8390  -21.1240  -15.6210 O.2     1  UNL1       -0.3460
     19  C         25.0340  -21.0740  -16.4100 C.3     1  UNL1        0.2020
     20  C         26.0700  -20.1730  -15.7590 C.3     1  UNL1        0.2020
     21  S         16.8600  -24.1650   -7.5170 S.O2    1  UNL1        0.2630
     22  O         15.7390  -24.5900   -8.3310 O.2     1  UNL1       -0.2000
     23  O         17.5440  -25.0920   -6.6430 O.2     1  UNL1       -0.2000
     24  N         16.3120  -22.8410   -6.6280 N.pl3   1  UNL1       -0.2810
     25  H         15.8050  -22.1700   -7.2010 H       1  UNL1        0.1790
     26  C         17.0800  -22.3510   -5.5370 C.2     1  UNL1        0.0420
     27  C         18.1170  -21.4410   -5.7360 C.2     1  UNL1        0.0300
     28  C         18.8350  -20.9510   -4.6450 C.2     1  UNL1        0.0020
     29  C         18.5180  -21.3740   -3.3550 C.2     1  UNL1        0.0000
     30  C         17.4870  -22.2910   -3.1550 C.2     1  UNL1        0.0020
     31  C         16.7680  -22.7820   -4.2460 C.2     1  UNL1        0.0300
@<TRIPOS>BOND
     1    19    20    1
     2    19    18    1
     3    20    16    1
     4    18    15    1
     5    16    14    1
     6    15    14    2
     7    15    17    1
     8    14    13    1
     9    17    11    2
    10    13    12    2
    11    11    12    1
    12    11     9    1
    13     8     7    2
    14     9     7   am
    15     9    10    1
    16     7     1    1
    17     6     1    2
    18     6     5    1
    19     1     2    1
    20     5     4    2
    21     2     3    2
    22     4     3    1
    23     4    21    1
    24    22    21    2
    25    21    23    2
    26    21    24    1
    27    25    24    1
    28    24    26    1
    29    27    26    2
    30    27    28    1
    31    26    31    1
    32    28    29    2
    33    31    30    2
    34    29    30    1
