@<TRIPOS>MOLECULE
17163_out_ligand_01.pdbqt
 31 34 0 0 0
SMALL
GASTEIGER

@<TRIPOS>ATOM
      1  C         20.5930  -23.1440   -9.4430 C.2     1  UNL1        0.0320
      2  C         20.1420  -23.9960   -8.4250 C.2     1  UNL1        0.0180
      3  C         18.7810  -24.0510   -8.1100 C.2     1  UNL1        0.0260
      4  C         17.8750  -23.2540   -8.8190 C.2     1  UNL1        0.0790
      5  C         18.3210  -22.3710   -9.8080 C.2     1  UNL1        0.0260
      6  C         19.6810  -22.3200  -10.1180 C.2     1  UNL1        0.0180
      7  C         22.0340  -23.0620   -9.8120 C.2     1  UNL1        0.2560
      8  O         22.8280  -23.7730   -9.2070 O.2     1  UNL1       -0.2670
      9  N         22.3290  -22.1350  -10.7950 N.am    1  UNL1       -0.3230
     10  H         21.5770  -21.5270  -11.0930 H       1  UNL1        0.1690
     11  C         23.5900  -21.8670  -11.3690 C.2     1  UNL1        0.0370
     12  C         24.7130  -21.4460  -10.6310 C.2     1  UNL1        0.0320
     13  C         25.9410  -21.2020  -11.2590 C.2     1  UNL1        0.0420
     14  C         26.0160  -21.3890  -12.6200 C.2     1  UNL1        0.1050
     15  C         24.9280  -21.8030  -13.3480 C.2     1  UNL1        0.1070
     16  O         27.1190  -21.2030  -13.3940 O.2     1  UNL1       -0.3230
     17  C         23.7060  -22.0510  -12.7550 C.2     1  UNL1        0.0690
     18  O         25.2060  -21.9290  -14.6740 O.2     1  UNL1       -0.3230
     19  C         26.5980  -21.5440  -14.6950 C.3     1  UNL1        0.3520
     20  S         16.1400  -23.3210   -8.4230 S.O2    1  UNL1        0.2630
     21  O         15.8750  -24.6280   -7.8590 O.2     1  UNL1       -0.2000
     22  O         15.4050  -22.8330   -9.5690 O.2     1  UNL1       -0.2000
     23  N         15.9930  -22.2160   -7.1510 N.pl3   1  UNL1       -0.2790
     24  H         15.2260  -21.5640   -7.3190 H       1  UNL1        0.1790
     25  C         16.1230  -22.6920   -5.8060 C.2     1  UNL1        0.0640
     26  C         15.0840  -23.4190   -5.2220 C.2     1  UNL1        0.0320
     27  C         15.1900  -23.8550   -3.8990 C.2     1  UNL1        0.0020
     28  C         16.3330  -23.5680   -3.1550 C.2     1  UNL1        0.0020
     29  C         17.3790  -22.8450   -3.7330 C.2     1  UNL1        0.0260
     30  C         17.2740  -22.4110   -5.0550 C.2     1  UNL1        0.0610
     31 CL         18.5880  -21.5210   -5.7380 Cl      1  UNL1       -0.0820
@<TRIPOS>BOND
     1    19    18    1
     2    19    16    1
     3    18    15    1
     4    16    14    1
     5    15    17    1
     6    15    14    2
     7    17    11    2
     8    14    13    1
     9    11     9    1
    10    11    12    1
    11    13    12    2
    12    10     9    1
    13     9     7   am
    14     6     5    1
    15     6     1    2
    16     7     1    1
    17     7     8    2
    18     5     4    2
    19    22    20    2
    20     1     2    1
    21     4    20    1
    22     4     3    1
    23     2     3    2
    24    20    21    2
    25    20    23    1
    26    24    23    1
    27    23    25    1
    28    25    26    2
    29    25    30    1
    30    31    30    1
    31    26    27    1
    32    30    29    2
    33    27    28    2
    34    29    28    1
