@<TRIPOS>MOLECULE
17178_out_ligand_01.pdbqt
 30 32 0 0 0
SMALL
GASTEIGER

@<TRIPOS>ATOM
      1  C         22.7290  -22.2550   -9.4710 C.2     1  UNL1        0.2260
      2  O         22.9760  -21.0540   -9.3790 O.2     1  UNL1       -0.2730
      3  N         23.2330  -23.1120  -10.4370 N.am    1  UNL1       -0.3270
      4  H         22.8040  -24.0280  -10.4990 H       1  UNL1        0.1690
      5  C         21.8250  -22.9420   -8.4550 C.3     1  UNL1        0.1440
      6  C         20.3870  -22.8930   -8.8450 C.2     1  UNL1       -0.0140
      7  C         19.8710  -23.0360  -10.1190 C.2     1  UNL1        0.1510
      8  O         18.5160  -22.9630  -10.1040 O.2     1  UNL1       -0.3210
      9  C         18.1420  -22.7650   -8.8120 C.2     1  UNL1        0.0860
     10  C         16.8330  -22.6400   -8.3590 C.2     1  UNL1        0.0450
     11  C         19.2570  -22.7050   -7.9910 C.2     1  UNL1        0.0070
     12  C         16.6360  -22.4420   -6.9770 C.2     1  UNL1       -0.0530
     13  C         15.2150  -22.3050   -6.4910 C.3     1  UNL1        0.0490
     14  C         17.7420  -22.3750   -6.0950 C.2     1  UNL1       -0.0480
     15  C         19.0550  -22.5030   -6.6130 C.2     1  UNL1        0.0230
     16  C         17.5620  -22.1580   -4.5930 C.3     1  UNL1        0.0110
     17  C         17.6510  -23.4760   -3.8160 C.3     1  UNL1        0.0150
     18  C         18.5660  -21.1350   -4.0510 C.3     1  UNL1        0.0150
     19  C         24.1590  -22.7980  -11.4520 C.2     1  UNL1        0.0360
     20  C         25.4840  -23.2160  -11.2620 C.2     1  UNL1        0.0290
     21  C         26.4640  -22.9560  -12.2250 C.2     1  UNL1        0.0040
     22  C         26.1310  -22.2670  -13.3870 C.2     1  UNL1        0.0250
     23  C         24.8160  -21.8360  -13.5700 C.2     1  UNL1        0.0760
     24  C         23.8310  -22.0880  -12.6060 C.2     1  UNL1        0.0540
     25  S         24.3710  -20.9430  -15.0340 S.O2    1  UNL1        0.2390
     26  O         25.3570  -19.9120  -15.2460 O.2     1  UNL1       -0.2060
     27  O         24.0090  -21.8980  -16.0580 O.2     1  UNL1       -0.2060
     28  N         22.9210  -20.2130  -14.5860 N.3     1  UNL1       -0.2250
     29  H         22.2150  -20.2090  -15.3210 H       1  UNL1        0.1360
     30  H         23.1140  -19.2770  -14.2260 H       1  UNL1        0.1360
@<TRIPOS>BOND
     1    27    25    2
     2    29    28    1
     3    26    25    2
     4    25    28    1
     5    25    23    1
     6    28    30    1
     7    23    22    2
     8    23    24    1
     9    22    21    1
    10    24    19    2
    11    21    20    2
    12    19    20    1
    13    19     3    1
    14     4     3    1
    15     3     1   am
    16     7     8    1
    17     7     6    2
    18     8     9    1
    19     1     2    2
    20     1     5    1
    21     6     5    1
    22     6    11    1
    23     9    10    2
    24     9    11    1
    25    10    12    1
    26    11    15    2
    27    12    13    1
    28    12    14    2
    29    15    14    1
    30    14    16    1
    31    16    18    1
    32    16    17    1
