@<TRIPOS>MOLECULE
1718_out_ligand_01.pdbqt
 30 33 0 0 0
SMALL
GASTEIGER

@<TRIPOS>ATOM
      1  C         27.0590  -23.8570  -13.5880 C.3     1  UNL1        0.0480
      2  C         26.0590  -23.3390  -12.5950 C.2     1  UNL1       -0.0600
      3  C         26.3670  -23.3050  -11.2300 C.2     1  UNL1        0.0090
      4  C         25.4570  -22.7690  -10.3190 C.2     1  UNL1        0.0400
      5  C         24.2220  -22.2770  -10.7600 C.2     1  UNL1        0.1020
      6  C         23.8960  -22.3100  -12.1160 C.2     1  UNL1        0.0690
      7  C         24.8310  -22.8210  -13.0290 C.2     1  UNL1        0.0390
      8  N         22.7050  -21.8000  -12.6410 N.am    1  UNL1       -0.3200
      9  C         21.4970  -21.5740  -12.0310 C.2     1  UNL1        0.2590
     10  O         20.5930  -21.0500  -12.6830 O.2     1  UNL1       -0.2670
     11  C         21.2250  -22.0570  -10.6600 C.2     1  UNL1        0.0680
     12  C         19.9080  -22.4670  -10.3650 C.2     1  UNL1        0.0490
     13  C         19.5630  -22.9090   -9.0840 C.2     1  UNL1        0.0350
     14  C         20.5480  -22.9270   -8.0880 C.2     1  UNL1        0.0320
     15  C         21.8490  -22.5120   -8.3720 C.2     1  UNL1        0.0400
     16  C         22.1910  -22.0920   -9.6610 C.2     1  UNL1        0.0920
     17  O         23.4680  -21.6300   -9.8170 O.2     1  UNL1       -0.3070
     18  H         22.6570  -21.6450  -13.6390 H       1  UNL1        0.1690
     19  N         18.2690  -23.3220   -8.7070 N.am    1  UNL1       -0.3270
     20  C         17.0600  -22.7720   -9.0980 C.2     1  UNL1        0.2220
     21  O         16.8970  -21.8630   -9.9070 O.2     1  UNL1       -0.2730
     22  H         18.2210  -24.1390   -8.1130 H       1  UNL1        0.1690
     23  C         15.8680  -23.4110   -8.4050 C.3     1  UNL1        0.1080
     24  C         16.3190  -24.3770   -7.3130 C.3     1  UNL1        0.0470
     25  C         16.3060  -23.7280   -5.9450 C.2     1  UNL1       -0.0580
     26  C         17.4340  -23.7890   -5.1150 C.2     1  UNL1        0.0070
     27  C         17.4140  -23.2030   -3.8440 C.2     1  UNL1        0.0010
     28  C         16.2670  -22.5540   -3.3930 C.2     1  UNL1        0.0000
     29  C         15.1370  -22.4930   -4.2100 C.2     1  UNL1        0.0010
     30  C         15.1530  -23.0800   -5.4750 C.2     1  UNL1        0.0070
@<TRIPOS>BOND
     1    18     8    1
     2     1     2    1
     3     7     2    2
     4     7     6    1
     5    10     9    2
     6     8     6    1
     7     8     9   am
     8     2     3    1
     9     6     5    2
    10     9    11    1
    11     3     4    2
    12     5     4    1
    13     5    17    1
    14    11    12    2
    15    11    16    1
    16    12    13    1
    17    21    20    2
    18    17    16    1
    19    16    15    2
    20    20    19   am
    21    20    23    1
    22    13    19    1
    23    13    14    2
    24    19    22    1
    25    23    24    1
    26    15    14    1
    27    24    25    1
    28    25    30    2
    29    25    26    1
    30    30    29    1
    31    26    27    2
    32    29    28    2
    33    27    28    1
