@<TRIPOS>MOLECULE
1719_out_ligand_01.pdbqt
 29 32 0 0 0
SMALL
GASTEIGER

@<TRIPOS>ATOM
      1  C         17.5180  -21.6000  -10.8610 C.ar    1  UNL1        0.1580
      2  N         17.3770  -20.6670  -11.8100 N.ar    1  UNL1       -0.1110
      3  O         18.6550  -20.5820  -12.3630 O.2     1  UNL1       -0.1890
      4  C         19.4440  -21.4790  -11.6880 C.ar    1  UNL1        0.2230
      5  C         20.8260  -21.6860  -11.9740 C.2     1  UNL1        0.0890
      6  C         21.7290  -22.5580  -11.4030 C.2     1  UNL1        0.0480
      7  C         22.9830  -22.3760  -12.0470 C.2     1  UNL1       -0.0050
      8  C         24.2530  -22.9680  -11.8990 C.2     1  UNL1        0.0370
      9  C         25.2970  -22.5360  -12.7240 C.2     1  UNL1        0.0350
     10 CL         26.8550  -23.2520  -12.5550 Cl      1  UNL1       -0.0840
     11  C         25.1000  -21.5400  -13.6780 C.2     1  UNL1        0.0260
     12  C         23.8480  -20.9400  -13.8400 C.2     1  UNL1        0.0320
     13  C         22.8100  -21.3810  -13.0090 C.2     1  UNL1        0.0430
     14  N         21.4950  -20.9790  -12.9420 N.pl3   1  UNL1       -0.3520
     15  N         18.7800  -22.1300  -10.7570 N.ar    1  UNL1       -0.2030
     16  H         21.0840  -20.2620  -13.5250 H       1  UNL1        0.1660
     17  C         16.4020  -22.0320   -9.9850 C.3     1  UNL1        0.1030
     18  C         16.7740  -23.2160   -9.0890 C.3     1  UNL1        0.1330
     19  N         16.8410  -22.8860   -7.6630 N.am    1  UNL1       -0.3520
     20  C         18.0900  -22.9510   -7.0430 C.2     1  UNL1        0.2540
     21  O         19.0890  -23.4250   -7.5790 O.2     1  UNL1       -0.2670
     22  C         15.6540  -22.3020   -7.0480 C.3     1  UNL1        0.1520
     23  C         18.2300  -22.3930   -5.6820 C.2     1  UNL1        0.0380
     24  C         18.7840  -21.1140   -5.5480 C.2     1  UNL1        0.0170
     25  C         18.9450  -20.5580   -4.2810 C.2     1  UNL1        0.0010
     26  C         18.5630  -21.2840   -3.1530 C.2     1  UNL1        0.0010
     27  C         18.0230  -22.5670   -3.2870 C.2     1  UNL1        0.0070
     28  C         17.8480  -23.1410   -4.5550 C.2     1  UNL1       -0.0460
     29  C         17.2880  -24.5280   -4.6840 C.3     1  UNL1        0.0490
@<TRIPOS>BOND
     1    12    11    2
     2    12    13    1
     3    11     9    1
     4    16    14    1
     5    13    14    1
     6    13     7    2
     7    14     5    1
     8     9    10    1
     9     9     8    2
    10     3     2   ar
    11     3     4   ar
    12     7     8    1
    13     7     6    1
    14     5     4    1
    15     5     6    2
    16     2     1   ar
    17     4    15   ar
    18     1    15   ar
    19     1    17    1
    20    17    18    1
    21    18    19    1
    22    19    22    1
    23    19    20   am
    24    21    20    2
    25    20    23    1
    26    23    24    2
    27    23    28    1
    28    24    25    1
    29    29    28    1
    30    28    27    2
    31    25    26    2
    32    27    26    1
