@<TRIPOS>MOLECULE
17196_out_ligand_01.pdbqt
 37 41 0 0 0
SMALL
GASTEIGER

@<TRIPOS>ATOM
      1  O         23.3620  -21.2340   -9.1570 O.2     1  UNL1       -0.2670
      2  C         22.9150  -22.3560   -9.3590 C.2     1  UNL1        0.2560
      3  N         23.4610  -23.3420  -10.1610 N.am    1  UNL1       -0.3230
      4  H         23.0300  -24.2560  -10.1270 H       1  UNL1        0.1690
      5  C         21.6600  -22.7450   -8.6550 C.2     1  UNL1        0.0320
      6  C         21.0630  -23.9980   -8.8520 C.2     1  UNL1        0.0180
      7  C         19.8780  -24.3190   -8.1840 C.2     1  UNL1        0.0260
      8  C         19.2880  -23.3770   -7.3340 C.2     1  UNL1        0.0790
      9  C         19.8770  -22.1270   -7.1300 C.2     1  UNL1        0.0260
     10  C         21.0590  -21.8080   -7.8020 C.2     1  UNL1        0.0180
     11  S         17.7840  -23.8020   -6.4820 S.O2    1  UNL1        0.2590
     12  O         17.8160  -23.1740   -5.1800 O.2     1  UNL1       -0.2010
     13  O         17.5860  -25.2250   -6.6420 O.2     1  UNL1       -0.2010
     14  N         16.6160  -23.0420   -7.3950 N.3     1  UNL1       -0.3090
     15  H         15.8880  -22.5660   -6.8650 H       1  UNL1        0.1720
     16  C         16.2340  -23.6210   -8.6770 C.3     1  UNL1        0.1970
     17  C         16.8510  -22.7910   -9.7440 C.2     1  UNL1        0.0700
     18  C         17.9460  -22.9600  -10.5660 C.2     1  UNL1        0.0360
     19  C         18.0210  -21.7990  -11.3720 C.2     1  UNL1        0.0270
     20  C         16.9720  -20.9960  -10.9900 C.2     1  UNL1        0.1420
     21  O         16.2560  -21.5880   -9.9990 O.2     1  UNL1       -0.3250
     22  C         24.6260  -23.2520  -10.9530 C.2     1  UNL1        0.0350
     23  C         25.9170  -23.1550  -10.4360 C.2     1  UNL1        0.0290
     24  C         27.0210  -23.0910  -11.2920 C.2     1  UNL1        0.0030
     25  C         26.8400  -23.1070  -12.6750 C.2     1  UNL1        0.0150
     26  C         25.5510  -23.1680  -13.2140 C.2     1  UNL1        0.0140
     27  C         24.4540  -23.2600  -12.3430 C.2     1  UNL1        0.0440
     28  C         25.3180  -23.1890  -14.6570 C.ar    1  UNL1        0.1640
     29  N         25.2280  -24.2830  -15.3910 N.ar    1  UNL1       -0.1290
     30  N         25.0360  -23.9210  -16.7000 N.ar    1  UNL1       -0.1340
     31  C         24.9810  -22.6090  -16.7530 C.ar    1  UNL1        0.1300
     32  N         25.1080  -22.1080  -15.4820 N.ar    1  UNL1       -0.3160
     33  C         24.8090  -21.7740  -17.9680 C.3     1  UNL1        0.0810
     34  C         24.9670  -20.7130  -15.1330 C.3     1  UNL1        0.1320
     35  C         26.0610  -19.8400  -15.7420 C.3     1  UNL1        0.0200
     36  C         25.8570  -19.5480  -17.2310 C.3     1  UNL1        0.0020
     37  C         25.9460  -20.7680  -18.1520 C.3     1  UNL1        0.0080
@<TRIPOS>BOND
     1    37    33    1
     2    37    36    1
     3    33    31    1
     4    36    35    1
     5    31    30   ar
     6    31    32   ar
     7    30    29   ar
     8    35    34    1
     9    32    34    1
    10    32    28   ar
    11    29    28   ar
    12    28    26    1
    13    26    25    2
    14    26    27    1
    15    25    24    1
    16    27    22    2
    17    19    20    2
    18    19    18    1
    19    24    23    2
    20    20    21    1
    21    22    23    1
    22    22     3    1
    23    18    17    2
    24     3     4    1
    25     3     2   am
    26    21    17    1
    27    17    16    1
    28     2     1    2
    29     2     5    1
    30     6     5    2
    31     6     7    1
    32    16    14    1
    33     5    10    1
    34     7     8    2
    35    10     9    2
    36    14    15    1
    37    14    11    1
    38     8     9    1
    39     8    11    1
    40    13    11    2
    41    11    12    2
