@<TRIPOS>MOLECULE
17208_out_ligand_01.pdbqt
 34 37 0 0 0
SMALL
GASTEIGER

@<TRIPOS>ATOM
      1  C         22.5970  -22.4220  -10.5100 C.2     1  UNL1        0.0360
      2  C         23.2960  -21.8790   -9.4270 C.2     1  UNL1        0.0290
      3  C         22.6940  -21.7690   -8.1670 C.2     1  UNL1        0.0040
      4  C         21.3880  -22.2090   -7.9740 C.2     1  UNL1        0.0250
      5  C         20.6940  -22.7630   -9.0500 C.2     1  UNL1        0.0770
      6  C         21.2860  -22.8680  -10.3130 C.2     1  UNL1        0.0540
      7  S         19.0340  -23.3370   -8.7980 S.O2    1  UNL1        0.2450
      8  O         19.0510  -24.2790   -7.6990 O.2     1  UNL1       -0.2060
      9  O         18.4940  -23.6710  -10.0960 O.2     1  UNL1       -0.2060
     10  N         18.2950  -21.9180   -8.1980 N.pl3   1  UNL1       -0.1810
     11  H         18.9190  -21.1370   -8.4090 H       1  UNL1        0.1460
     12  C         17.9890  -21.9750   -6.7980 C.2     1  UNL1        0.0230
     13  C         18.9070  -21.4800   -5.8750 C.2     1  UNL1        0.0240
     14  C         18.6010  -21.4940   -4.5140 C.2     1  UNL1        0.0030
     15  C         17.3710  -21.9880   -4.0800 C.2     1  UNL1        0.0160
     16  C         16.4260  -22.4620   -5.0050 C.2     1  UNL1        0.0490
     17  C         16.7480  -22.4520   -6.3720 C.2     1  UNL1        0.0400
     18  C         15.1000  -23.0020   -4.5330 C.3     1  UNL1        0.4170
     19  F         14.4470  -23.7250   -5.4840 F       1  UNL1       -0.1660
     20  F         15.2090  -23.8220   -3.4500 F       1  UNL1       -0.1660
     21  F         14.2440  -22.0100   -4.1640 F       1  UNL1       -0.1660
     22  N         23.1350  -22.5600  -11.8080 N.am    1  UNL1       -0.3230
     23  C         24.4160  -22.9590  -12.1460 C.2     1  UNL1        0.2560
     24  O         25.3340  -23.2150  -11.3760 O.2     1  UNL1       -0.2670
     25  H         22.5310  -22.2680  -12.5650 H       1  UNL1        0.1690
     26  C         24.6840  -23.0400  -13.6110 C.2     1  UNL1        0.0350
     27  C         25.2820  -24.2160  -14.1150 C.2     1  UNL1        0.0200
     28  C         25.5550  -24.3510  -15.4800 C.2     1  UNL1        0.0410
     29  C         25.2090  -23.3040  -16.3060 C.2     1  UNL1        0.1050
     30  C         24.6130  -22.1640  -15.8200 C.2     1  UNL1        0.1060
     31  O         25.3930  -23.2590  -17.6520 O.2     1  UNL1       -0.3230
     32  C         24.3300  -21.9990  -14.4800 C.2     1  UNL1        0.0560
     33  O         24.3430  -21.2610  -16.8010 O.2     1  UNL1       -0.3230
     34  C         24.8380  -21.9640  -17.9610 C.3     1  UNL1        0.3520
@<TRIPOS>BOND
     1    34    31    1
     2    34    33    1
     3    31    29    1
     4    33    30    1
     5    29    30    2
     6    29    28    1
     7    30    32    1
     8    28    27    2
     9    32    26    2
    10    27    26    1
    11    26    23    1
    12    25    22    1
    13    23    22   am
    14    23    24    2
    15    22     1    1
    16     1     6    2
    17     1     2    1
    18     6     5    1
    19     9     7    2
    20     2     3    2
    21     5     7    1
    22     5     4    2
    23     7    10    1
    24     7     8    2
    25    11    10    1
    26    10    12    1
    27     3     4    1
    28    12    17    2
    29    12    13    1
    30    17    16    1
    31    13    14    2
    32    19    18    1
    33    16    18    1
    34    16    15    2
    35    18    21    1
    36    18    20    1
    37    14    15    1
