@<TRIPOS>MOLECULE
17204_out_ligand_01.pdbqt
 31 34 0 0 0
SMALL
GASTEIGER

@<TRIPOS>ATOM
      1  C         19.7250  -21.9190  -11.0320 C.2     1  UNL1        0.0360
      2  C         18.9100  -21.0600  -11.7740 C.2     1  UNL1        0.0290
      3  C         17.5510  -20.9200  -11.4690 C.2     1  UNL1        0.0040
      4  C         16.9920  -21.6320  -10.4110 C.2     1  UNL1        0.0250
      5  C         17.8080  -22.4750   -9.6570 C.2     1  UNL1        0.0820
      6  C         19.1630  -22.6380   -9.9740 C.2     1  UNL1        0.0540
      7  N         21.0970  -22.1230  -11.2910 N.am    1  UNL1       -0.3230
      8  C         22.1490  -21.9660  -10.4060 C.2     1  UNL1        0.2560
      9  O         22.0730  -21.6990   -9.2140 O.2     1  UNL1       -0.2670
     10  H         21.3210  -22.4900  -12.2070 H       1  UNL1        0.1690
     11  C         23.4980  -22.2010  -10.9920 C.2     1  UNL1        0.0350
     12  C         24.6070  -21.4050  -10.6260 C.2     1  UNL1        0.0200
     13  C         25.8660  -21.6450  -11.1890 C.2     1  UNL1        0.0410
     14  C         25.9790  -22.6800  -12.0920 C.2     1  UNL1        0.1050
     15  C         24.9040  -23.4650  -12.4350 C.2     1  UNL1        0.1060
     16  O         27.1200  -23.0540  -12.7300 O.2     1  UNL1       -0.3230
     17  C         23.6500  -23.2580  -11.9000 C.2     1  UNL1        0.0560
     18  O         25.2330  -24.4310  -13.3340 O.2     1  UNL1       -0.3230
     19  C         26.6430  -24.1740  -13.5060 C.3     1  UNL1        0.3520
     20  S         17.1120  -23.3830   -8.2980 S.O2    1  UNL1        0.2630
     21  O         15.9080  -24.0300   -8.7740 O.2     1  UNL1       -0.2000
     22  O         18.1780  -24.1480   -7.6840 O.2     1  UNL1       -0.2000
     23  N         16.6120  -22.1680   -7.2320 N.pl3   1  UNL1       -0.2790
     24  H         17.1080  -21.2940   -7.4240 H       1  UNL1        0.1790
     25  C         16.4560  -22.4960   -5.8450 C.2     1  UNL1        0.0640
     26  C         15.3150  -23.1780   -5.4170 C.2     1  UNL1        0.0320
     27  C         15.1780  -23.5410   -4.0760 C.2     1  UNL1        0.0020
     28  C         16.1780  -23.2240   -3.1570 C.2     1  UNL1        0.0020
     29  C         17.3180  -22.5350   -3.5750 C.2     1  UNL1        0.0260
     30  C         17.4550  -22.1680   -4.9150 C.2     1  UNL1        0.0610
     31 CL         18.8730  -21.3090   -5.3980 Cl      1  UNL1       -0.0820
@<TRIPOS>BOND
     1    19    18    1
     2    19    16    1
     3    18    15    1
     4    16    14    1
     5    15    14    2
     6    15    17    1
     7    10     7    1
     8    14    13    1
     9    17    11    2
    10     2     3    1
    11     2     1    2
    12     3     4    2
    13     7     1    1
    14     7     8   am
    15    13    12    2
    16     1     6    1
    17    11    12    1
    18    11     8    1
    19     4     5    1
    20     8     9    2
    21     6     5    2
    22     5    20    1
    23    21    20    2
    24    20    22    2
    25    20    23    1
    26    24    23    1
    27    23    25    1
    28    25    26    2
    29    25    30    1
    30    26    27    1
    31    31    30    1
    32    30    29    2
    33    27    28    2
    34    29    28    1
