@<TRIPOS>MOLECULE
17218_out_ligand_01.pdbqt
 29 31 0 0 0
SMALL
GASTEIGER

@<TRIPOS>ATOM
      1  C         17.3210  -22.9220   -9.0780 C.2     1  UNL1        0.0800
      2  C         16.7470  -22.0880  -10.0430 C.2     1  UNL1        0.0250
      3  C         17.5440  -21.5490  -11.0520 C.2     1  UNL1        0.0030
      4  C         18.9120  -21.8310  -11.0890 C.2     1  UNL1        0.0170
      5  C         19.4870  -22.6480  -10.1030 C.2     1  UNL1        0.0330
      6  C         18.6910  -23.1980   -9.0940 C.2     1  UNL1        0.0420
      7  S         16.3100  -23.5890   -7.7800 S.O2    1  UNL1        0.2630
      8  O         15.7070  -24.8050   -8.2880 O.2     1  UNL1       -0.2000
      9  O         15.4890  -22.5280   -7.2400 O.2     1  UNL1       -0.2000
     10  N         17.4500  -24.0860   -6.6340 N.pl3   1  UNL1       -0.2810
     11  H         17.2990  -25.0620   -6.3830 H       1  UNL1        0.1790
     12  C         17.7620  -23.1910   -5.5750 C.2     1  UNL1        0.0430
     13  C         17.4490  -23.5440   -4.2640 C.2     1  UNL1        0.0300
     14  C         17.8010  -22.6940   -3.2170 C.2     1  UNL1        0.0030
     15  C         18.4610  -21.4930   -3.4820 C.2     1  UNL1        0.0070
     16  C         18.7680  -21.1270   -4.7990 C.2     1  UNL1       -0.0600
     17  C         19.5220  -19.8600   -5.0790 C.3     1  UNL1        0.0480
     18  C         18.4260  -21.9930   -5.8450 C.2     1  UNL1        0.0370
     19  C         20.9360  -22.9830  -10.1310 C.2     1  UNL1        0.2560
     20  O         21.3120  -23.9570   -9.4930 O.2     1  UNL1       -0.2670
     21  N         21.7140  -22.1150  -10.8750 N.am    1  UNL1       -0.3230
     22  H         21.2540  -21.2910  -11.2430 H       1  UNL1        0.1690
     23  C         23.1030  -22.1990  -11.1090 C.2     1  UNL1        0.0360
     24  C         24.0620  -21.5010  -10.3720 C.2     1  UNL1        0.0290
     25  C         25.4240  -21.6400  -10.6610 C.2     1  UNL1        0.0040
     26  C         25.8390  -22.4840  -11.6890 C.2     1  UNL1        0.0240
     27  C         24.8870  -23.1830  -12.4240 C.2     1  UNL1        0.0360
     28 CL         25.3910  -24.2300  -13.6950 Cl      1  UNL1       -0.0840
     29  C         23.5270  -23.0470  -12.1400 C.2     1  UNL1        0.0530
@<TRIPOS>BOND
     1    28    27    1
     2    27    29    1
     3    27    26    2
     4    29    23    2
     5    26    25    1
     6    22    21    1
     7    23    21    1
     8    23    24    1
     9     4     3    2
    10     4     5    1
    11     3     2    1
    12    21    19   am
    13    25    24    2
    14    19     5    1
    15    19    20    2
    16     5     6    2
    17     2     1    2
    18     6     1    1
    19     1     7    1
    20     8     7    2
    21     7     9    2
    22     7    10    1
    23    10    11    1
    24    10    12    1
    25    18    12    2
    26    18    16    1
    27    12    13    1
    28    17    16    1
    29    16    15    2
    30    13    14    2
    31    15    14    1
