@<TRIPOS>MOLECULE
17225_out_ligand_01.pdbqt
 31 33 0 0 0
SMALL
GASTEIGER

@<TRIPOS>ATOM
      1  C         19.2980  -23.0070   -9.6410 C.2     1  UNL1        0.0320
      2  C         20.0900  -24.0710   -9.1960 C.2     1  UNL1        0.0180
      3  C         21.4700  -24.0340   -9.3920 C.2     1  UNL1        0.0260
      4  C         22.0450  -22.9160  -10.0120 C.2     1  UNL1        0.0790
      5  C         21.2540  -21.8500  -10.4560 C.2     1  UNL1        0.0260
      6  C         19.8740  -21.8970  -10.2730 C.2     1  UNL1        0.0180
      7  C         17.8480  -23.0170   -9.3630 C.2     1  UNL1        0.2530
      8  N         17.3850  -23.7130   -8.2490 N.am    1  UNL1       -0.3480
      9  C         15.9490  -23.8620   -8.0900 C.3     1  UNL1        0.1530
     10  O         17.1190  -22.4290  -10.1590 O.2     1  UNL1       -0.2670
     11  C         18.2200  -24.0510   -7.0820 C.3     1  UNL1        0.1670
     12  C         18.3150  -22.9310   -6.0600 C.2     1  UNL1       -0.0070
     13  C         19.1620  -21.8360   -6.3010 C.2     1  UNL1        0.0110
     14  C         19.2690  -20.7960   -5.3810 C.2     1  UNL1        0.0010
     15  C         18.5370  -20.8410   -4.2010 C.2     1  UNL1        0.0030
     16  C         17.7090  -21.9320   -3.9310 C.2     1  UNL1        0.0370
     17  C         17.6030  -22.9870   -4.8450 C.2     1  UNL1        0.0760
     18  O         16.8140  -24.0880   -4.6530 O.2     1  UNL1       -0.3550
     19  C         15.4400  -23.8520   -4.3700 C.3     1  UNL1        0.2100
     20  S         23.8150  -22.7860  -10.1780 S.O2    1  UNL1        0.2630
     21  O         24.1230  -21.3710  -10.2010 O.2     1  UNL1       -0.2000
     22  O         24.4240  -23.6680   -9.2030 O.2     1  UNL1       -0.2000
     23  N         24.1480  -23.3640  -11.7110 N.pl3   1  UNL1       -0.2810
     24  H         24.1730  -24.3790  -11.7770 H       1  UNL1        0.1790
     25  C         24.4080  -22.5720  -12.8650 C.2     1  UNL1        0.0420
     26  C         25.6790  -22.7050  -13.4410 C.2     1  UNL1        0.0300
     27  C         26.0300  -21.9580  -14.5700 C.2     1  UNL1        0.0090
     28  C         25.1160  -21.0740  -15.1470 C.2     1  UNL1       -0.0620
     29  C         25.5120  -20.2570  -16.3420 C.3     1  UNL1        0.0480
     30  C         23.8490  -20.9420  -14.5700 C.2     1  UNL1        0.0090
     31  C         23.4950  -21.6890  -13.4390 C.2     1  UNL1        0.0300
@<TRIPOS>BOND
     1    29    28    1
     2    28    30    1
     3    28    27    2
     4    30    31    2
     5    27    26    1
     6    26    25    2
     7    31    25    1
     8    25    23    1
     9    24    23    1
    10    23    20    1
    11     5     6    1
    12     5     4    2
    13     6     1    2
    14    21    20    2
    15    20     4    1
    16    20    22    2
    17    10     7    2
    18     4     3    1
    19     1     7    1
    20     1     2    1
    21     3     2    2
    22     7     8   am
    23     8     9    1
    24     8    11    1
    25    11    12    1
    26    13    12    2
    27    13    14    1
    28    12    17    1
    29    14    15    2
    30    17    18    1
    31    17    16    2
    32    18    19    1
    33    15    16    1
