@<TRIPOS>MOLECULE
17222_out_ligand_01.pdbqt
 29 31 0 0 0
SMALL
GASTEIGER

@<TRIPOS>ATOM
      1  N         20.7660  -22.2340  -11.2710 N.am    1  UNL1       -0.3230
      2  C         19.5760  -21.5330  -11.3610 C.2     1  UNL1        0.2560
      3  O         19.3160  -20.6240  -12.1410 O.2     1  UNL1       -0.2670
      4  H         20.7760  -23.0370  -10.6540 H       1  UNL1        0.1690
      5  C         18.5110  -21.9770  -10.4200 C.2     1  UNL1        0.0350
      6  C         17.1760  -21.7010  -10.7420 C.2     1  UNL1        0.0170
      7  C         16.1490  -22.1110   -9.8900 C.2     1  UNL1        0.0040
      8  C         16.4520  -22.7800   -8.7050 C.2     1  UNL1        0.0370
      9  C         17.7870  -23.0170   -8.3620 C.2     1  UNL1        0.0770
     10  C         18.8180  -22.6310   -9.2200 C.2     1  UNL1        0.0540
     11  O         18.1530  -23.6890   -7.2170 O.2     1  UNL1       -0.3110
     12  C         18.2310  -22.9590   -6.0530 C.2     1  UNL1        0.0760
     13  C         17.6180  -23.3630   -4.8640 C.2     1  UNL1        0.0370
     14  C         17.7070  -22.5550   -3.7300 C.2     1  UNL1        0.0030
     15  C         18.3930  -21.3420   -3.7880 C.2     1  UNL1        0.0000
     16  C         18.9840  -20.9280   -4.9820 C.2     1  UNL1        0.0030
     17  C         18.8970  -21.7340   -6.1190 C.2     1  UNL1        0.0370
     18  C         21.9430  -22.0220  -12.0190 C.2     1  UNL1        0.0360
     19  C         21.9900  -21.3050  -13.2170 C.2     1  UNL1        0.0290
     20  C         23.1960  -21.1440  -13.9100 C.2     1  UNL1        0.0040
     21  C         24.3730  -21.6900  -13.4070 C.2     1  UNL1        0.0250
     22  C         24.3320  -22.3870  -12.2000 C.2     1  UNL1        0.0760
     23  C         23.1270  -22.5650  -11.5110 C.2     1  UNL1        0.0540
     24  S         25.8190  -23.0890  -11.5390 S.O2    1  UNL1        0.2390
     25  O         26.7450  -22.0190  -11.2510 O.2     1  UNL1       -0.2060
     26  O         26.1770  -24.2370  -12.3390 O.2     1  UNL1       -0.2060
     27  N         25.2860  -23.6500  -10.0430 N.3     1  UNL1       -0.2250
     28  H         24.4480  -24.2180  -10.1840 H       1  UNL1        0.1360
     29  H         26.0010  -24.1550   -9.5210 H       1  UNL1        0.1360
@<TRIPOS>BOND
     1    20    21    2
     2    20    19    1
     3    21    22    1
     4    19    18    2
     5    26    24    2
     6    22    24    1
     7    22    23    2
     8     3     2    2
     9    18    23    1
    10    18     1    1
    11    24    25    2
    12    24    27    1
    13     2     1   am
    14     2     5    1
    15     1     4    1
    16     6     5    2
    17     6     7    1
    18     5    10    1
    19    28    27    1
    20    27    29    1
    21     7     8    2
    22    10     9    2
    23     8     9    1
    24     9    11    1
    25    11    12    1
    26    17    12    2
    27    17    16    1
    28    12    13    1
    29    16    15    2
    30    13    14    2
    31    15    14    1
