@<TRIPOS>MOLECULE
17231_out_ligand_01.pdbqt
 35 38 0 0 0
SMALL
GASTEIGER

@<TRIPOS>ATOM
      1  O         23.9390  -23.9750   -8.7970 O.2     1  UNL1       -0.2670
      2  C         23.0470  -23.2860   -9.2760 C.2     1  UNL1        0.2560
      3  N         23.1550  -22.3930  -10.3260 N.am    1  UNL1       -0.3230
      4  H         22.3550  -21.8000  -10.5090 H       1  UNL1        0.1690
      5  C         21.6950  -23.3590   -8.6520 C.2     1  UNL1        0.0320
      6  C         21.2470  -22.2620   -7.9020 C.2     1  UNL1        0.0180
      7  C         19.9870  -22.2890   -7.2980 C.2     1  UNL1        0.0260
      8  C         19.1870  -23.4260   -7.4340 C.2     1  UNL1        0.0790
      9  C         19.6290  -24.5320   -8.1710 C.2     1  UNL1        0.0260
     10  C         20.8880  -24.5000   -8.7760 C.2     1  UNL1        0.0180
     11  S         17.5800  -23.4780   -6.6800 S.O2    1  UNL1        0.2590
     12  O         17.1040  -24.8440   -6.6910 O.2     1  UNL1       -0.2010
     13  O         17.6540  -22.7030   -5.4620 O.2     1  UNL1       -0.2010
     14  N         16.6690  -22.5960   -7.7620 N.3     1  UNL1       -0.3090
     15  H         15.9380  -22.0330   -7.3270 H       1  UNL1        0.1720
     16  C         16.3380  -23.2190   -9.0390 C.3     1  UNL1        0.1970
     17  C         17.0810  -22.4900  -10.0970 C.2     1  UNL1        0.0700
     18  C         18.2260  -22.7650  -10.8170 C.2     1  UNL1        0.0360
     19  C         18.4300  -21.6620  -11.6810 C.2     1  UNL1        0.0270
     20  C         17.4010  -20.7840  -11.4320 C.2     1  UNL1        0.1420
     21  O         16.5770  -21.2750  -10.4720 O.2     1  UNL1       -0.3250
     22  C         24.2930  -22.1470  -11.1220 C.2     1  UNL1        0.0360
     23  C         25.2610  -21.1830  -10.8280 C.2     1  UNL1        0.0290
     24  C         26.3720  -21.0030  -11.6600 C.2     1  UNL1        0.0040
     25  C         26.5280  -21.7860  -12.8010 C.2     1  UNL1        0.0250
     26  C         25.5600  -22.7430  -13.1010 C.2     1  UNL1        0.0760
     27  C         24.4520  -22.9360  -12.2670 C.2     1  UNL1        0.0540
     28  S         25.7260  -23.7630  -14.5420 S.O2    1  UNL1        0.2430
     29  O         27.1190  -23.7880  -14.9350 O.2     1  UNL1       -0.2060
     30  O         24.9950  -24.9870  -14.2910 O.2     1  UNL1       -0.2060
     31  N         24.8750  -22.8750  -15.7110 N.3     1  UNL1       -0.2060
     32  C         25.6390  -21.8600  -16.4810 C.3     1  UNL1        0.1070
     33  C         24.8700  -21.7370  -17.7870 C.3     1  UNL1        0.0170
     34  C         24.4690  -23.1720  -18.0560 C.3     1  UNL1        0.0170
     35  C         24.0880  -23.6940  -16.6770 C.3     1  UNL1        0.1070
@<TRIPOS>BOND
     1    34    33    1
     2    34    35    1
     3    33    32    1
     4    35    31    1
     5    32    31    1
     6    31    28    1
     7    29    28    2
     8    28    30    2
     9    28    26    1
    10    26    25    2
    11    26    27    1
    12    25    24    1
    13    27    22    2
    14    19    20    2
    15    19    18    1
    16    24    23    2
    17    20    21    1
    18    22    23    1
    19    22     3    1
    20    18    17    2
    21     4     3    1
    22    21    17    1
    23     3     2   am
    24    17    16    1
    25     2     1    2
    26     2     5    1
    27    16    14    1
    28    10     5    2
    29    10     9    1
    30     5     6    1
    31     9     8    2
    32     6     7    2
    33    14    15    1
    34    14    11    1
    35     8     7    1
    36     8    11    1
    37    12    11    2
    38    11    13    2
