@<TRIPOS>MOLECULE
17243_out_ligand_01.pdbqt
 32 34 0 0 0
SMALL
GASTEIGER

@<TRIPOS>ATOM
      1  C         21.8110  -21.9210  -12.0660 C.2     1  UNL1        0.0360
      2  C         20.7410  -21.1940  -12.6120 C.2     1  UNL1        0.0290
      3  C         19.5370  -21.0430  -11.9120 C.2     1  UNL1        0.0040
      4  C         19.4010  -21.6070  -10.6460 C.2     1  UNL1        0.0250
      5  C         20.4690  -22.3200  -10.0930 C.2     1  UNL1        0.0820
      6  C         21.6690  -22.4840  -10.7980 C.2     1  UNL1        0.0540
      7  S         20.2990  -22.9950   -8.4590 S.O2    1  UNL1        0.2630
      8  O         21.3410  -22.3970   -7.6530 O.2     1  UNL1       -0.2000
      9  O         20.1640  -24.4330   -8.5540 O.2     1  UNL1       -0.2000
     10  N         18.8580  -22.3450   -7.9090 N.pl3   1  UNL1       -0.2810
     11  H         18.1490  -22.2680   -8.6280 H       1  UNL1        0.1790
     12  C         18.5070  -22.1330   -6.5480 C.2     1  UNL1        0.0430
     13  C         19.1500  -21.2360   -5.6970 C.2     1  UNL1        0.0300
     14  C         18.7100  -21.0670   -4.3800 C.2     1  UNL1        0.0030
     15  C         17.6090  -21.7760   -3.9090 C.2     1  UNL1        0.0160
     16  C         16.9280  -22.6590   -4.7540 C.2     1  UNL1        0.0500
     17  C         17.3910  -22.8320   -6.0720 C.2     1  UNL1        0.0460
     18  C         15.7290  -23.4260   -4.2570 C.3     1  UNL1        0.4170
     19  F         15.2270  -24.2930   -5.1820 F       1  UNL1       -0.1660
     20  F         15.9970  -24.1750   -3.1530 F       1  UNL1       -0.1660
     21  F         14.6990  -22.6060   -3.9110 F       1  UNL1       -0.1660
     22  N         22.9860  -22.0080  -12.8370 N.am    1  UNL1       -0.3230
     23  C         23.3180  -21.2500  -13.9390 C.2     1  UNL1        0.2560
     24  O         22.7150  -20.2900  -14.4000 O.2     1  UNL1       -0.2670
     25  H         23.6680  -22.6960  -12.5420 H       1  UNL1        0.1690
     26  C         24.5930  -21.6650  -14.5770 C.2     1  UNL1        0.0380
     27  C         24.5200  -22.6570  -15.5620 C.2     1  UNL1        0.0170
     28  C         25.6750  -23.0540  -16.2330 C.2     1  UNL1        0.0010
     29  C         26.9010  -22.4690  -15.9140 C.2     1  UNL1        0.0010
     30  C         26.9780  -21.4980  -14.9130 C.2     1  UNL1        0.0070
     31  C         25.8270  -21.0910  -14.2170 C.2     1  UNL1       -0.0460
     32  C         25.9460  -20.0430  -13.1430 C.3     1  UNL1        0.0490
@<TRIPOS>BOND
     1    28    29    2
     2    28    27    1
     3    29    30    1
     4    27    26    2
     5    30    31    2
     6    26    31    1
     7    26    23    1
     8    24    23    2
     9    31    32    1
    10    23    22   am
    11    22    25    1
    12    22     1    1
    13     2     1    2
    14     2     3    1
    15     1     6    1
    16     3     4    2
    17     6     5    2
    18     4     5    1
    19     5     7    1
    20    11    10    1
    21     9     7    2
    22     7    10    1
    23     7     8    2
    24    10    12    1
    25    12    17    2
    26    12    13    1
    27    17    16    1
    28    13    14    2
    29    19    18    1
    30    16    18    1
    31    16    15    2
    32    14    15    1
    33    18    21    1
    34    18    20    1
