@<TRIPOS>MOLECULE
17241_out_ligand_01.pdbqt
 33 36 0 0 0
SMALL
GASTEIGER

@<TRIPOS>ATOM
      1  C         20.7340  -22.3420  -10.7560 C.2     1  UNL1        0.0360
      2  C         20.3020  -21.4120  -11.7130 C.2     1  UNL1        0.0290
      3  C         18.9610  -21.0280  -11.7910 C.2     1  UNL1        0.0040
      4  C         18.0300  -21.5730  -10.9130 C.2     1  UNL1        0.0250
      5  C         18.4560  -22.5020   -9.9610 C.2     1  UNL1        0.0820
      6  C         19.8030  -22.8770   -9.8670 C.2     1  UNL1        0.0540
      7  N         22.1020  -22.6770  -10.7620 N.am    1  UNL1       -0.3270
      8  C         23.1320  -22.0500  -10.0820 C.2     1  UNL1        0.2260
      9  O         23.0040  -21.1070   -9.3020 O.2     1  UNL1       -0.2730
     10  H         22.3620  -23.4540  -11.3600 H       1  UNL1        0.1690
     11  C         24.5120  -22.6640  -10.2950 C.3     1  UNL1        0.1420
     12  C         25.3790  -21.9930  -11.3440 C.2     1  UNL1       -0.0380
     13  C         25.9660  -20.7560  -11.0210 C.2     1  UNL1        0.0080
     14  C         26.7950  -20.1050  -11.9260 C.2     1  UNL1        0.0010
     15  C         27.0500  -20.6780  -13.1680 C.2     1  UNL1        0.0120
     16  C         26.4750  -21.9060  -13.5270 C.2     1  UNL1       -0.0250
     17  C         26.7450  -22.4650  -14.7870 C.2     1  UNL1        0.0120
     18  C         25.6240  -22.5820  -12.6170 C.2     1  UNL1       -0.0190
     19  C         26.1850  -23.6840  -15.1660 C.2     1  UNL1        0.0010
     20  C         25.3470  -24.3570  -14.2900 C.2     1  UNL1        0.0010
     21  C         25.0680  -23.8140  -13.0340 C.2     1  UNL1        0.0130
     22  S         17.2850  -23.2110   -8.8280 S.O2    1  UNL1        0.2630
     23  O         17.9760  -24.2030   -8.0320 O.2     1  UNL1       -0.2000
     24  O         16.1000  -23.5580   -9.5840 O.2     1  UNL1       -0.2000
     25  N         16.8660  -21.9010   -7.8410 N.pl3   1  UNL1       -0.2790
     26  H         17.4620  -21.0950   -8.0440 H       1  UNL1        0.1790
     27  C         16.6060  -22.1420   -6.4510 C.2     1  UNL1        0.0640
     28  C         15.3270  -22.5160   -6.0330 C.2     1  UNL1        0.0320
     29  C         15.0750  -22.7740   -4.6820 C.2     1  UNL1        0.0020
     30  C         16.0980  -22.6530   -3.7430 C.2     1  UNL1        0.0020
     31  C         17.3760  -22.2650   -4.1500 C.2     1  UNL1        0.0260
     32  C         17.6280  -22.0080   -5.4990 C.2     1  UNL1        0.0610
     33 CL         19.2190  -21.5180   -5.9590 Cl      1  UNL1       -0.0820
@<TRIPOS>BOND
     1    19    17    2
     2    19    20    1
     3    17    16    1
     4    20    21    2
     5    16    15    2
     6    16    18    1
     7    15    14    1
     8    21    18    1
     9    18    12    2
    10    14    13    2
    11     3     2    1
    12     3     4    2
    13     2     1    2
    14    10     7    1
    15    12    13    1
    16    12    11    1
    17     4     5    1
    18     7     1    1
    19     7     8   am
    20     1     6    1
    21    11     8    1
    22     8     9    2
    23     5     6    2
    24     5    22    1
    25    24    22    2
    26    22    23    2
    27    22    25    1
    28    26    25    1
    29    25    27    1
    30    27    28    2
    31    27    32    1
    32    28    29    1
    33    33    32    1
    34    32    31    2
    35    29    30    2
    36    31    30    1
