@<TRIPOS>MOLECULE
17240_out_ligand_01.pdbqt
 31 34 0 0 0
SMALL
GASTEIGER

@<TRIPOS>ATOM
      1  C         18.7190  -22.3290  -10.0630 C.2     1  UNL1        0.0330
      2  C         18.5050  -21.6650  -11.2800 C.2     1  UNL1        0.0170
      3  C         19.5920  -21.2910  -12.0750 C.2     1  UNL1        0.0030
      4  C         20.8920  -21.5870  -11.6670 C.2     1  UNL1        0.0250
      5  C         21.0970  -22.2700  -10.4630 C.2     1  UNL1        0.0800
      6  C         20.0200  -22.6410   -9.6550 C.2     1  UNL1        0.0420
      7  S         22.7460  -22.6570   -9.9330 S.O2    1  UNL1        0.2630
      8  O         22.6410  -23.7660   -9.0070 O.2     1  UNL1       -0.2000
      9  O         23.4140  -21.4300   -9.5540 O.2     1  UNL1       -0.2000
     10  N         23.4530  -23.2730  -11.3380 N.pl3   1  UNL1       -0.2810
     11  H         23.6620  -24.2660  -11.2330 H       1  UNL1        0.1790
     12  C         24.4140  -22.4670  -12.0090 C.2     1  UNL1        0.0450
     13  C         25.7420  -22.4510  -11.5500 C.2     1  UNL1        0.0330
     14  C         26.7130  -21.6980  -12.2160 C.2     1  UNL1        0.0420
     15  C         26.3180  -20.9880  -13.3300 C.2     1  UNL1        0.1050
     16  C         25.0170  -21.0110  -13.7800 C.2     1  UNL1        0.1070
     17  O         27.1210  -20.2070  -14.1000 O.2     1  UNL1       -0.3230
     18  C         24.0390  -21.7440  -13.1440 C.2     1  UNL1        0.0690
     19  O         24.8420  -20.2460  -14.8920 O.2     1  UNL1       -0.3230
     20  C         26.1800  -19.7460  -15.0930 C.3     1  UNL1        0.3520
     21  C         17.5840  -22.7540   -9.2000 C.2     1  UNL1        0.2560
     22  O         16.6110  -23.2630   -9.7420 O.2     1  UNL1       -0.2670
     23  N         17.7770  -22.5510   -7.8460 N.am    1  UNL1       -0.3230
     24  H         18.6950  -22.2360   -7.5570 H       1  UNL1        0.1690
     25  C         16.8660  -22.8200   -6.8020 C.2     1  UNL1        0.0360
     26  C         17.0620  -23.8040   -5.8290 C.2     1  UNL1        0.0290
     27  C         16.1080  -24.0150   -4.8290 C.2     1  UNL1        0.0040
     28  C         14.9470  -23.2470   -4.7920 C.2     1  UNL1        0.0240
     29  C         14.7450  -22.2690   -5.7610 C.2     1  UNL1        0.0360
     30 CL         13.3120  -21.3160   -5.7270 Cl      1  UNL1       -0.0840
     31  C         15.6950  -22.0530   -6.7620 C.2     1  UNL1        0.0530
@<TRIPOS>BOND
     1    20    19    1
     2    20    17    1
     3    19    16    1
     4    17    15    1
     5    16    15    2
     6    16    18    1
     7    15    14    1
     8    18    12    2
     9    14    13    2
    10     3     4    2
    11     3     2    1
    12    12    13    1
    13    12    10    1
    14     4     5    1
    15    10    11    1
    16    10     7    1
    17     2     1    2
    18     5     7    1
    19     5     6    2
    20     1     6    1
    21     1    21    1
    22     7     9    2
    23     7     8    2
    24    22    21    2
    25    21    23   am
    26    23    24    1
    27    23    25    1
    28    25    31    2
    29    25    26    1
    30    31    29    1
    31    26    27    2
    32    29    30    1
    33    29    28    2
    34    27    28    1
