@<TRIPOS>MOLECULE
17254_out_ligand_01.pdbqt
 30 32 0 0 0
SMALL
GASTEIGER

@<TRIPOS>ATOM
      1  C         17.3850  -22.9140   -9.0180 C.2     1  UNL1        0.0800
      2  C         16.8350  -22.1830  -10.0720 C.2     1  UNL1        0.0260
      3  C         17.6740  -21.6310  -11.0420 C.2     1  UNL1        0.0090
      4  C         19.0670  -21.8050  -10.9730 C.2     1  UNL1       -0.0460
      5  C         19.9310  -21.1520  -12.0150 C.3     1  UNL1        0.0490
      6  C         19.5970  -22.5790   -9.9210 C.2     1  UNL1        0.0390
      7  C         18.7640  -23.1040   -8.9250 C.2     1  UNL1        0.0420
      8  S         16.3260  -23.6110   -7.7710 S.O2    1  UNL1        0.2630
      9  O         15.5580  -22.5230   -7.2040 O.2     1  UNL1       -0.2000
     10  O         15.6780  -24.7780   -8.3280 O.2     1  UNL1       -0.2000
     11  N         17.4110  -24.0960   -6.5740 N.pl3   1  UNL1       -0.2810
     12  H         17.3460  -25.0940   -6.3770 H       1  UNL1        0.1790
     13  C         17.7280  -23.2160   -5.5030 C.2     1  UNL1        0.0430
     14  C         17.3900  -23.5220   -4.1870 C.2     1  UNL1        0.0300
     15  C         17.7470  -22.6520   -3.1560 C.2     1  UNL1        0.0030
     16  C         18.4340  -21.4710   -3.4420 C.2     1  UNL1        0.0070
     17  C         18.7560  -21.1420   -4.7640 C.2     1  UNL1       -0.0600
     18  C         19.5160  -19.8860   -5.0740 C.3     1  UNL1        0.0480
     19  C         18.4060  -22.0280   -5.7920 C.2     1  UNL1        0.0370
     20  C         21.0440  -22.8770   -9.8000 C.2     1  UNL1        0.2520
     21  O         21.4270  -24.0360   -9.7140 O.2     1  UNL1       -0.2680
     22  N         21.8730  -21.7810   -9.8470 N.am    1  UNL1       -0.3530
     23  H         21.4700  -20.8560   -9.9070 H       1  UNL1        0.1630
     24  C         23.2930  -21.8920   -9.6090 C.3     1  UNL1        0.1620
     25  C         24.0570  -21.7260  -10.8880 C.2     1  UNL1       -0.0230
     26  C         23.4860  -22.0110  -12.1320 C.2     1  UNL1        0.0120
     27  C         24.2260  -21.8110  -13.2930 C.2     1  UNL1        0.0200
     28  C         25.5170  -21.3210  -13.1730 C.2     1  UNL1        0.1160
     29  N         26.0980  -21.0250  -11.9920 N.2     1  UNL1       -0.2730
     30  C         25.3580  -21.2330  -10.8790 C.2     1  UNL1        0.1240
@<TRIPOS>BOND
     1    27    28    2
     2    27    26    1
     3    28    29    1
     4    26    25    2
     5     5     4    1
     6    29    30    2
     7     3     4    2
     8     3     2    1
     9     4     6    1
    10    25    30    1
    11    25    24    1
    12     2     1    2
    13     6    20    1
    14     6     7    2
    15    23    22    1
    16    22    20   am
    17    22    24    1
    18    20    21    2
    19     1     7    1
    20     1     8    1
    21    10     8    2
    22     8     9    2
    23     8    11    1
    24    11    12    1
    25    11    13    1
    26    19    13    2
    27    19    17    1
    28    13    14    1
    29    18    17    1
    30    17    16    2
    31    14    15    2
    32    16    15    1
