@<TRIPOS>MOLECULE
17259_out_ligand_01.pdbqt
 32 35 0 0 0
SMALL
GASTEIGER

@<TRIPOS>ATOM
      1  C         19.9170  -21.7710  -10.6810 C.2     1  UNL1        0.0360
      2  C         19.1800  -21.0530  -11.6260 C.2     1  UNL1        0.0290
      3  C         17.7800  -21.0410  -11.5840 C.2     1  UNL1        0.0040
      4  C         17.1010  -21.7390  -10.5900 C.2     1  UNL1        0.0250
      5  C         17.8350  -22.4420   -9.6340 C.2     1  UNL1        0.0820
      6  C         19.2340  -22.4790   -9.6870 C.2     1  UNL1        0.0540
      7  N         21.3230  -21.8430  -10.6640 N.am    1  UNL1       -0.3220
      8  C         22.1910  -21.8040  -11.7460 C.2     1  UNL1        0.2770
      9  O         21.8620  -21.6230  -12.9140 O.2     1  UNL1       -0.2660
     10  H         21.7590  -21.8580   -9.7500 H       1  UNL1        0.1690
     11  C         23.6050  -21.9680  -11.3520 C.ar    1  UNL1        0.1570
     12  N         24.1080  -21.3410  -10.2730 N.ar    1  UNL1       -0.1680
     13  N         25.3900  -21.7290  -10.2270 N.ar    1  UNL1       -0.2770
     14  C         25.7500  -22.6030  -11.2160 C.ar    1  UNL1        0.0620
     15  H         25.9760  -21.3610   -9.4870 H       1  UNL1        0.1890
     16  C         26.9660  -23.2330  -11.4950 C.2     1  UNL1        0.0320
     17  C         24.6070  -22.7720  -11.9890 C.ar    1  UNL1        0.0280
     18  C         27.0100  -24.0640  -12.6190 C.2     1  UNL1        0.0020
     19  C         25.8870  -24.2430  -13.4260 C.2     1  UNL1        0.0010
     20  C         24.6800  -23.6000  -13.1280 C.2     1  UNL1        0.0160
     21  S         16.9850  -23.3310   -8.3510 S.O2    1  UNL1        0.2630
     22  O         17.9520  -24.1810   -7.6890 O.2     1  UNL1       -0.2000
     23  O         15.7760  -23.8800   -8.9270 O.2     1  UNL1       -0.2000
     24  N         16.4950  -22.1080   -7.2880 N.pl3   1  UNL1       -0.2790
     25  H         16.9100  -21.2130   -7.5530 H       1  UNL1        0.1790
     26  C         16.4830  -22.3900   -5.8830 C.2     1  UNL1        0.0640
     27  C         15.3530  -22.9660   -5.3000 C.2     1  UNL1        0.0320
     28  C         15.3530  -23.2900   -3.9410 C.2     1  UNL1        0.0020
     29  C         16.4830  -23.0410   -3.1610 C.2     1  UNL1        0.0020
     30  C         17.6130  -22.4570   -3.7340 C.2     1  UNL1        0.0260
     31  C         17.6130  -22.1290   -5.0910 C.2     1  UNL1        0.0610
     32 CL         19.0250  -21.4020   -5.7680 Cl      1  UNL1       -0.0820
@<TRIPOS>BOND
     1    19    20    2
     2    19    18    1
     3    20    17    1
     4     9     8    2
     5    18    16    2
     6    17    11   ar
     7    17    14   ar
     8     8    11    1
     9     8     7   am
    10     2     3    1
    11     2     1    2
    12     3     4    2
    13    16    14    1
    14    11    12   ar
    15    14    13   ar
    16     1     7    1
    17     1     6    1
    18     7    10    1
    19     4     5    1
    20    12    13   ar
    21    13    15    1
    22     6     5    2
    23     5    21    1
    24    23    21    2
    25    21    22    2
    26    21    24    1
    27    25    24    1
    28    24    26    1
    29    26    27    2
    30    26    31    1
    31    32    31    1
    32    27    28    1
    33    31    30    2
    34    28    29    2
    35    30    29    1
