@<TRIPOS>MOLECULE
17262_out_ligand_01.pdbqt
 32 34 0 0 0
SMALL
GASTEIGER

@<TRIPOS>ATOM
      1  C         18.4670  -22.0150  -10.2270 C.2     1  UNL1        0.0720
      2  C         18.4250  -22.6010   -8.9520 C.2     1  UNL1        0.0450
      3  C         17.1940  -22.8880   -8.3510 C.2     1  UNL1        0.0800
      4  C         15.9960  -22.6390   -9.0290 C.2     1  UNL1        0.0280
      5  C         16.0350  -22.0690  -10.3000 C.2     1  UNL1        0.0450
      6  C         17.2620  -21.7580  -10.8870 C.2     1  UNL1        0.1320
      7  F         17.2490  -21.2080  -12.1110 F       1  UNL1       -0.2050
      8  C         19.8040  -21.6780  -10.8050 C.2     1  UNL1        0.2590
      9  N         20.8120  -22.6070  -10.6240 N.am    1  UNL1       -0.3230
     10  H         20.5690  -23.4570  -10.1220 H       1  UNL1        0.1690
     11  O         19.9100  -20.6090  -11.3980 O.2     1  UNL1       -0.2670
     12  C         22.1460  -22.5330  -11.0780 C.2     1  UNL1        0.0360
     13  C         23.2450  -23.0320  -10.3740 C.2     1  UNL1        0.0290
     14  C         24.5420  -22.9080  -10.8860 C.2     1  UNL1        0.0040
     15  C         24.7550  -22.2900  -12.1130 C.2     1  UNL1        0.0250
     16  C         23.6590  -21.8050  -12.8270 C.2     1  UNL1        0.0760
     17  C         22.3600  -21.9130  -12.3150 C.2     1  UNL1        0.0540
     18  S         23.9260  -21.0210  -14.3920 S.O2    1  UNL1        0.2390
     19  O         25.0460  -20.1170  -14.2660 O.2     1  UNL1       -0.2060
     20  O         23.8490  -22.0270  -15.4250 O.2     1  UNL1       -0.2060
     21  N         22.5660  -20.0370  -14.5150 N.3     1  UNL1       -0.2250
     22  H         21.7610  -20.3910  -14.0000 H       1  UNL1        0.1360
     23  H         22.8160  -19.0880  -14.2320 H       1  UNL1        0.1360
     24  S         17.1570  -23.6560   -6.7400 S.O2    1  UNL1        0.2610
     25  O         18.3150  -24.5170   -6.6530 O.2     1  UNL1       -0.2000
     26  O         15.8190  -24.1740   -6.5480 O.2     1  UNL1       -0.2000
     27  N         17.3680  -22.3600   -5.6810 N.3     1  UNL1       -0.3030
     28  C         16.6370  -22.3580   -4.3830 C.3     1  UNL1        0.1610
     29  C         17.6190  -22.3510   -3.2070 C.3     1  UNL1        0.1880
     30  O         18.5160  -21.2310   -3.2070 O.3     1  UNL1       -0.3880
     31  C         18.7430  -20.6730   -4.5090 C.3     1  UNL1        0.1880
     32  C         18.7130  -21.7300   -5.6180 C.3     1  UNL1        0.1610
@<TRIPOS>BOND
     1    20    18    2
     2    21    18    1
     3    21    23    1
     4    21    22    1
     5    18    19    2
     6    18    16    1
     7    16    17    1
     8    16    15    2
     9    17    12    2
    10    15    14    1
    11     7     6    1
    12    11     8    2
    13    12     9    1
    14    12    13    1
    15     6     5    1
    16     6     1    2
    17    14    13    2
    18     8     9   am
    19     8     1    1
    20     9    10    1
    21     5     4    2
    22     1     2    1
    23     4     3    1
    24     2     3    2
    25     3    24    1
    26    24    25    2
    27    24    26    2
    28    24    27    1
    29    27    32    1
    30    27    28    1
    31    32    31    1
    32    31    30    1
    33    28    29    1
    34    29    30    1
