@<TRIPOS>MOLECULE
17276_out_ligand_01.pdbqt
 35 38 0 0 0
SMALL
GASTEIGER

@<TRIPOS>ATOM
      1  C         19.2460  -22.3900  -10.7260 C.2     1  UNL1        0.0360
      2  C         18.5860  -21.4070  -11.4710 C.2     1  UNL1        0.0290
      3  C         17.2580  -21.0640  -11.1880 C.2     1  UNL1        0.0040
      4  C         16.5770  -21.6960  -10.1540 C.2     1  UNL1        0.0250
      5  C         17.2390  -22.6650   -9.3990 C.2     1  UNL1        0.0820
      6  C         18.5600  -23.0260   -9.6880 C.2     1  UNL1        0.0540
      7  N         20.5750  -22.8000  -10.9610 N.am    1  UNL1       -0.3270
      8  C         21.7240  -22.3210  -10.3530 C.2     1  UNL1        0.2270
      9  O         21.7870  -21.4710   -9.4690 O.2     1  UNL1       -0.2730
     10  H         20.6960  -23.5430  -11.6410 H       1  UNL1        0.1690
     11  C         22.9880  -22.9680  -10.8750 C.3     1  UNL1        0.1650
     12  C         23.3720  -22.4330  -12.2360 C.ar    1  UNL1        0.0740
     13  N         22.5080  -21.6520  -12.8190 N.ar    1  UNL1       -0.1750
     14  N         22.8190  -21.1470  -14.0420 N.ar    1  UNL1       -0.2430
     15  C         23.9800  -21.3690  -14.7420 C.ar    1  UNL1        0.2720
     16  H         22.1310  -20.5470  -14.4770 H       1  UNL1        0.1920
     17  O         24.1810  -20.8710  -15.8420 O.2     1  UNL1       -0.2660
     18  C         24.9700  -22.2450  -14.0930 C.ar    1  UNL1        0.0460
     19  C         26.1890  -22.5230  -14.7260 C.2     1  UNL1        0.0180
     20  C         24.6740  -22.8010  -12.8480 C.ar    1  UNL1        0.0060
     21  C         27.1120  -23.3690  -14.1090 C.2     1  UNL1        0.0010
     22  C         26.8160  -23.9390  -12.8710 C.2     1  UNL1        0.0010
     23  C         25.5990  -23.6590  -12.2400 C.2     1  UNL1        0.0140
     24  S         16.3790  -23.4810   -8.0810 S.O2    1  UNL1        0.2630
     25  O         15.7580  -24.6700   -8.6220 O.2     1  UNL1       -0.2000
     26  O         15.6050  -22.4830   -7.3780 O.2     1  UNL1       -0.2000
     27  N         17.6290  -23.9200   -7.0390 N.pl3   1  UNL1       -0.2810
     28  H         17.7380  -24.9310   -6.9580 H       1  UNL1        0.1790
     29  C         17.9060  -23.1270   -5.8910 C.2     1  UNL1        0.0440
     30  C         17.5390  -23.5670   -4.6190 C.2     1  UNL1        0.0300
     31  C         17.8060  -22.7760   -3.5010 C.2     1  UNL1        0.0040
     32  C         18.4420  -21.5480   -3.6550 C.2     1  UNL1        0.0240
     33  C         18.8090  -21.1140   -4.9270 C.2     1  UNL1        0.0360
     34 CL         19.5740  -19.5800   -5.1180 Cl      1  UNL1       -0.0840
     35  C         18.5450  -21.9000   -6.0500 C.2     1  UNL1        0.0540
@<TRIPOS>BOND
     1    17    15    2
     2    15    18   ar
     3    15    14   ar
     4    19    21    1
     5    19    18    2
     6    16    14    1
     7    21    22    2
     8    18    20   ar
     9    14    13   ar
    10    22    23    1
    11    20    23    2
    12    20    12   ar
    13    13    12   ar
    14    12    11    1
    15    10     7    1
    16     2     3    1
    17     2     1    2
    18     3     4    2
    19     7     1    1
    20     7     8   am
    21    11     8    1
    22     1     6    1
    23     8     9    2
    24     4     5    1
    25     6     5    2
    26     5    24    1
    27    25    24    2
    28    24    26    2
    29    24    27    1
    30    27    28    1
    31    27    29    1
    32    35    29    2
    33    35    33    1
    34    29    30    1
    35    34    33    1
    36    33    32    2
    37    30    31    2
    38    32    31    1
