@<TRIPOS>MOLECULE
17282_out_ligand_01.pdbqt
 31 33 0 0 0
SMALL
GASTEIGER

@<TRIPOS>ATOM
      1  C         19.5120  -22.9530   -9.6050 C.2     1  UNL1        0.0360
      2  C         18.9960  -22.1830  -10.6500 C.2     1  UNL1        0.0290
      3  C         19.8480  -21.5330  -11.5500 C.2     1  UNL1        0.0040
      4  C         21.2290  -21.6500  -11.4190 C.2     1  UNL1        0.0250
      5  C         21.7460  -22.4310  -10.3850 C.2     1  UNL1        0.0770
      6  C         20.8990  -23.0730   -9.4740 C.2     1  UNL1        0.0540
      7  N         18.7190  -23.6280   -8.6540 N.am    1  UNL1       -0.3270
      8  C         18.6600  -23.4050   -7.2880 C.2     1  UNL1        0.2260
      9  O         19.2880  -22.5560   -6.6640 O.2     1  UNL1       -0.2730
     10  H         18.1640  -24.4000   -9.0090 H       1  UNL1        0.1690
     11  C         17.7000  -24.3480   -6.5770 C.3     1  UNL1        0.1460
     12  C         16.6210  -23.6120   -5.8250 C.2     1  UNL1        0.0110
     13  C         15.5720  -23.0310   -6.5470 C.2     1  UNL1        0.1240
     14  F         15.5210  -23.1720   -7.8790 F       1  UNL1       -0.2050
     15  C         14.5570  -22.3090   -5.9210 C.2     1  UNL1        0.0430
     16  C         14.5770  -22.1480   -4.5400 C.2     1  UNL1        0.0050
     17  C         15.6140  -22.7120   -3.7970 C.2     1  UNL1        0.0240
     18  C         16.6300  -23.4360   -4.4340 C.2     1  UNL1        0.0430
     19 CL         17.8810  -24.0950   -3.4400 Cl      1  UNL1       -0.0840
     20  S         23.5020  -22.5970  -10.1910 S.O2    1  UNL1        0.2460
     21  O         23.7170  -23.5170   -9.0940 O.2     1  UNL1       -0.2060
     22  O         24.1000  -21.2800  -10.2000 O.2     1  UNL1       -0.2060
     23  N         23.9430  -23.4340  -11.6010 N.pl3   1  UNL1       -0.1800
     24  H         24.2680  -24.3670  -11.3310 H       1  UNL1        0.1460
     25  C         24.7970  -22.7380  -12.5170 C.2     1  UNL1        0.0440
     26  C         24.2240  -21.9830  -13.5430 C.2     1  UNL1        0.0260
     27  C         25.0390  -21.2470  -14.4060 C.2     1  UNL1        0.0020
     28  C         26.4250  -21.2570  -14.2430 C.2     1  UNL1        0.0020
     29  C         27.0020  -22.0070  -13.2180 C.2     1  UNL1        0.0260
     30  C         26.1910  -22.7440  -12.3540 C.2     1  UNL1        0.0560
     31 CL         26.9390  -23.6770  -11.1080 Cl      1  UNL1       -0.0820
@<TRIPOS>BOND
     1    27    28    2
     2    27    26    1
     3    28    29    1
     4    26    25    2
     5    29    30    2
     6    25    30    1
     7    25    23    1
     8    30    31    1
     9    23    24    1
    10    23    20    1
    11     3     4    2
    12     3     2    1
    13     4     5    1
    14     2     1    2
    15     5    20    1
    16     5     6    2
    17    22    20    2
    18    20    21    2
    19     1     6    1
    20     1     7    1
    21    10     7    1
    22     7     8   am
    23    14    13    1
    24     8     9    2
    25     8    11    1
    26    11    12    1
    27    13    15    1
    28    13    12    2
    29    15    16    2
    30    12    18    1
    31    16    17    1
    32    18    17    2
    33    18    19    1
