@<TRIPOS>MOLECULE
17328_out_ligand_01.pdbqt
 34 36 0 0 0
SMALL
GASTEIGER

@<TRIPOS>ATOM
      1  C         21.1790  -22.0740  -10.4500 C.2     1  UNL1        0.0760
      2  C         20.9770  -21.3660  -11.6370 C.2     1  UNL1        0.0280
      3  C         19.6750  -21.0940  -12.0540 C.2     1  UNL1        0.0450
      4  C         18.5910  -21.5250  -11.2850 C.2     1  UNL1        0.1320
      5  F         17.3570  -21.2400  -11.7300 F       1  UNL1       -0.2050
      6  C         18.7800  -22.2310  -10.0930 C.2     1  UNL1        0.0720
      7  C         20.0940  -22.5010   -9.6740 C.2     1  UNL1        0.0450
      8  S         22.8300  -22.4400   -9.9010 S.O2    1  UNL1        0.2460
      9  O         22.7010  -23.3070   -8.7500 O.2     1  UNL1       -0.2060
     10  O         23.5730  -21.2000   -9.8420 O.2     1  UNL1       -0.2060
     11  N         23.4120  -23.3970  -11.1760 N.pl3   1  UNL1       -0.1790
     12  H         23.6260  -24.3290  -10.8040 H       1  UNL1        0.1460
     13  C         24.4730  -22.8400  -11.9600 C.2     1  UNL1        0.0580
     14  C         24.1820  -22.1910  -13.1590 C.2     1  UNL1        0.0630
     15  C         25.2220  -21.5870  -13.8700 C.2     1  UNL1        0.1040
     16  C         26.5400  -21.6360  -13.3940 C.2     1  UNL1        0.0390
     17  C         26.8200  -22.2900  -12.1890 C.2     1  UNL1        0.0410
     18  C         25.7890  -22.8870  -11.4600 C.2     1  UNL1        0.0900
     19  N         24.9270  -20.8890  -15.1260 N.pl3   1  UNL1       -0.1160
     20  O         23.7400  -20.7920  -15.4660 O.2     1  UNL1       -0.5320
     21  O         25.8840  -20.4420  -15.7730 O.2     1  UNL1       -0.5320
     22  O         25.9430  -23.5570  -10.2720 O.2     1  UNL1       -0.3540
     23  C         27.1200  -24.3420  -10.1240 C.3     1  UNL1        0.2100
     24  C         17.6510  -22.7210   -9.2420 C.2     1  UNL1        0.2590
     25  O         16.7700  -23.3740   -9.7900 O.2     1  UNL1       -0.2670
     26  N         17.6970  -22.3910   -7.9000 N.am    1  UNL1       -0.3230
     27  H         18.4850  -21.8320   -7.5880 H       1  UNL1        0.1690
     28  C         16.7650  -22.7310   -6.8950 C.2     1  UNL1        0.0370
     29  C         16.9440  -23.7730   -5.9780 C.2     1  UNL1        0.0290
     30  C         15.9710  -24.0460   -5.0090 C.2     1  UNL1        0.0050
     31  C         14.8110  -23.2790   -4.9470 C.2     1  UNL1        0.0420
     32  C         14.6350  -22.2460   -5.8570 C.2     1  UNL1        0.1180
     33  F         13.5210  -21.5030   -5.8040 F       1  UNL1       -0.2060
     34  C         15.5960  -21.9650   -6.8250 C.2     1  UNL1        0.0710
@<TRIPOS>BOND
     1    21    19    2
     2    20    19    2
     3    19    15    1
     4    15    16    2
     5    15    14    1
     6    16    17    1
     7    14    13    2
     8    17    18    2
     9     3     2    1
    10     3     4    2
    11    13    18    1
    12    13    11    1
    13     5     4    1
    14     2     1    2
    15    18    22    1
    16     4     6    1
    17    11    12    1
    18    11     8    1
    19     1     8    1
    20     1     7    1
    21    22    23    1
    22     6     7    2
    23     6    24    1
    24     8    10    2
    25     8     9    2
    26    25    24    2
    27    24    26   am
    28    26    27    1
    29    26    28    1
    30    28    34    2
    31    28    29    1
    32    34    32    1
    33    29    30    2
    34    32    33    1
    35    32    31    2
    36    30    31    1
