@<TRIPOS>MOLECULE
17325_out_ligand_01.pdbqt
 33 35 0 0 0
SMALL
GASTEIGER

@<TRIPOS>ATOM
      1  N         26.7040  -23.2190  -14.3660 N.1     1  UNL1       -0.1910
      2  C         25.6860  -22.8730  -13.9390 C.1     1  UNL1        0.0990
      3  C         24.4150  -22.4510  -13.4270 C.2     1  UNL1        0.0440
      4  C         23.9340  -22.9770  -12.2130 C.2     1  UNL1        0.0240
      5  C         22.6870  -22.5740  -11.7250 C.2     1  UNL1        0.0180
      6  C         21.9120  -21.6450  -12.4430 C.2     1  UNL1        0.0320
      7  C         22.4020  -21.1070  -13.6450 C.2     1  UNL1        0.0180
      8  C         23.6480  -21.5170  -14.1380 C.2     1  UNL1        0.0240
      9  C         20.5880  -21.2470  -11.8780 C.2     1  UNL1        0.2560
     10  O         20.3450  -20.0500  -11.7760 O.2     1  UNL1       -0.2670
     11  N         19.7690  -22.2910  -11.4860 N.am    1  UNL1       -0.3230
     12  H         20.1560  -23.2220  -11.5300 H       1  UNL1        0.1690
     13  C         18.4830  -22.1990  -10.9000 C.2     1  UNL1        0.0360
     14  C         17.5770  -21.2980  -11.4860 C.2     1  UNL1        0.0290
     15  C         16.2810  -21.1480  -10.9840 C.2     1  UNL1        0.0040
     16  C         15.8750  -21.8960   -9.8820 C.2     1  UNL1        0.0250
     17  C         16.7760  -22.7850   -9.2900 C.2     1  UNL1        0.0820
     18  C         18.0730  -22.9460   -9.7960 C.2     1  UNL1        0.0540
     19  S         16.2280  -23.7640   -7.9120 S.O2    1  UNL1        0.2630
     20  O         15.7500  -25.0430   -8.3980 O.2     1  UNL1       -0.2000
     21  O         15.3770  -22.9130   -7.1030 O.2     1  UNL1       -0.2000
     22  N         17.6320  -23.9940   -7.0260 N.pl3   1  UNL1       -0.2810
     23  H         17.6820  -24.9120   -6.5710 H       1  UNL1        0.1790
     24  C         18.5820  -22.9870   -6.6980 C.2     1  UNL1        0.0430
     25  C         18.3580  -21.9750   -5.7600 C.2     1  UNL1        0.0300
     26  C         19.3260  -20.9960   -5.5360 C.2     1  UNL1        0.0030
     27  C         20.5190  -21.0040   -6.2620 C.2     1  UNL1        0.0160
     28  C         20.7560  -21.9950   -7.2210 C.2     1  UNL1        0.0500
     29  C         19.7750  -22.9790   -7.4320 C.2     1  UNL1        0.0460
     30  C         22.0090  -21.9740   -8.0580 C.3     1  UNL1        0.4170
     31  F         22.4250  -23.2170   -8.4380 F       1  UNL1       -0.1660
     32  F         23.0590  -21.4130   -7.3970 F       1  UNL1       -0.1660
     33  F         21.8660  -21.2580   -9.2080 F       1  UNL1       -0.1660
@<TRIPOS>BOND
     1     1     2    3
     2     8     7    1
     3     8     3    2
     4     2     3    1
     5     7     6    2
     6     3     4    1
     7     6     9    1
     8     6     5    1
     9     4     5    2
    10     9    10    2
    11     9    11   am
    12    12    11    1
    13    11    13    1
    14    14    15    1
    15    14    13    2
    16    15    16    2
    17    13    18    1
    18    16    17    1
    19    18    17    2
    20    17    19    1
    21    33    30    1
    22    31    30    1
    23    20    19    2
    24    30    32    1
    25    30    28    1
    26    19    21    2
    27    19    22    1
    28    29    28    1
    29    29    24    2
    30    28    27    2
    31    22    24    1
    32    22    23    1
    33    24    25    1
    34    27    26    1
    35    25    26    2
