@<TRIPOS>MOLECULE
17338_out_ligand_01.pdbqt
 32 35 0 0 0
SMALL
GASTEIGER

@<TRIPOS>ATOM
      1  C         19.1770  -22.4580  -10.2610 C.2     1  UNL1        0.0360
      2  C         18.4770  -21.6370  -11.1510 C.2     1  UNL1        0.0290
      3  C         17.0990  -21.4360  -11.0050 C.2     1  UNL1        0.0040
      4  C         16.4050  -22.0470   -9.9640 C.2     1  UNL1        0.0250
      5  C         17.1050  -22.8480   -9.0620 C.2     1  UNL1        0.0820
      6  C         18.4800  -23.0690   -9.2130 C.2     1  UNL1        0.0540
      7  N         20.5560  -22.7320  -10.3590 N.am    1  UNL1       -0.3220
      8  C         21.5270  -22.5680   -9.3800 C.2     1  UNL1        0.2770
      9  O         21.3170  -22.2220   -8.2220 O.2     1  UNL1       -0.2660
     10  H         20.8710  -23.1510  -11.2240 H       1  UNL1        0.1690
     11  C         22.8850  -22.8930   -9.8630 C.ar    1  UNL1        0.1570
     12  N         23.7660  -23.5500   -9.0860 N.ar    1  UNL1       -0.1680
     13  N         24.8600  -23.6720   -9.8490 N.ar    1  UNL1       -0.2770
     14  C         24.7330  -23.1430  -11.1040 C.ar    1  UNL1        0.0620
     15  H         25.6710  -24.1330   -9.4530 H       1  UNL1        0.1890
     16  C         25.6280  -23.0820  -12.1770 C.2     1  UNL1        0.0320
     17  C         23.4520  -22.6030  -11.1460 C.ar    1  UNL1        0.0280
     18  C         25.1890  -22.4360  -13.3360 C.2     1  UNL1        0.0020
     19  C         23.9170  -21.8700  -13.4080 C.2     1  UNL1        0.0010
     20  C         23.0380  -21.9400  -12.3200 C.2     1  UNL1        0.0160
     21  S         16.2380  -23.6460   -7.7310 S.O2    1  UNL1        0.2630
     22  O         15.7010  -24.8860   -8.2510 O.2     1  UNL1       -0.2000
     23  O         15.3830  -22.6660   -7.0980 O.2     1  UNL1       -0.2000
     24  N         17.4820  -24.0840   -6.6760 N.pl3   1  UNL1       -0.2810
     25  H         18.2370  -24.5750   -7.1500 H       1  UNL1        0.1790
     26  C         17.8110  -23.2370   -5.5820 C.2     1  UNL1        0.0440
     27  C         17.4990  -23.6060   -4.2720 C.2     1  UNL1        0.0300
     28  C         17.8010  -22.7500   -3.2120 C.2     1  UNL1        0.0040
     29  C         18.4150  -21.5230   -3.4620 C.2     1  UNL1        0.0240
     30  C         18.7280  -21.1610   -4.7720 C.2     1  UNL1        0.0360
     31 CL         19.4870  -19.6490   -5.0800 Cl      1  UNL1       -0.0840
     32  C         18.4300  -22.0130   -5.8350 C.2     1  UNL1        0.0540
@<TRIPOS>BOND
     1    19    18    2
     2    19    20    1
     3    18    16    1
     4    20    17    2
     5    16    14    2
     6    10     7    1
     7     2     3    1
     8     2     1    2
     9    17    14   ar
    10    17    11   ar
    11    14    13   ar
    12     3     4    2
    13     7     1    1
    14     7     8   am
    15     1     6    1
    16     4     5    1
    17    11     8    1
    18    11    12   ar
    19    13    15    1
    20    13    12   ar
    21     8     9    2
    22     6     5    2
    23     5    21    1
    24    22    21    2
    25    21    23    2
    26    21    24    1
    27    25    24    1
    28    24    26    1
    29    32    26    2
    30    32    30    1
    31    26    27    1
    32    31    30    1
    33    30    29    2
    34    27    28    2
    35    29    28    1
