@<TRIPOS>MOLECULE
17345_out_ligand_01.pdbqt
 38 41 0 0 0
SMALL
GASTEIGER

@<TRIPOS>ATOM
      1  C         21.0430  -23.5160   -8.6780 C.3     1  UNL1        0.1950
      2  C         22.2740  -22.7520   -9.2000 C.2     1  UNL1        0.2350
      3  O         22.6840  -21.7330   -8.6480 O.2     1  UNL1       -0.2720
      4  N         22.8580  -23.3650  -10.3030 N.am    1  UNL1       -0.3260
      5  H         22.4780  -24.2590  -10.5870 H       1  UNL1        0.1690
      6  C         23.9590  -22.9000  -11.0530 C.2     1  UNL1        0.0360
      7  C         25.2940  -23.1810  -10.7400 C.2     1  UNL1        0.0290
      8  C         26.3380  -22.6700  -11.5190 C.2     1  UNL1        0.0040
      9  C         26.0600  -21.8770  -12.6310 C.2     1  UNL1        0.0250
     10  C         24.7300  -21.6060  -12.9530 C.2     1  UNL1        0.0760
     11  C         23.6810  -22.0970  -12.1660 C.2     1  UNL1        0.0540
     12  S         24.3810  -20.6310  -14.3920 S.O2    1  UNL1        0.2430
     13  O         22.9480  -20.6220  -14.5970 O.2     1  UNL1       -0.2060
     14  O         25.1290  -19.3990  -14.2720 O.2     1  UNL1       -0.2060
     15  N         25.0720  -21.5530  -15.6360 N.3     1  UNL1       -0.2060
     16  C         24.4280  -22.8460  -15.9680 C.3     1  UNL1        0.1070
     17  C         24.8480  -23.1010  -17.4060 C.3     1  UNL1        0.0170
     18  C         24.7800  -21.7130  -18.0080 C.3     1  UNL1        0.0170
     19  C         25.3380  -20.8230  -16.9050 C.3     1  UNL1        0.1070
     20  N         20.0380  -23.7650   -9.7190 N.pl3   1  UNL1       -0.2830
     21  H         19.3880  -24.5040   -9.4040 H       1  UNL1        0.1280
     22  C         19.2630  -22.6930  -10.2150 C.2     1  UNL1        0.0240
     23  C         19.7830  -21.7690  -11.1350 C.2     1  UNL1        0.0240
     24  C         18.9960  -20.7370  -11.6610 C.2     1  UNL1        0.0020
     25  C         17.6610  -20.6210  -11.2990 C.2     1  UNL1        0.0010
     26  C         17.1010  -21.5540  -10.4300 C.2     1  UNL1        0.0190
     27  C         17.8810  -22.6020   -9.9130 C.2     1  UNL1        0.0530
     28  C         17.2350  -23.6020   -9.0080 C.2     1  UNL1        0.2530
     29  O         16.1520  -24.1000   -9.2990 O.2     1  UNL1       -0.2680
     30  N         17.9080  -23.8800   -7.8350 N.am    1  UNL1       -0.3530
     31  H         18.6550  -23.2620   -7.5510 H       1  UNL1        0.1630
     32  C         17.3020  -24.6780   -6.7920 C.3     1  UNL1        0.1610
     33  C         16.6310  -23.7970   -5.7680 C.2     1  UNL1       -0.0410
     34  C         17.3040  -23.4460   -4.5900 C.2     1  UNL1        0.0090
     35  C         16.6850  -22.6480   -3.6290 C.2     1  UNL1        0.0010
     36  C         15.3840  -22.1950   -3.8340 C.2     1  UNL1        0.0000
     37  C         14.7050  -22.5320   -5.0030 C.2     1  UNL1        0.0010
     38  C         15.3230  -23.3300   -5.9660 C.2     1  UNL1        0.0090
@<TRIPOS>BOND
     1    18    17    1
     2    18    19    1
     3    17    16    1
     4    19    15    1
     5    16    15    1
     6    15    12    1
     7    13    12    2
     8    12    14    2
     9    12    10    1
    10    10     9    2
    11    10    11    1
    12     9     8    1
    13    11     6    2
    14    24    25    2
    15    24    23    1
    16     8     7    2
    17    25    26    1
    18    23    22    2
    19     6     7    1
    20     6     4    1
    21     5     4    1
    22    26    27    2
    23     4     2   am
    24    22    27    1
    25    22    20    1
    26    27    28    1
    27    20    21    1
    28    20     1    1
    29    29    28    2
    30     2     1    1
    31     2     3    2
    32    28    30   am
    33    30    31    1
    34    30    32    1
    35    32    33    1
    36    38    33    2
    37    38    37    1
    38    33    34    1
    39    37    36    2
    40    34    35    2
    41    36    35    1
