@<TRIPOS>MOLECULE
17344_out_ligand_01.pdbqt
 31 34 0 0 0
SMALL
GASTEIGER

@<TRIPOS>ATOM
      1  C         18.8560  -22.1910  -10.0410 C.2     1  UNL1        0.0330
      2  C         18.6030  -21.4710  -11.2190 C.2     1  UNL1        0.0170
      3  C         19.6650  -21.0390  -12.0170 C.2     1  UNL1        0.0030
      4  C         20.9780  -21.3370  -11.6550 C.2     1  UNL1        0.0250
      5  C         21.2230  -22.0820  -10.4960 C.2     1  UNL1        0.0800
      6  C         20.1700  -22.4990   -9.6780 C.2     1  UNL1        0.0420
      7  S         22.9010  -22.4620  -10.0340 S.O2    1  UNL1        0.2630
      8  O         23.6340  -21.2140  -10.0190 O.2     1  UNL1       -0.2000
      9  O         22.8590  -23.3180   -8.8690 O.2     1  UNL1       -0.2000
     10  N         23.4780  -23.3270  -11.3640 N.pl3   1  UNL1       -0.2810
     11  H         23.7020  -24.2910  -11.1260 H       1  UNL1        0.1790
     12  C         24.2990  -22.6680  -12.3220 C.2     1  UNL1        0.0450
     13  C         25.6990  -22.6810  -12.1890 C.2     1  UNL1        0.0330
     14  C         26.5100  -22.0790  -13.1560 C.2     1  UNL1        0.0420
     15  C         25.8870  -21.4840  -14.2330 C.2     1  UNL1        0.1050
     16  C         24.5180  -21.4720  -14.3600 C.2     1  UNL1        0.1070
     17  O         26.5100  -20.8580  -15.2650 O.2     1  UNL1       -0.3230
     18  C         23.6920  -22.0520  -13.4190 C.2     1  UNL1        0.0690
     19  O         24.1080  -20.8420  -15.4930 O.2     1  UNL1       -0.3230
     20  C         25.3790  -20.4880  -16.0800 C.3     1  UNL1        0.3520
     21  C         17.7460  -22.6790   -9.1770 C.2     1  UNL1        0.2560
     22  O         16.8140  -23.2630   -9.7160 O.2     1  UNL1       -0.2670
     23  N         17.9130  -22.4330   -7.8270 N.am    1  UNL1       -0.3230
     24  H         18.8030  -22.0470   -7.5370 H       1  UNL1        0.1690
     25  C         17.0150  -22.7470   -6.7850 C.2     1  UNL1        0.0370
     26  C         17.3060  -23.6280   -5.7390 C.2     1  UNL1        0.0290
     27  C         16.3580  -23.8940   -4.7430 C.2     1  UNL1        0.0050
     28  C         15.1100  -23.2810   -4.7870 C.2     1  UNL1        0.0420
     29  C         14.8210  -22.4080   -5.8270 C.2     1  UNL1        0.1180
     30  F         13.6200  -21.8160   -5.8770 F       1  UNL1       -0.2060
     31  C         15.7550  -22.1370   -6.8220 C.2     1  UNL1        0.0710
@<TRIPOS>BOND
     1    20    19    1
     2    20    17    1
     3    19    16    1
     4    17    15    1
     5    16    15    2
     6    16    18    1
     7    15    14    1
     8    18    12    2
     9    14    13    2
    10    12    13    1
    11    12    10    1
    12     3     4    2
    13     3     2    1
    14     4     5    1
    15    10    11    1
    16    10     7    1
    17     2     1    2
    18     5     7    1
    19     5     6    2
    20     1     6    1
    21     1    21    1
    22     7     8    2
    23     7     9    2
    24    22    21    2
    25    21    23   am
    26    23    24    1
    27    23    25    1
    28    31    25    2
    29    31    29    1
    30    25    26    1
    31    30    29    1
    32    29    28    2
    33    26    27    2
    34    28    27    1
