@<TRIPOS>MOLECULE
17355_out_ligand_01.pdbqt
 29 31 0 0 0
SMALL
GASTEIGER

@<TRIPOS>ATOM
      1  C         19.3140  -23.6870   -7.8490 C.2     1  UNL1        0.0320
      2  C         19.9100  -24.6200   -8.7060 C.2     1  UNL1        0.0180
      3  C         21.1790  -24.3700   -9.2280 C.2     1  UNL1        0.0260
      4  C         21.8540  -23.1980   -8.8660 C.2     1  UNL1        0.0790
      5  C         21.2600  -22.2610   -8.0120 C.2     1  UNL1        0.0260
      6  C         19.9920  -22.5170   -7.4880 C.2     1  UNL1        0.0180
      7  S         23.4720  -22.8750   -9.5370 S.O2    1  UNL1        0.2630
      8  O         23.6360  -21.4380   -9.5940 O.2     1  UNL1       -0.2000
      9  O         24.4210  -23.7030   -8.8230 O.2     1  UNL1       -0.2000
     10  N         23.3430  -23.3920  -11.1380 N.pl3   1  UNL1       -0.2800
     11  H         23.6890  -24.3400  -11.2670 H       1  UNL1        0.1790
     12  C         23.5020  -22.4600  -12.2050 C.2     1  UNL1        0.0480
     13  C         24.7580  -22.3100  -12.8010 C.2     1  UNL1        0.0300
     14  C         24.9340  -21.4350  -13.8710 C.2     1  UNL1        0.0020
     15  C         23.8530  -20.7010  -14.3490 C.2     1  UNL1        0.0010
     16  C         22.5990  -20.8360  -13.7510 C.2     1  UNL1        0.0090
     17  C         22.4060  -21.7120  -12.6690 C.2     1  UNL1       -0.0350
     18  C         21.0400  -21.8230  -12.0550 C.3     1  UNL1        0.0500
     19  C         17.9840  -23.9900   -7.2750 C.2     1  UNL1        0.2530
     20  N         16.9100  -23.1700   -7.6020 N.am    1  UNL1       -0.3460
     21  C         16.9140  -22.1930   -8.6840 C.3     1  UNL1        0.1530
     22  O         17.9030  -24.9630   -6.5290 O.2     1  UNL1       -0.2670
     23  C         15.7000  -23.2640   -6.7870 C.3     1  UNL1        0.1900
     24  C         16.0030  -22.9360   -5.3670 C.2     1  UNL1        0.0710
     25  C         15.3400  -23.1760   -4.1790 C.2     1  UNL1        0.0370
     26  C         16.1420  -22.6190   -3.1530 C.2     1  UNL1        0.0350
     27  C         17.2450  -22.0750   -3.7740 C.2     1  UNL1        0.0490
     28  C         18.4440  -21.3640   -3.2850 C.3     1  UNL1        0.0760
     29  O         17.1640  -22.2600   -5.1200 O.2     1  UNL1       -0.3180
@<TRIPOS>BOND
     1    15    14    2
     2    15    16    1
     3    14    13    1
     4    16    17    2
     5    13    12    2
     6    17    12    1
     7    17    18    1
     8    12    10    1
     9    11    10    1
    10    10     7    1
    11     8     7    2
    12     7     4    1
    13     7     9    2
    14     3     4    2
    15     3     2    1
    16     4     5    1
    17     2     1    2
    18    21    20    1
    19     5     6    2
    20     1     6    1
    21     1    19    1
    22    20    19   am
    23    20    23    1
    24    19    22    2
    25    23    24    1
    26    24    29    1
    27    24    25    2
    28    29    27    1
    29    25    26    1
    30    27    28    1
    31    27    26    2
