@<TRIPOS>MOLECULE
17365_out_ligand_01.pdbqt
 32 35 0 0 0
SMALL
GASTEIGER

@<TRIPOS>ATOM
      1  C         22.5350  -23.0440   -9.8870 C.2     1  UNL1        0.1180
      2  N         23.8150  -23.2920   -9.5200 N.2     1  UNL1       -0.2290
      3  C         24.8140  -22.9360  -10.3380 C.2     1  UNL1        0.2360
      4  N         24.7150  -22.3480  -11.5290 N.2     1  UNL1       -0.2340
      5  C         23.4410  -22.0950  -11.8660 C.2     1  UNL1        0.1130
      6  S         23.0970  -21.3430  -13.3550 S.3     1  UNL1       -0.0800
      7  C         21.4220  -21.3520  -13.0380 C.2     1  UNL1        0.0650
      8  C         21.1200  -21.9280  -11.8170 C.2     1  UNL1       -0.0030
      9  C         22.3060  -22.3870  -11.1200 C.2     1  UNL1        0.0510
     10  N         21.4960  -23.4480   -9.0400 N.pl3   1  UNL1       -0.2760
     11  H         21.4950  -24.4590   -8.9310 H       1  UNL1        0.1290
     12  C         21.4250  -22.7250   -7.7710 C.3     1  UNL1        0.0980
     13  C         20.1990  -21.8000   -7.7340 C.3     1  UNL1        0.0530
     14  C         19.0930  -22.2940   -6.8240 C.2     1  UNL1       -0.0570
     15  C         18.6560  -21.4990   -5.7530 C.2     1  UNL1        0.0090
     16  C         17.6090  -21.9250   -4.9360 C.2     1  UNL1        0.0250
     17  C         16.9940  -23.1530   -5.1900 C.2     1  UNL1        0.0740
     18  C         17.4250  -23.9630   -6.2420 C.2     1  UNL1        0.0250
     19  C         18.4790  -23.5350   -7.0500 C.2     1  UNL1        0.0090
     20  S         15.6150  -23.6520   -4.1960 S.O2    1  UNL1        0.2390
     21  O         14.5340  -24.0190   -5.0820 O.2     1  UNL1       -0.2060
     22  O         16.0910  -24.5290   -3.1530 O.2     1  UNL1       -0.2060
     23  N         15.1650  -22.1980   -3.4790 N.3     1  UNL1       -0.2250
     24  H         15.8420  -21.4750   -3.7330 H       1  UNL1        0.1360
     25  H         15.0360  -22.2680   -2.4700 H       1  UNL1        0.1360
     26  C         19.7350  -21.9600  -11.3670 C.2     1  UNL1       -0.0240
     27  C         19.1940  -23.1490  -10.8620 C.2     1  UNL1        0.0140
     28  C         17.8770  -23.1810  -10.4000 C.2     1  UNL1        0.0240
     29  C         17.1010  -22.0250  -10.4400 C.2     1  UNL1        0.0340
     30 CL         15.4770  -22.0700   -9.8720 Cl      1  UNL1       -0.0840
     31  C         17.6260  -20.8380  -10.9470 C.2     1  UNL1        0.0240
     32  C         18.9440  -20.8040  -11.4130 C.2     1  UNL1        0.0140
@<TRIPOS>BOND
     1     6     7    1
     2     6     5    1
     3     7     8    2
     4     5     4    2
     5     5     9    1
     6     8    26    1
     7     8     9    1
     8     4     3    1
     9    32    26    2
    10    32    31    1
    11    26    27    1
    12     9     1    2
    13    31    29    2
    14    27    28    2
    15    29    28    1
    16    29    30    1
    17     3     2    2
    18     1     2    1
    19     1    10    1
    20    10    11    1
    21    10    12    1
    22    12    13    1
    23    13    14    1
    24    19    14    2
    25    19    18    1
    26    14    15    1
    27    18    17    2
    28    15    16    2
    29    17    16    1
    30    17    20    1
    31    21    20    2
    32    20    23    1
    33    20    22    2
    34    24    23    1
    35    23    25    1
