@<TRIPOS>MOLECULE
17392_out_ligand_01.pdbqt
 36 38 0 0 0
SMALL
GASTEIGER

@<TRIPOS>ATOM
      1  C         18.7530  -22.5560  -10.3450 C.2     1  UNL1        0.0360
      2  C         18.3780  -21.7330  -11.4090 C.2     1  UNL1        0.0290
      3  C         19.3420  -21.0140  -12.1320 C.2     1  UNL1        0.0040
      4  C         20.6900  -21.1170  -11.7990 C.2     1  UNL1        0.0250
      5  C         21.0640  -21.9500  -10.7420 C.2     1  UNL1        0.0820
      6  C         20.1050  -22.6590  -10.0090 C.2     1  UNL1        0.0540
      7  N         17.8490  -23.3130   -9.5720 N.am    1  UNL1       -0.3270
      8  C         16.6830  -22.8740   -8.9810 C.2     1  UNL1        0.2220
      9  O         16.2440  -21.7290   -8.9710 O.2     1  UNL1       -0.2730
     10  H         18.0710  -24.3010   -9.4750 H       1  UNL1        0.1690
     11  C         15.9100  -23.9930   -8.2980 C.3     1  UNL1        0.1110
     12  C         16.7030  -24.7500   -7.2370 C.3     1  UNL1        0.0930
     13  C         16.8310  -24.0210   -5.9130 C.2     1  UNL1        0.1600
     14  O         16.1350  -24.3540   -4.9530 O.2     1  UNL1       -0.2920
     15  C         17.7910  -22.8820   -5.7700 C.2     1  UNL1        0.0100
     16  C         18.8800  -22.7040   -6.6320 C.2     1  UNL1        0.0180
     17  C         19.7360  -21.6120   -6.4620 C.2     1  UNL1        0.0430
     18  C         19.5070  -20.7070   -5.4320 C.2     1  UNL1        0.1160
     19  F         20.3300  -19.6620   -5.2800 F       1  UNL1       -0.2060
     20  C         18.4360  -20.8730   -4.5630 C.2     1  UNL1        0.0430
     21  C         17.5770  -21.9610   -4.7310 C.2     1  UNL1        0.0180
     22  S         22.7760  -22.1000  -10.2920 S.O2    1  UNL1        0.2630
     23  O         23.0220  -23.4980  -10.0010 O.2     1  UNL1       -0.2000
     24  O         23.0800  -21.0710   -9.3220 O.2     1  UNL1       -0.2000
     25  N         23.5800  -21.7760  -11.7420 N.pl3   1  UNL1       -0.2810
     26  H         23.5410  -20.7910  -11.9930 H       1  UNL1        0.1790
     27  C         24.7590  -22.5030  -12.0670 C.2     1  UNL1        0.0430
     28  C         25.8990  -22.3960  -11.2720 C.2     1  UNL1        0.0300
     29  C         27.0500  -23.1110  -11.6100 C.2     1  UNL1        0.0030
     30  C         27.0630  -23.9200  -12.7510 C.2     1  UNL1        0.0160
     31  C         25.9270  -24.0150  -13.5700 C.2     1  UNL1        0.0500
     32  C         24.7700  -23.3040  -13.2120 C.2     1  UNL1        0.0460
     33  C         25.9530  -24.8880  -14.8010 C.3     1  UNL1        0.4170
     34  F         24.8300  -25.6510  -14.9290 F       1  UNL1       -0.1660
     35  F         26.9980  -25.7620  -14.8260 F       1  UNL1       -0.1660
     36  F         26.0460  -24.1600  -15.9500 F       1  UNL1       -0.1660
@<TRIPOS>BOND
     1    36    33    1
     2    34    33    1
     3    35    33    1
     4    33    31    1
     5    31    32    1
     6    31    30    2
     7    32    27    2
     8    30    29    1
     9     3     4    2
    10     3     2    1
    11    27    25    1
    12    27    28    1
    13    26    25    1
    14     4     5    1
    15    25    22    1
    16    29    28    2
    17     2     1    2
    18     5    22    1
    19     5     6    2
    20     1     6    1
    21     1     7    1
    22    22    23    2
    23    22    24    2
    24     7    10    1
    25     7     8   am
    26     8     9    2
    27     8    11    1
    28    11    12    1
    29    12    13    1
    30    16    17    1
    31    16    15    2
    32    17    18    2
    33    13    15    1
    34    13    14    2
    35    15    21    1
    36    18    19    1
    37    18    20    1
    38    21    20    2
