@<TRIPOS>MOLECULE
17403_out_ligand_01.pdbqt
 36 39 0 0 0
SMALL
GASTEIGER

@<TRIPOS>ATOM
      1  C         19.9520  -22.7370  -10.0520 C.2     1  UNL1        0.0330
      2  C         19.3110  -21.7830  -10.8560 C.2     1  UNL1        0.0170
      3  C         19.9980  -21.1740  -11.9050 C.2     1  UNL1        0.0030
      4  C         21.3200  -21.5240  -12.1700 C.2     1  UNL1        0.0240
      5  C         21.9590  -22.4780  -11.3840 C.2     1  UNL1        0.0230
      6  C         21.2800  -23.0920  -10.3320 C.2     1  UNL1        0.0410
      7  N         23.2820  -22.9000  -11.7410 N.pl3   1  UNL1       -0.1810
      8  H         23.5000  -22.6550  -12.7100 H       1  UNL1        0.1460
      9  S         24.5200  -22.1780  -10.8030 S.O2    1  UNL1        0.2460
     10  O         23.8160  -21.3900   -9.8080 O.2     1  UNL1       -0.2060
     11  O         25.5350  -23.1460  -10.4520 O.2     1  UNL1       -0.2060
     12  C         25.2590  -21.0520  -11.9580 C.2     1  UNL1        0.0770
     13  C         26.2590  -20.1740  -11.5370 C.2     1  UNL1        0.0280
     14  C         26.8600  -19.3260  -12.4690 C.2     1  UNL1        0.0410
     15  C         26.4590  -19.3450  -13.8100 C.2     1  UNL1        0.1020
     16  C         25.4720  -20.2520  -14.2270 C.2     1  UNL1        0.1030
     17  O         27.1210  -18.4530  -14.6150 O.2     1  UNL1       -0.3480
     18  C         24.8530  -21.0840  -13.2930 C.2     1  UNL1        0.0640
     19  O         25.0430  -20.4070  -15.5220 O.2     1  UNL1       -0.3480
     20  C         26.1220  -20.3730  -16.4590 C.3     1  UNL1        0.1780
     21  C         26.4150  -18.9450  -16.8920 C.3     1  UNL1        0.0530
     22  C         26.3590  -17.9760  -15.7240 C.3     1  UNL1        0.1780
     23  C         19.2680  -23.4270   -8.9160 C.2     1  UNL1        0.2520
     24  N         18.0830  -22.8740   -8.4790 N.am    1  UNL1       -0.3480
     25  H         17.8440  -21.9380   -8.7720 H       1  UNL1        0.1630
     26  O         19.7740  -24.4180   -8.4030 O.2     1  UNL1       -0.2680
     27  C         17.3590  -23.4100   -7.3320 C.3     1  UNL1        0.1160
     28  C         15.8430  -23.2920   -7.5120 C.3     1  UNL1        0.0370
     29  C         17.8030  -22.7000   -6.0630 C.2     1  UNL1       -0.0030
     30  C         18.5940  -21.5390   -6.1360 C.2     1  UNL1        0.0120
     31  C         18.9630  -20.8450   -4.9800 C.2     1  UNL1        0.0010
     32  C         18.5510  -21.3030   -3.7300 C.2     1  UNL1        0.0030
     33  C         17.7810  -22.4600   -3.6370 C.2     1  UNL1        0.0370
     34  C         17.4230  -23.1580   -4.7920 C.2     1  UNL1        0.0760
     35  O         16.6100  -24.2510   -4.6470 O.2     1  UNL1       -0.3550
     36  C         15.4240  -23.9110   -3.9300 C.3     1  UNL1        0.2100
@<TRIPOS>BOND
     1    21    20    1
     2    21    22    1
     3    20    19    1
     4    22    17    1
     5    19    16    1
     6    17    15    1
     7    16    15    2
     8    16    18    1
     9    15    14    1
    10    18    12    2
    11     8     7    1
    12    14    13    2
    13     4     3    2
    14     4     5    1
    15    12    13    1
    16    12     9    1
    17     3     2    1
    18     7     5    1
    19     7     9    1
    20     5     6    2
    21     2     1    2
    22     9    11    2
    23     9    10    2
    24     6     1    1
    25     1    23    1
    26    23    24   am
    27    23    26    2
    28    25    24    1
    29    24    27    1
    30    28    27    1
    31    27    29    1
    32    30    29    2
    33    30    31    1
    34    29    34    1
    35    31    32    2
    36    34    35    1
    37    34    33    2
    38    35    36    1
    39    32    33    1
