@<TRIPOS>MOLECULE
17400_out_ligand_01.pdbqt
 32 35 0 0 0
SMALL
GASTEIGER

@<TRIPOS>ATOM
      1  C         19.5720  -22.0750  -10.2270 C.2     1  UNL1        0.0330
      2  C         19.2420  -21.4510  -11.4390 C.2     1  UNL1        0.0170
      3  C         20.2440  -21.1330  -12.3600 C.2     1  UNL1        0.0030
      4  C         21.5750  -21.4450  -12.0800 C.2     1  UNL1        0.0250
      5  C         21.8940  -22.0890  -10.8810 C.2     1  UNL1        0.0800
      6  C         20.9020  -22.4040   -9.9490 C.2     1  UNL1        0.0420
      7  S         23.5820  -22.4990  -10.5180 S.O2    1  UNL1        0.2630
      8  O         24.3610  -21.2810  -10.4820 O.2     1  UNL1       -0.2000
      9  O         23.5640  -23.4050   -9.3890 O.2     1  UNL1       -0.2000
     10  N         24.0380  -23.4190  -11.8600 N.pl3   1  UNL1       -0.2810
     11  H         24.3240  -24.3570  -11.5790 H       1  UNL1        0.1790
     12  C         24.7810  -22.7770  -12.8880 C.2     1  UNL1        0.0450
     13  C         26.1830  -22.7280  -12.7970 C.2     1  UNL1        0.0330
     14  C         26.9310  -22.0670  -13.7760 C.2     1  UNL1        0.0420
     15  C         26.2440  -21.4690  -14.8100 C.2     1  UNL1        0.1050
     16  C         24.8720  -21.5110  -14.8890 C.2     1  UNL1        0.1070
     17  O         26.8020  -20.7840  -15.8440 O.2     1  UNL1       -0.3230
     18  C         24.1070  -22.1560  -13.9410 C.2     1  UNL1        0.0690
     19  O         24.3950  -20.8570  -15.9820 O.2     1  UNL1       -0.3230
     20  C         25.6250  -20.4020  -16.5860 C.3     1  UNL1        0.3520
     21  C         18.5290  -22.4410   -9.2300 C.2     1  UNL1        0.2560
     22  N         18.9970  -22.6240   -7.9430 N.am    1  UNL1       -0.3230
     23  H         20.0000  -22.6040   -7.8110 H       1  UNL1        0.1690
     24  O         17.3790  -22.5720   -9.6280 O.2     1  UNL1       -0.2670
     25  C         18.2400  -22.9310   -6.7930 C.2     1  UNL1        0.0350
     26  C         17.2450  -23.9020   -6.7510 C.2     1  UNL1        0.0300
     27  C         16.5360  -24.1400   -5.5700 C.2     1  UNL1        0.0090
     28  C         16.8070  -23.4090   -4.4040 C.2     1  UNL1       -0.0560
     29  C         16.0210  -23.6980   -3.1540 C.3     1  UNL1        0.0490
     30  C         17.8080  -22.4210   -4.4350 C.2     1  UNL1       -0.0540
     31  C         18.5120  -22.1950   -5.6310 C.2     1  UNL1        0.0370
     32  C         18.1410  -21.6070   -3.2150 C.3     1  UNL1        0.0490
@<TRIPOS>BOND
     1    20    19    1
     2    20    17    1
     3    19    16    1
     4    17    15    1
     5    16    15    2
     6    16    18    1
     7    15    14    1
     8    18    12    2
     9    14    13    2
    10    12    13    1
    11    12    10    1
    12     3     4    2
    13     3     2    1
    14     4     5    1
    15    10    11    1
    16    10     7    1
    17     2     1    2
    18     5     7    1
    19     5     6    2
    20     7     8    2
    21     7     9    2
    22     1     6    1
    23     1    21    1
    24    24    21    2
    25    21    22   am
    26    22    23    1
    27    22    25    1
    28    25    26    2
    29    25    31    1
    30    26    27    1
    31    31    30    2
    32    27    28    2
    33    30    28    1
    34    30    32    1
    35    28    29    1
