@<TRIPOS>MOLECULE
17422_out_ligand_01.pdbqt
 36 39 0 0 0
SMALL
GASTEIGER

@<TRIPOS>ATOM
      1  C         23.0320  -23.3720   -9.7590 C.3     1  UNL1        0.0490
      2  C         21.5500  -23.3150   -9.5120 C.2     1  UNL1       -0.0460
      3  C         21.0040  -24.0640   -8.4540 C.2     1  UNL1        0.0090
      4  C         19.6280  -24.0710   -8.2210 C.2     1  UNL1        0.0250
      5  C         18.7800  -23.3350   -9.0540 C.2     1  UNL1        0.0750
      6  C         19.2960  -22.5710  -10.1000 C.2     1  UNL1        0.0420
      7  C         20.6820  -22.5430  -10.3090 C.2     1  UNL1        0.0390
      8  C         21.1680  -21.6550  -11.3920 C.2     1  UNL1        0.2520
      9  O         20.6420  -20.5630  -11.5690 O.2     1  UNL1       -0.2680
     10  N         22.2520  -22.1370  -12.0850 N.am    1  UNL1       -0.3540
     11  H         22.6350  -23.0390  -11.8360 H       1  UNL1        0.1620
     12  C         22.8830  -21.4000  -13.1700 C.3     1  UNL1        0.1530
     13  C         24.3510  -21.8900  -13.5020 C.3     1  UNL1        0.0440
     14  C         24.5020  -23.3040  -12.8350 C.3     1  UNL1        0.0320
     15  C         25.8620  -23.5310  -12.1850 C.3     1  UNL1        0.0020
     16  C         26.1300  -22.5130  -11.0780 C.3     1  UNL1        0.0000
     17  C         25.5460  -21.1290  -11.3620 C.3     1  UNL1        0.0020
     18  C         25.3550  -20.8840  -12.8550 C.3     1  UNL1        0.0320
     19  N         24.5460  -21.9720  -14.9820 N.3     1  UNL1       -0.3980
     20  C         24.3510  -23.2850  -15.6220 C.3     1  UNL1        0.1440
     21  C         24.7750  -23.2540  -17.1010 C.3     1  UNL1        0.1870
     22  O         26.1730  -23.0010  -17.2790 O.3     1  UNL1       -0.3880
     23  C         26.7450  -22.2420  -16.2070 C.3     1  UNL1        0.1870
     24  C         25.7500  -21.2920  -15.5180 C.3     1  UNL1        0.1440
     25  S         17.0310  -23.3680   -8.7570 S.O2    1  UNL1        0.2460
     26  O         16.7490  -24.4650   -7.8520 O.2     1  UNL1       -0.2060
     27  O         16.3800  -23.2480  -10.0420 O.2     1  UNL1       -0.2060
     28  N         16.8260  -21.9550   -7.8240 N.pl3   1  UNL1       -0.1780
     29  H         17.6790  -21.3990   -7.9330 H       1  UNL1        0.1460
     30  C         16.5180  -22.2010   -6.4430 C.2     1  UNL1        0.0610
     31  C         15.1870  -22.3540   -6.0440 C.2     1  UNL1        0.0270
     32  C         14.8870  -22.5350   -4.6910 C.2     1  UNL1        0.0020
     33  C         15.9070  -22.5470   -3.7360 C.2     1  UNL1        0.0030
     34  C         17.2340  -22.3830   -4.1320 C.2     1  UNL1        0.0440
     35  C         17.5320  -22.2060   -5.4790 C.2     1  UNL1        0.1380
     36  F         18.8160  -22.0560   -5.8440 F       1  UNL1       -0.2040
@<TRIPOS>BOND
     1    22    21    1
     2    22    23    1
     3    21    20    1
     4    23    24    1
     5    20    19    1
     6    24    19    1
     7    19    13    1
     8    13    12    1
     9    13    18    1
    10    13    14    1
    11    12    10    1
    12    18    17    1
    13    14    15    1
    14    15    16    1
    15    10    11    1
    16    10     8   am
    17     9     8    2
    18     8     7    1
    19    17    16    1
    20     7     6    1
    21     7     2    2
    22     6     5    2
    23    27    25    2
    24     1     2    1
    25     2     3    1
    26     5    25    1
    27     5     4    1
    28    25    26    2
    29    25    28    1
    30     3     4    2
    31    29    28    1
    32    28    30    1
    33    30    31    2
    34    30    35    1
    35    31    32    1
    36    36    35    1
    37    35    34    2
    38    32    33    2
    39    34    33    1
