@<TRIPOS>MOLECULE
17443_out_ligand_01.pdbqt
 36 38 0 0 0
SMALL
GASTEIGER

@<TRIPOS>ATOM
      1  C         16.6470  -21.7460  -10.4190 C.3     1  UNL1        0.1530
      2  N         18.0700  -22.0630  -10.4260 N.am    1  UNL1       -0.3440
      3  C         18.9180  -21.2290  -11.1560 C.2     1  UNL1        0.2530
      4  O         18.5450  -20.2170  -11.7420 O.2     1  UNL1       -0.2670
      5  C         20.3510  -21.5660  -11.2420 C.2     1  UNL1        0.0320
      6  C         21.0710  -21.8980  -10.0900 C.2     1  UNL1        0.0180
      7  C         22.4310  -22.1920  -10.1900 C.2     1  UNL1        0.0260
      8  C         23.0640  -22.1190  -11.4380 C.2     1  UNL1        0.0790
      9  C         22.3470  -21.7810  -12.5910 C.2     1  UNL1        0.0260
     10  C         20.9850  -21.4920  -12.4890 C.2     1  UNL1        0.0180
     11  S         24.7960  -22.4940  -11.5620 S.O2    1  UNL1        0.2630
     12  O         25.1940  -23.1240  -10.3200 O.2     1  UNL1       -0.2000
     13  O         25.4920  -21.3230  -12.0530 O.2     1  UNL1       -0.2000
     14  N         24.8230  -23.7100  -12.7330 N.pl3   1  UNL1       -0.2810
     15  H         25.0790  -24.6110  -12.3340 H       1  UNL1        0.1790
     16  C         25.3350  -23.3940  -14.0200 C.2     1  UNL1        0.0420
     17  C         24.5880  -22.6320  -14.9170 C.2     1  UNL1        0.0300
     18  C         25.1080  -22.3450  -16.1800 C.2     1  UNL1        0.0020
     19  C         26.3740  -22.8090  -16.5350 C.2     1  UNL1        0.0000
     20  C         27.1200  -23.5680  -15.6330 C.2     1  UNL1        0.0020
     21  C         26.6010  -23.8600  -14.3710 C.2     1  UNL1        0.0300
     22  C         18.4490  -23.3970   -9.9270 C.3     1  UNL1        0.2280
     23  C         18.6740  -23.4690   -8.4070 C.2     1  UNL1        0.2400
     24  O         19.4150  -24.3270   -7.9330 O.2     1  UNL1       -0.2710
     25  N         17.9930  -22.4900   -7.7030 N.am    1  UNL1       -0.3250
     26  H         17.4000  -21.9090   -8.2910 H       1  UNL1        0.1690
     27  C         18.0040  -22.2270   -6.3140 C.2     1  UNL1        0.0490
     28  C         18.8980  -21.3150   -5.7370 C.2     1  UNL1        0.0300
     29  C         18.8880  -21.0620   -4.3620 C.2     1  UNL1        0.0020
     30  C         17.9790  -21.7120   -3.5370 C.2     1  UNL1        0.0010
     31  C         17.0810  -22.6200   -4.0900 C.2     1  UNL1        0.0180
     32  C         17.0840  -22.8920   -5.4740 C.2     1  UNL1        0.0740
     33  C         16.0520  -23.8490   -6.0120 C.3     1  UNL1        0.4190
     34  F         15.2640  -23.3180   -6.9880 F       1  UNL1       -0.1660
     35  F         15.1960  -24.3030   -5.0510 F       1  UNL1       -0.1660
     36  F         16.6210  -24.9640   -6.5500 F       1  UNL1       -0.1660
@<TRIPOS>BOND
     1    19    18    2
     2    19    20    1
     3    18    17    1
     4    20    21    2
     5    17    16    2
     6    21    16    1
     7    16    14    1
     8    14    15    1
     9    14    11    1
    10     9    10    1
    11     9     8    2
    12    10     5    2
    13    13    11    2
    14     4     3    2
    15    11     8    1
    16    11    12    2
    17     8     7    1
    18     5     3    1
    19     5     6    1
    20     3     2   am
    21     2     1    1
    22     2    22    1
    23     7     6    2
    24    22    23    1
    25    23    24    2
    26    23    25   am
    27    26    25    1
    28    25    27    1
    29    34    33    1
    30    36    33    1
    31    27    28    2
    32    27    32    1
    33    33    32    1
    34    33    35    1
    35    28    29    1
    36    32    31    2
    37    29    30    2
    38    31    30    1
