@<TRIPOS>MOLECULE
17452_out_ligand_01.pdbqt
 34 36 0 0 0
SMALL
GASTEIGER

@<TRIPOS>ATOM
      1  C         18.8090  -22.7510   -9.6800 C.2     1  UNL1        0.0830
      2  C         20.1600  -22.8400  -10.0620 C.2     1  UNL1        0.0540
      3  C         20.6360  -22.1440  -11.1780 C.2     1  UNL1        0.0360
      4  C         19.7460  -21.3560  -11.9050 C.2     1  UNL1        0.0300
      5  C         18.4030  -21.2570  -11.5200 C.2     1  UNL1        0.0100
      6  C         17.9090  -21.9530  -10.4080 C.2     1  UNL1       -0.0390
      7  C         16.4630  -21.7770  -10.0350 C.3     1  UNL1        0.0500
      8  N         22.0020  -22.2960  -11.4980 N.am    1  UNL1       -0.3230
      9  C         23.0860  -21.7830  -10.8090 C.2     1  UNL1        0.2560
     10  O         23.0600  -21.1520   -9.7590 O.2     1  UNL1       -0.2670
     11  H         22.2010  -22.9010  -12.2860 H       1  UNL1        0.1690
     12  C         24.4150  -22.0780  -11.4150 C.2     1  UNL1        0.0330
     13  C         25.5320  -21.3640  -10.9610 C.2     1  UNL1        0.0170
     14  C         26.7950  -21.6150  -11.4990 C.2     1  UNL1        0.0020
     15  C         26.9470  -22.5710  -12.5060 C.2     1  UNL1        0.0170
     16  C         25.8310  -23.2640  -12.9900 C.2     1  UNL1        0.0320
     17  C         24.5650  -23.0190  -12.4410 C.2     1  UNL1        0.0340
     18  C         25.9340  -24.2850  -14.0660 C.2     1  UNL1        0.2490
     19  N         26.9060  -24.1170  -15.0110 N.am    1  UNL1       -0.3660
     20  H         26.8750  -24.7560  -15.7960 H       1  UNL1        0.1590
     21  H         27.3790  -23.2370  -15.1540 H       1  UNL1        0.1590
     22  O         25.1550  -25.2280  -14.1200 O.2     1  UNL1       -0.2680
     23  S         18.2970  -23.6730   -8.2370 S.O2    1  UNL1        0.2460
     24  O         16.9470  -24.1460   -8.4730 O.2     1  UNL1       -0.2060
     25  O         19.3660  -24.5780   -7.8850 O.2     1  UNL1       -0.2060
     26  N         18.1670  -22.4180   -7.0870 N.pl3   1  UNL1       -0.1810
     27  H         18.0520  -21.5410   -7.5980 H       1  UNL1        0.1460
     28  C         17.1070  -22.6050   -6.1400 C.2     1  UNL1        0.0230
     29  C         17.3330  -23.3390   -4.9770 C.2     1  UNL1        0.0240
     30  C         16.3060  -23.4920   -4.0450 C.2     1  UNL1        0.0020
     31  C         15.0630  -22.8980   -4.2700 C.2     1  UNL1        0.0070
     32  C         14.8400  -22.1310   -5.4200 C.2     1  UNL1       -0.0600
     33  C         13.5050  -21.4970   -5.6720 C.3     1  UNL1        0.0480
     34  C         15.8720  -21.9940   -6.3580 C.2     1  UNL1        0.0310
@<TRIPOS>BOND
     1    20    19    1
     2    21    19    1
     3    19    18   am
     4    22    18    2
     5    18    16    1
     6    16    15    2
     7    16    17    1
     8    15    14    1
     9    17    12    2
    10    11     8    1
    11     4     5    2
    12     4     3    1
    13     5     6    1
    14    14    13    2
    15     8     3    1
    16     8     9   am
    17    12    13    1
    18    12     9    1
    19     3     2    2
    20     9    10    2
    21     6     7    1
    22     6     1    2
    23     2     1    1
    24     1    23    1
    25    24    23    2
    26    23    25    2
    27    23    26    1
    28    27    26    1
    29    26    28    1
    30    34    28    2
    31    34    32    1
    32    28    29    1
    33    33    32    1
    34    32    31    2
    35    29    30    2
    36    31    30    1
