@<TRIPOS>MOLECULE
17465_out_ligand_01.pdbqt
 30 32 0 0 0
SMALL
GASTEIGER

@<TRIPOS>ATOM
      1  C         23.1660  -23.0730   -9.3020 C.2     1  UNL1        0.0090
      2  C         22.9790  -21.8670   -8.6100 C.2     1  UNL1        0.0260
      3  C         21.8290  -21.6530   -7.8500 C.2     1  UNL1        0.0390
      4  C         20.8420  -22.6350   -7.8050 C.2     1  UNL1        0.0760
      5  C         21.0070  -23.8360   -8.4880 C.2     1  UNL1        0.0390
      6  C         22.1620  -24.0470   -9.2430 C.2     1  UNL1        0.0260
      7  N         24.3630  -23.3010   -9.9900 N.pl3   1  UNL1       -0.2800
      8  H         24.3810  -24.2280  -10.4200 H       1  UNL1        0.1280
      9  C         24.7800  -22.2770  -10.9770 C.3     1  UNL1        0.1480
     10  C         26.3050  -22.2040  -10.9640 C.3     1  UNL1        0.0360
     11  C         24.2770  -22.6470  -12.3920 C.2     1  UNL1        0.2420
     12  O         24.5530  -23.7140  -12.9390 O.2     1  UNL1       -0.2710
     13  N         23.3490  -21.7570  -12.8960 N.am    1  UNL1       -0.2830
     14  C         23.5910  -21.1480  -14.0890 C.2     1  UNL1        0.2980
     15  H         22.9710  -21.0980  -12.2300 H       1  UNL1        0.1730
     16  N         22.6350  -20.2260  -14.3940 N.am    1  UNL1       -0.2540
     17  O         24.5440  -21.3260  -14.8310 O.2     1  UNL1       -0.2540
     18  H         21.6790  -20.4790  -14.1720 H       1  UNL1        0.1280
     19  H         22.7440  -19.8540  -15.3320 H       1  UNL1        0.1280
     20  O         19.7390  -22.4670   -7.0120 O.2     1  UNL1       -0.3080
     21  C         18.4810  -22.5090   -7.5990 C.2     1  UNL1        0.1050
     22  C         18.2670  -22.6050   -8.9830 C.2     1  UNL1        0.0400
     23  C         16.9710  -22.6570   -9.4890 C.2     1  UNL1        0.0040
     24  C         15.8890  -22.6170   -8.6180 C.2     1  UNL1        0.0140
     25  C         16.0950  -22.5280   -7.2290 C.2     1  UNL1       -0.0050
     26  C         15.0080  -22.5000   -6.3460 C.2     1  UNL1        0.0150
     27  C         17.4020  -22.4710   -6.6960 C.2     1  UNL1        0.1000
     28  C         15.2280  -22.4240   -4.9780 C.2     1  UNL1        0.0200
     29  C         16.5340  -22.3710   -4.5360 C.2     1  UNL1        0.1170
     30  N         17.6050  -22.3890   -5.3580 N.2     1  UNL1       -0.2570
@<TRIPOS>BOND
     1    19    16    1
     2    17    14    2
     3    16    18    1
     4    16    14   am
     5    14    13   am
     6    12    11    2
     7    13    11   am
     8    13    15    1
     9    11     9    1
    10     9    10    1
    11     9     7    1
    12     8     7    1
    13     7     1    1
    14    23    22    1
    15    23    24    2
    16     1     6    2
    17     1     2    1
    18     6     5    1
    19    22    21    2
    20    24    25    1
    21     2     3    2
    22     5     4    2
    23     3     4    1
    24     4    20    1
    25    21    20    1
    26    21    27    1
    27    25    27    2
    28    25    26    1
    29    27    30    1
    30    26    28    2
    31    30    29    2
    32    28    29    1
