@<TRIPOS>MOLECULE
17478_out_ligand_01.pdbqt
 30 32 0 0 0
SMALL
GASTEIGER

@<TRIPOS>ATOM
      1  N         17.1550  -23.6370   -8.1510 N.am    1  UNL1       -0.3200
      2  C         15.9780  -23.3280   -8.8140 C.2     1  UNL1        0.0940
      3  C         15.9820  -22.5530   -9.9030 C.2     1  UNL1        0.0180
      4  C         17.2220  -22.0340  -10.4140 C.2     1  UNL1        0.0240
      5  C         18.3960  -22.2970   -9.8130 C.2     1  UNL1        0.1000
      6  C         18.3900  -23.1450   -8.5740 C.2     1  UNL1        0.2630
      7  O         19.4480  -23.3750   -7.9870 O.2     1  UNL1       -0.2670
      8  C         19.6400  -21.7390  -10.4380 C.2     1  UNL1        0.2610
      9  O         19.5730  -20.7960  -11.2230 O.2     1  UNL1       -0.2670
     10  N         20.8070  -22.3710  -10.0680 N.am    1  UNL1       -0.3210
     11  H         20.7170  -23.1290   -9.3930 H       1  UNL1        0.1690
     12  C         22.1120  -22.0980  -10.5300 C.2     1  UNL1        0.0520
     13  C         22.4130  -22.4390  -11.8510 C.2     1  UNL1        0.0330
     14  C         23.6840  -22.1840  -12.3660 C.2     1  UNL1        0.0390
     15  C         24.6210  -21.5890  -11.5310 C.2     1  UNL1        0.1230
     16  N         24.3700  -21.2350  -10.2440 N.2     1  UNL1       -0.2530
     17  C         23.1230  -21.5010   -9.7760 C.2     1  UNL1        0.1470
     18  C         25.9950  -21.2950  -12.0440 C.2     1  UNL1        0.2680
     19  N         26.3750  -19.9780  -11.9650 N.am    1  UNL1       -0.3650
     20  H         27.3320  -19.7350  -12.1760 H       1  UNL1        0.1590
     21  H         25.7920  -19.3370  -11.4410 H       1  UNL1        0.1590
     22  O         26.7400  -22.1600  -12.4900 O.2     1  UNL1       -0.2660
     23  C         17.0970  -24.5020   -6.9720 C.3     1  UNL1        0.1700
     24  C         16.7540  -23.7560   -5.7010 C.2     1  UNL1       -0.0390
     25  C         15.4770  -23.8590   -5.1320 C.2     1  UNL1        0.0090
     26  C         15.1750  -23.1880   -3.9490 C.2     1  UNL1        0.0010
     27  C         16.1470  -22.4140   -3.3160 C.2     1  UNL1        0.0070
     28  C         17.4300  -22.2980   -3.8660 C.2     1  UNL1       -0.0610
     29  C         18.4830  -21.5000   -3.1530 C.3     1  UNL1        0.0480
     30  C         17.7270  -22.9780   -5.0560 C.2     1  UNL1        0.0150
@<TRIPOS>BOND
     1    22    18    2
     2    14    13    1
     3    14    15    2
     4    20    19    1
     5    18    19   am
     6    18    15    1
     7    19    21    1
     8    13    12    2
     9    15    16    1
    10     9     8    2
    11    12    10    1
    12    12    17    1
    13     8    10   am
    14     8     5    1
    15     4     3    1
    16     4     5    2
    17    16    17    2
    18    10    11    1
    19     3     2    2
    20     5     6    1
    21     2     1    1
    22     6     1   am
    23     6     7    2
    24     1    23    1
    25    23    24    1
    26    24    25    2
    27    24    30    1
    28    25    26    1
    29    30    28    2
    30    26    27    2
    31    28    27    1
    32    28    29    1
