@<TRIPOS>MOLECULE
17485_out_ligand_01.pdbqt
 36 39 0 0 0
SMALL
GASTEIGER

@<TRIPOS>ATOM
      1  C         17.1670  -21.6730  -10.7320 C.3     1  UNL1        0.1530
      2  N         18.5770  -22.0440  -10.6800 N.am    1  UNL1       -0.3440
      3  C         19.5170  -21.1840  -11.2430 C.2     1  UNL1        0.2530
      4  O         19.2470  -20.0790  -11.7010 O.2     1  UNL1       -0.2670
      5  C         20.9300  -21.6050  -11.2880 C.2     1  UNL1        0.0320
      6  C         21.5540  -21.7310  -12.5340 C.2     1  UNL1        0.0180
      7  C         22.8980  -22.1060  -12.5940 C.2     1  UNL1        0.0260
      8  C         23.6050  -22.3270  -11.4070 C.2     1  UNL1        0.0790
      9  C         22.9770  -22.2040  -10.1600 C.2     1  UNL1        0.0260
     10  C         21.6360  -21.8260  -10.1010 C.2     1  UNL1        0.0180
     11  S         25.3170  -22.8050  -11.4690 S.O2    1  UNL1        0.2590
     12  O         26.0660  -21.6710  -11.9610 O.2     1  UNL1       -0.2010
     13  O         25.6430  -23.4530  -10.2170 O.2     1  UNL1       -0.2010
     14  N         25.3340  -23.9630  -12.6700 N.3     1  UNL1       -0.3090
     15  H         25.0870  -24.9020  -12.3640 H       1  UNL1        0.1720
     16  C         26.3270  -23.8570  -13.7340 C.3     1  UNL1        0.1970
     17  C         25.6340  -23.3440  -14.9420 C.2     1  UNL1        0.0700
     18  C         25.2780  -22.0830  -15.3710 C.2     1  UNL1        0.0360
     19  C         24.6160  -22.2540  -16.6110 C.2     1  UNL1        0.0270
     20  C         24.6040  -23.6060  -16.8550 C.2     1  UNL1        0.1420
     21  O         25.2180  -24.2790  -15.8460 O.2     1  UNL1       -0.3250
     22  C         18.8820  -23.3870  -10.1460 C.3     1  UNL1        0.2280
     23  C         18.9540  -23.4520   -8.6090 C.2     1  UNL1        0.2400
     24  O         19.5620  -24.3670   -8.0610 O.2     1  UNL1       -0.2710
     25  N         18.3120  -22.3940   -7.9900 N.am    1  UNL1       -0.3250
     26  H         17.8540  -21.7650   -8.6350 H       1  UNL1        0.1690
     27  C         18.2100  -22.0870   -6.6140 C.2     1  UNL1        0.0450
     28  C         19.1740  -21.2970   -5.9750 C.2     1  UNL1        0.0300
     29  C         19.0690  -20.9990   -4.6200 C.2     1  UNL1        0.0030
     30  C         17.9970  -21.4840   -3.8810 C.2     1  UNL1        0.0120
     31  C         17.0100  -22.2710   -4.4830 C.2     1  UNL1       -0.0240
     32  C         15.9360  -22.7390   -3.7070 C.2     1  UNL1        0.0120
     33  C         17.0960  -22.5910   -5.8650 C.2     1  UNL1        0.0010
     34  C         14.9300  -23.5210   -4.2660 C.2     1  UNL1        0.0010
     35  C         14.9860  -23.8480   -5.6130 C.2     1  UNL1        0.0010
     36  C         16.0490  -23.3920   -6.3990 C.2     1  UNL1        0.0140
@<TRIPOS>BOND
     1    20    19    2
     2    20    21    1
     3    19    18    1
     4    21    17    1
     5    18    17    2
     6    17    16    1
     7    16    14    1
     8    14    15    1
     9    14    11    1
    10     7     6    1
    11     7     8    2
    12     6     5    2
    13    12    11    2
    14     4     3    2
    15    11     8    1
    16    11    13    2
    17     8     9    1
    18     5     3    1
    19     5    10    1
    20     3     2   am
    21     1     2    1
    22     2    22    1
    23     9    10    2
    24    22    23    1
    25    26    25    1
    26    23    24    2
    27    23    25   am
    28    25    27    1
    29    27    28    2
    30    27    33    1
    31    36    33    1
    32    36    35    2
    33    28    29    1
    34    33    31    2
    35    35    34    1
    36    29    30    2
    37    31    30    1
    38    31    32    1
    39    34    32    2
