@<TRIPOS>MOLECULE
17484_out_ligand_01.pdbqt
 37 40 0 0 0
SMALL
GASTEIGER

@<TRIPOS>ATOM
      1  C         19.3380  -21.3040  -11.2230 C.2     1  UNL1        0.2530
      2  O         18.8730  -20.2560  -11.6620 O.2     1  UNL1       -0.2670
      3  N         18.5580  -22.3460  -10.7230 N.am    1  UNL1       -0.3440
      4  C         17.1200  -22.1420  -10.6020 C.3     1  UNL1        0.1530
      5  C         20.8070  -21.4440  -11.2220 C.2     1  UNL1        0.0320
      6  C         21.4540  -21.6650  -12.4450 C.2     1  UNL1        0.0180
      7  C         22.8410  -21.8080  -12.4750 C.2     1  UNL1        0.0260
      8  C         23.5650  -21.7490  -11.2780 C.2     1  UNL1        0.0790
      9  C         22.9170  -21.5340  -10.0550 C.2     1  UNL1        0.0260
     10  C         21.5290  -21.3970  -10.0250 C.2     1  UNL1        0.0180
     11  S         25.3350  -21.9070  -11.3230 S.O2    1  UNL1        0.2630
     12  O         25.8790  -20.7760  -10.5960 O.2     1  UNL1       -0.2000
     13  O         25.6900  -23.2610  -10.9590 O.2     1  UNL1       -0.2000
     14  N         25.6940  -21.6290  -12.9520 N.pl3   1  UNL1       -0.2800
     15  H         26.5840  -21.1430  -13.0480 H       1  UNL1        0.1790
     16  C         25.4040  -22.6610  -13.8900 C.2     1  UNL1        0.0480
     17  C         25.6590  -23.9850  -13.5180 C.2     1  UNL1        0.0300
     18  C         25.4460  -25.0240  -14.4240 C.2     1  UNL1        0.0020
     19  C         24.9830  -24.7420  -15.7060 C.2     1  UNL1        0.0010
     20  C         24.7240  -23.4220  -16.0800 C.2     1  UNL1        0.0090
     21  C         24.9230  -22.3640  -15.1760 C.2     1  UNL1       -0.0350
     22  C         24.6590  -20.9570  -15.6270 C.3     1  UNL1        0.0500
     23  C         19.0980  -23.5780  -10.1140 C.3     1  UNL1        0.2280
     24  C         19.2030  -23.5220   -8.5780 C.2     1  UNL1        0.2400
     25  O         19.8400  -24.3780   -7.9710 O.2     1  UNL1       -0.2710
     26  N         18.5070  -22.4610   -8.0280 N.am    1  UNL1       -0.3250
     27  H         18.0710  -21.8630   -8.7180 H       1  UNL1        0.1690
     28  C         18.3230  -22.1120   -6.6690 C.2     1  UNL1        0.0450
     29  C         19.2570  -21.3160   -5.9930 C.2     1  UNL1        0.0300
     30  C         19.0740  -20.9800   -4.6540 C.2     1  UNL1        0.0030
     31  C         17.9520  -21.4340   -3.9700 C.2     1  UNL1        0.0120
     32  C         16.9970  -22.2340   -4.6090 C.2     1  UNL1       -0.0240
     33  C         15.8770  -22.6780   -3.8850 C.2     1  UNL1        0.0120
     34  C         17.1630  -22.5910   -5.9740 C.2     1  UNL1        0.0010
     35  C         14.9050  -23.4800   -4.4800 C.2     1  UNL1        0.0010
     36  C         15.0410  -23.8460   -5.8100 C.2     1  UNL1        0.0010
     37  C         16.1500  -23.4110   -6.5460 C.2     1  UNL1        0.0140
@<TRIPOS>BOND
     1    20    19    2
     2    20    21    1
     3    19    18    1
     4    22    21    1
     5    21    16    2
     6    18    17    2
     7    16    17    1
     8    16    14    1
     9    15    14    1
    10    14    11    1
    11     7     6    1
    12     7     8    2
    13     6     5    2
    14     2     1    2
    15    11     8    1
    16    11    13    2
    17    11    12    2
    18     8     9    1
    19     1     5    1
    20     1     3   am
    21     5    10    1
    22     3     4    1
    23     3    23    1
    24    23    24    1
    25     9    10    2
    26    27    26    1
    27    24    26   am
    28    24    25    2
    29    26    28    1
    30    28    29    2
    31    28    34    1
    32    37    34    1
    33    37    36    2
    34    29    30    1
    35    34    32    2
    36    36    35    1
    37    30    31    2
    38    32    31    1
    39    32    33    1
    40    35    33    2
