@<TRIPOS>MOLECULE
17488_out_ligand_01.pdbqt
 34 37 0 0 0
SMALL
GASTEIGER

@<TRIPOS>ATOM
      1  C         17.7010  -22.1750   -4.9520 C.2     1  UNL1        0.0800
      2  C         18.1670  -21.0100   -4.3360 C.2     1  UNL1        0.0250
      3  C         19.3150  -20.3870   -4.8260 C.2     1  UNL1        0.0030
      4  C         19.9960  -20.9290   -5.9190 C.2     1  UNL1        0.0170
      5  C         19.5340  -22.1120   -6.5170 C.2     1  UNL1        0.0330
      6  C         18.3820  -22.7380   -6.0330 C.2     1  UNL1        0.0420
      7  C         20.2110  -22.7010   -7.7050 C.2     1  UNL1        0.2560
      8  O         19.7680  -23.7550   -8.1440 O.2     1  UNL1       -0.2670
      9  N         21.3010  -21.9880   -8.1660 N.am    1  UNL1       -0.3230
     10  H         21.6030  -21.1970   -7.6120 H       1  UNL1        0.1690
     11  C         22.1050  -22.2860   -9.2840 C.2     1  UNL1        0.0350
     12  C         21.6020  -21.9520  -10.5430 C.2     1  UNL1        0.0310
     13  C         22.3410  -22.2230  -11.7020 C.2     1  UNL1        0.0260
     14  C         23.6010  -22.8380  -11.6450 C.2     1  UNL1        0.0100
     15  C         24.0940  -23.1570  -10.3740 C.2     1  UNL1        0.0260
     16  C         23.3570  -22.8910   -9.2090 C.2     1  UNL1        0.0310
     17  N         24.3010  -23.0780  -12.8400 N.pl3   1  UNL1       -0.2830
     18  C         24.2790  -22.0160  -13.8570 C.3     1  UNL1        0.0950
     19  C         24.7920  -22.5650  -15.1870 C.3     1  UNL1        0.0150
     20  C         26.1820  -23.1740  -15.0310 C.3     1  UNL1        0.0020
     21  C         26.1850  -24.2240  -13.9240 C.3     1  UNL1        0.0150
     22  C         25.6400  -23.6580  -12.6140 C.3     1  UNL1        0.0950
     23  S         16.2220  -22.9660   -4.3610 S.O2    1  UNL1        0.2630
     24  O         15.8010  -22.2890   -3.1530 O.2     1  UNL1       -0.2000
     25  O         16.4700  -24.3930   -4.3720 O.2     1  UNL1       -0.2000
     26  N         15.1090  -22.6620   -5.5940 N.pl3   1  UNL1       -0.2810
     27  H         14.1480  -22.7750   -5.2750 H       1  UNL1        0.1790
     28  C         15.4160  -23.0750   -6.9210 C.2     1  UNL1        0.0430
     29  C         15.3200  -24.4280   -7.2470 C.2     1  UNL1        0.0300
     30  C         15.6640  -24.8600   -8.5270 C.2     1  UNL1        0.0030
     31  C         16.0980  -23.9400   -9.4830 C.2     1  UNL1        0.0070
     32  C         16.1790  -22.5780   -9.1700 C.2     1  UNL1       -0.0600
     33  C         16.6700  -21.5890  -10.1860 C.3     1  UNL1        0.0480
     34  C         15.8460  -22.1530   -7.8770 C.2     1  UNL1        0.0370
@<TRIPOS>BOND
     1    19    20    1
     2    19    18    1
     3    20    21    1
     4    21    22    1
     5    18    17    1
     6    17    22    1
     7    17    14    1
     8    13    14    2
     9    13    12    1
    10    14    15    1
    11    12    11    2
    12    15    16    2
    13    33    32    1
    14    31    32    2
    15    31    30    1
    16    11    16    1
    17    11     9    1
    18    32    34    1
    19    30    29    2
    20     9     7   am
    21     9    10    1
    22     8     7    2
    23    34    28    2
    24     7     5    1
    25    29    28    1
    26    28    26    1
    27     5     6    1
    28     5     4    2
    29     6     1    2
    30     4     3    1
    31    26    27    1
    32    26    23    1
    33     1    23    1
    34     1     2    1
    35     3     2    2
    36    25    23    2
    37    23    24    2
