@<TRIPOS>MOLECULE
17487_out_ligand_01.pdbqt
 37 40 0 0 0
SMALL
GASTEIGER

@<TRIPOS>ATOM
      1  C         17.0690  -20.9430  -11.5150 C.3     1  UNL1        0.1530
      2  N         18.1240  -21.8110  -11.0090 N.am    1  UNL1       -0.3440
      3  C         19.4330  -21.3270  -10.9790 C.2     1  UNL1        0.2530
      4  O         19.7740  -20.2520  -11.4650 O.2     1  UNL1       -0.2670
      5  C         20.4870  -22.1730  -10.3900 C.2     1  UNL1        0.0330
      6  C         20.1420  -23.1000   -9.4000 C.2     1  UNL1        0.0170
      7  C         21.1280  -23.9160   -8.8430 C.2     1  UNL1        0.0030
      8  C         22.4500  -23.8130   -9.2810 C.2     1  UNL1        0.0250
      9  C         22.7800  -22.8830  -10.2750 C.2     1  UNL1        0.0800
     10  C         21.8000  -22.0720  -10.8530 C.2     1  UNL1        0.0420
     11  S         24.4620  -22.7770  -10.8460 S.O2    1  UNL1        0.2630
     12  O         25.2630  -23.6630  -10.0330 O.2     1  UNL1       -0.2000
     13  O         24.7870  -21.3720  -10.9690 O.2     1  UNL1       -0.2000
     14  N         24.3730  -23.3890  -12.4160 N.pl3   1  UNL1       -0.2780
     15  H         24.5810  -24.3900  -12.4380 H       1  UNL1        0.1790
     16  C         24.9080  -22.6240  -13.4980 C.2     1  UNL1        0.0810
     17  C         26.2510  -22.7210  -13.8660 C.2     1  UNL1        0.0330
     18  C         26.7340  -21.9670  -14.9400 C.2     1  UNL1        0.0020
     19  C         25.8770  -21.1180  -15.6460 C.2     1  UNL1        0.0030
     20  C         24.5340  -21.0180  -15.2780 C.2     1  UNL1        0.0440
     21  C         24.0630  -21.7640  -14.2050 C.2     1  UNL1        0.1430
     22  F         22.7700  -21.6680  -13.8560 F       1  UNL1       -0.2040
     23  C         17.7080  -23.1330  -10.5060 C.3     1  UNL1        0.2280
     24  C         16.6920  -23.0750   -9.3440 C.2     1  UNL1        0.2400
     25  O         15.5180  -22.7860   -9.5630 O.2     1  UNL1       -0.2710
     26  N         17.2630  -23.3590   -8.1180 N.am    1  UNL1       -0.3250
     27  H         18.2390  -23.6080   -8.1760 H       1  UNL1        0.1690
     28  C         16.6940  -23.3210   -6.8230 C.2     1  UNL1        0.0450
     29  C         15.5170  -24.0170   -6.5280 C.2     1  UNL1        0.0300
     30  C         14.9600  -23.9670   -5.2520 C.2     1  UNL1        0.0030
     31  C         15.5710  -23.2180   -4.2520 C.2     1  UNL1        0.0120
     32  C         16.7470  -22.5060   -4.5090 C.2     1  UNL1       -0.0240
     33  C         17.3380  -21.7530   -3.4770 C.2     1  UNL1        0.0120
     34  C         17.3350  -22.5440   -5.8010 C.2     1  UNL1        0.0010
     35  C         18.5040  -21.0250   -3.6930 C.2     1  UNL1        0.0010
     36  C         19.0960  -21.0420   -4.9460 C.2     1  UNL1        0.0010
     37  C         18.5250  -21.7890   -5.9800 C.2     1  UNL1        0.0140
@<TRIPOS>BOND
     1    19    20    2
     2    19    18    1
     3    20    21    1
     4    18    17    2
     5    21    22    1
     6    21    16    2
     7    17    16    1
     8    16    14    1
     9    15    14    1
    10    14    11    1
    11     1     2    1
    12     4     3    2
    13     2     3   am
    14     2    23    1
    15     3     5    1
    16    13    11    2
    17    10     5    2
    18    10     9    1
    19    11     9    1
    20    11    12    2
    21    23    24    1
    22     5     6    1
    23     9     8    2
    24    25    24    2
    25     6     7    2
    26    24    26   am
    27     8     7    1
    28    27    26    1
    29    26    28    1
    30    28    29    2
    31    28    34    1
    32    29    30    1
    33    37    34    1
    34    37    36    2
    35    34    32    2
    36    30    31    2
    37    36    35    1
    38    32    31    1
    39    32    33    1
    40    35    33    2
