@<TRIPOS>MOLECULE
17504_out_ligand_01.pdbqt
 36 39 0 0 0
SMALL
GASTEIGER

@<TRIPOS>ATOM
      1  C         16.9520  -22.1890  -10.6290 C.3     1  UNL1        0.1530
      2  N         18.3940  -22.3800  -10.7370 N.am    1  UNL1       -0.3440
      3  C         19.1680  -21.3410  -11.2540 C.2     1  UNL1        0.2530
      4  O         18.7010  -20.3110  -11.7290 O.2     1  UNL1       -0.2670
      5  C         20.6370  -21.4860  -11.2420 C.2     1  UNL1        0.0320
      6  C         21.3060  -21.6410  -12.4610 C.2     1  UNL1        0.0180
      7  C         22.6960  -21.7620  -12.4690 C.2     1  UNL1        0.0260
      8  C         23.3990  -21.7330  -11.2560 C.2     1  UNL1        0.0740
      9  C         22.7250  -21.6080  -10.0360 C.2     1  UNL1        0.0260
     10  C         21.3350  -21.4900  -10.0290 C.2     1  UNL1        0.0180
     11  S         25.1710  -21.8860  -11.2890 S.O2    1  UNL1        0.2450
     12  O         25.4820  -23.2470  -10.9170 O.2     1  UNL1       -0.2060
     13  O         25.7300  -20.7430  -10.5990 O.2     1  UNL1       -0.2060
     14  N         25.4650  -21.6380  -12.9540 N.pl3   1  UNL1       -0.1810
     15  H         26.2350  -20.9690  -13.0260 H       1  UNL1        0.1460
     16  C         25.7780  -22.8410  -13.6700 C.2     1  UNL1        0.0220
     17  C         26.8510  -23.6380  -13.2680 C.2     1  UNL1        0.0240
     18  C         27.1200  -24.8320  -13.9420 C.2     1  UNL1        0.0020
     19  C         26.3100  -25.2320  -15.0060 C.2     1  UNL1        0.0000
     20  C         25.2290  -24.4410  -15.3960 C.2     1  UNL1        0.0020
     21  C         24.9600  -23.2470  -14.7250 C.2     1  UNL1        0.0240
     22  C         18.9470  -23.6120  -10.1430 C.3     1  UNL1        0.2280
     23  C         19.1040  -23.5490   -8.6110 C.2     1  UNL1        0.2400
     24  O         19.7910  -24.3830   -8.0280 O.2     1  UNL1       -0.2710
     25  N         18.4080  -22.5010   -8.0390 N.am    1  UNL1       -0.3250
     26  H         17.9060  -21.9350   -8.7070 H       1  UNL1        0.1690
     27  C         18.2910  -22.1340   -6.6770 C.2     1  UNL1        0.0450
     28  C         19.2390  -21.3030   -6.0680 C.2     1  UNL1        0.0300
     29  C         19.1140  -20.9370   -4.7310 C.2     1  UNL1        0.0030
     30  C         18.0400  -21.3970   -3.9800 C.2     1  UNL1        0.0120
     31  C         17.0720  -22.2330   -4.5520 C.2     1  UNL1       -0.0240
     32  C         16.0010  -22.6840   -3.7620 C.2     1  UNL1        0.0120
     33  C         17.1790  -22.6230   -5.9140 C.2     1  UNL1        0.0010
     34  C         15.0220  -23.5240   -4.2880 C.2     1  UNL1        0.0010
     35  C         15.1040  -23.9270   -5.6120 C.2     1  UNL1        0.0010
     36  C         16.1620  -23.4840   -6.4120 C.2     1  UNL1        0.0140
@<TRIPOS>BOND
     1    20    19    2
     2    20    21    1
     3    19    18    1
     4    21    16    2
     5    18    17    2
     6    16    17    1
     7    16    14    1
     8    15    14    1
     9    14    11    1
    10     7     6    1
    11     7     8    2
    12     6     5    2
    13     4     3    2
    14    11     8    1
    15    11    12    2
    16    11    13    2
    17     8     9    1
    18     3     5    1
    19     3     2   am
    20     5    10    1
    21     2     1    1
    22     2    22    1
    23    22    23    1
    24     9    10    2
    25    26    25    1
    26    23    25   am
    27    23    24    2
    28    25    27    1
    29    27    28    2
    30    27    33    1
    31    36    33    1
    32    36    35    2
    33    28    29    1
    34    33    31    2
    35    35    34    1
    36    29    30    2
    37    31    30    1
    38    31    32    1
    39    34    32    2
