@<TRIPOS>MOLECULE
17539_out_ligand_01.pdbqt
 37 40 0 0 0
SMALL
GASTEIGER

@<TRIPOS>ATOM
      1  C         17.0170  -21.9930  -10.6420 C.3     1  UNL1        0.1530
      2  N         18.4630  -22.1410  -10.5620 N.am    1  UNL1       -0.3440
      3  C         19.2580  -21.2250  -11.2570 C.2     1  UNL1        0.2530
      4  O         18.8110  -20.2620  -11.8720 O.2     1  UNL1       -0.2670
      5  C         20.7190  -21.4290  -11.2720 C.2     1  UNL1        0.0320
      6  C         21.3890  -21.7010  -12.4700 C.2     1  UNL1        0.0180
      7  C         22.7800  -21.8200  -12.4670 C.2     1  UNL1        0.0260
      8  C         23.4810  -21.6800  -11.2620 C.2     1  UNL1        0.0740
      9  C         22.8050  -21.4660  -10.0540 C.2     1  UNL1        0.0260
     10  C         21.4160  -21.3430  -10.0600 C.2     1  UNL1        0.0180
     11  S         25.2570  -21.7700  -11.2510 S.O2    1  UNL1        0.2450
     12  O         25.6530  -23.0600  -10.7340 O.2     1  UNL1       -0.2060
     13  O         25.7320  -20.5390  -10.6580 O.2     1  UNL1       -0.2060
     14  N         25.6240  -21.6770  -12.9010 N.pl3   1  UNL1       -0.1780
     15  H         26.3280  -20.9410  -13.0490 H       1  UNL1        0.1460
     16  C         25.8810  -22.9030  -13.5920 C.2     1  UNL1        0.0610
     17  C         26.8780  -23.7790  -13.1660 C.2     1  UNL1        0.0270
     18  C         27.1200  -24.9540  -13.8820 C.2     1  UNL1        0.0020
     19  C         26.3690  -25.2560  -15.0230 C.2     1  UNL1        0.0030
     20  C         25.3700  -24.3820  -15.4500 C.2     1  UNL1        0.0440
     21  C         25.1340  -23.2100  -14.7330 C.2     1  UNL1        0.1380
     22  F         24.1580  -22.3800  -15.1350 F       1  UNL1       -0.2040
     23  C         18.9620  -23.4180  -10.0150 C.3     1  UNL1        0.2280
     24  C         18.9570  -23.4830   -8.4770 C.2     1  UNL1        0.2400
     25  O         19.3710  -24.4790   -7.9010 O.2     1  UNL1       -0.2710
     26  N         18.4500  -22.3390   -7.8940 N.am    1  UNL1       -0.3250
     27  H         18.2030  -21.6200   -8.5620 H       1  UNL1        0.1690
     28  C         18.2570  -22.0370   -6.5250 C.2     1  UNL1        0.0450
     29  C         19.1670  -21.2320   -5.8270 C.2     1  UNL1        0.0300
     30  C         18.9860  -20.9620   -4.4730 C.2     1  UNL1        0.0030
     31  C         17.8910  -21.4910   -3.7980 C.2     1  UNL1        0.0120
     32  C         16.9530  -22.2900   -4.4640 C.2     1  UNL1       -0.0240
     33  C         15.8510  -22.7960   -3.7530 C.2     1  UNL1        0.0120
     34  C         17.1170  -22.5790   -5.8450 C.2     1  UNL1        0.0010
     35  C         14.8910  -23.5830   -4.3820 C.2     1  UNL1        0.0010
     36  C         15.0210  -23.8780   -5.7300 C.2     1  UNL1        0.0010
     37  C         16.1140  -23.3880   -6.4490 C.2     1  UNL1        0.0140
@<TRIPOS>BOND
     1    20    19    2
     2    20    21    1
     3    22    21    1
     4    19    18    1
     5    21    16    2
     6    18    17    2
     7    16    17    1
     8    16    14    1
     9    15    14    1
    10    14    11    1
    11     6     7    1
    12     6     5    2
    13     7     8    2
    14     4     3    2
    15     5     3    1
    16     5    10    1
    17     8    11    1
    18     8     9    1
    19     3     2   am
    20    11    12    2
    21    11    13    2
    22     1     2    1
    23     2    23    1
    24    10     9    2
    25    23    24    1
    26    27    26    1
    27    24    25    2
    28    24    26   am
    29    26    28    1
    30    28    34    2
    31    28    29    1
    32    37    34    1
    33    37    36    2
    34    34    32    1
    35    29    30    2
    36    36    35    1
    37    30    31    1
    38    32    31    2
    39    32    33    1
    40    35    33    2
