@<TRIPOS>MOLECULE
1753_out_ligand_01.pdbqt
 30 33 0 0 0
SMALL
GASTEIGER

@<TRIPOS>ATOM
      1  C         22.7820  -22.8990   -8.9370 C.2     1  UNL1        0.0340
      2  C         21.9580  -24.0000   -9.2030 C.2     1  UNL1        0.0300
      3  C         20.6870  -24.1000   -8.6260 C.2     1  UNL1        0.0160
      4  C         20.2180  -23.1030   -7.7620 C.2     1  UNL1       -0.0090
      5  C         21.0370  -21.9940   -7.5090 C.2     1  UNL1        0.0160
      6  C         22.3080  -21.8930   -8.0920 C.2     1  UNL1        0.0300
      7  N         24.0530  -22.8860   -9.5420 N.am    1  UNL1       -0.3270
      8  C         24.3510  -22.8740  -10.8970 C.2     1  UNL1        0.2260
      9  O         23.5470  -22.9170  -11.8220 O.2     1  UNL1       -0.2730
     10  H         24.8420  -22.8770   -8.9040 H       1  UNL1        0.1690
     11  C         25.8470  -22.8110  -11.1670 C.3     1  UNL1        0.1410
     12  C         26.2580  -21.5150  -11.8200 C.2     1  UNL1       -0.0470
     13  C         26.4340  -20.3620  -11.0450 C.2     1  UNL1        0.0070
     14  C         26.8290  -19.1640  -11.6440 C.2     1  UNL1        0.0030
     15  C         27.0640  -19.1100  -13.0220 C.2     1  UNL1        0.0370
     16  C         26.9080  -20.2550  -13.8060 C.2     1  UNL1        0.0680
     17  C         26.5000  -21.4500  -13.2010 C.2     1  UNL1        0.0440
     18  O         27.1210  -20.3450  -15.1570 O.2     1  UNL1       -0.3560
     19  C         26.0210  -20.7820  -15.9490 C.3     1  UNL1        0.2100
     20  C         18.9020  -23.2300   -7.1410 C.2     1  UNL1        0.0430
     21  C         17.8390  -24.0660   -7.4430 C.2     1  UNL1        0.0440
     22  C         16.7950  -23.8250   -6.5090 C.2     1  UNL1       -0.0040
     23  C         15.5070  -24.3610   -6.3210 C.2     1  UNL1        0.0560
     24  C         17.2500  -22.8350   -5.6360 C.2     1  UNL1        0.0430
     25  C         14.7350  -23.8810   -5.2640 C.2     1  UNL1        0.1170
     26  F         13.5060  -24.3860   -5.0760 F       1  UNL1       -0.2060
     27  C         15.2050  -22.8960   -4.4010 C.2     1  UNL1        0.0440
     28  C         16.4800  -22.3490   -4.5710 C.2     1  UNL1        0.0330
     29  N         18.5200  -22.4900   -6.0420 N.pl3   1  UNL1       -0.3550
     30  H         19.1060  -21.8110   -5.5750 H       1  UNL1        0.1660
@<TRIPOS>BOND
     1    19    18    1
     2    18    16    1
     3    16    17    1
     4    16    15    2
     5    17    12    2
     6    15    14    1
     7     9     8    2
     8    12    11    1
     9    12    13    1
    10    14    13    2
    11    11     8    1
    12     8     7   am
    13     7     1    1
    14     7    10    1
    15     2     1    2
    16     2     3    1
    17     1     6    1
    18     3     4    2
    19     6     5    2
    20     4     5    1
    21     4    20    1
    22    21    20    2
    23    21    22    1
    24    20    29    1
    25    22    23    2
    26    22    24    1
    27    23    25    1
    28    29    24    1
    29    29    30    1
    30    24    28    2
    31    25    26    1
    32    25    27    2
    33    28    27    1
