@<TRIPOS>MOLECULE
17548_out_ligand_01.pdbqt
 35 38 0 0 0
SMALL
GASTEIGER

@<TRIPOS>ATOM
      1  C         17.4600  -22.5690  -10.0530 C.2     1  UNL1        0.0810
      2  C         17.1770  -21.5810  -10.9960 C.2     1  UNL1        0.0270
      3  C         18.2190  -21.0270  -11.7410 C.2     1  UNL1        0.0260
      4  C         19.5380  -21.4630  -11.5530 C.2     1  UNL1        0.0490
      5 CL         20.7570  -20.6700  -12.4870 Cl      1  UNL1       -0.0830
      6  C         19.8170  -22.4720  -10.6180 C.2     1  UNL1        0.0550
      7  C         18.7680  -23.0220   -9.8630 C.2     1  UNL1        0.0440
      8  C         21.1750  -22.9970  -10.3270 C.2     1  UNL1        0.2530
      9  O         21.3270  -23.7660   -9.3840 O.2     1  UNL1       -0.2680
     10  N         22.1870  -22.6170  -11.1760 N.am    1  UNL1       -0.3530
     11  H         22.0140  -21.8760  -11.8430 H       1  UNL1        0.1630
     12  C         23.5700  -22.9330  -10.8980 C.3     1  UNL1        0.1610
     13  C         24.4820  -21.9610  -11.6000 C.2     1  UNL1       -0.0380
     14  C         25.4830  -21.2870  -10.8840 C.2     1  UNL1        0.0120
     15  C         26.3040  -20.3530  -11.5190 C.2     1  UNL1        0.0400
     16  C         26.1230  -20.0760  -12.8720 C.2     1  UNL1        0.1020
     17  C         25.1400  -20.7550  -13.5990 C.2     1  UNL1        0.1020
     18  O         26.9490  -19.1310  -13.4240 O.2     1  UNL1       -0.3460
     19  C         24.3120  -21.6790  -12.9640 C.2     1  UNL1        0.0480
     20  O         24.9230  -20.5540  -14.9380 O.2     1  UNL1       -0.3460
     21  C         26.0220  -19.8640  -15.5450 C.3     1  UNL1        0.2020
     22  C         26.4540  -18.6840  -14.6900 C.3     1  UNL1        0.2020
     23  S         16.1460  -23.2800   -9.0900 S.O2    1  UNL1        0.2630
     24  O         15.4870  -24.2560   -9.9320 O.2     1  UNL1       -0.2000
     25  O         15.3970  -22.2100   -8.4670 O.2     1  UNL1       -0.2000
     26  N         16.9850  -24.1480   -7.9120 N.pl3   1  UNL1       -0.2810
     27  H         16.6300  -25.0990   -7.8200 H       1  UNL1        0.1790
     28  C         17.3640  -23.4680   -6.7240 C.2     1  UNL1        0.0430
     29  C         16.7280  -23.7440   -5.5200 C.2     1  UNL1        0.0300
     30  C         17.0940  -23.0420   -4.3700 C.2     1  UNL1        0.0090
     31  C         18.0970  -22.0610   -4.4140 C.2     1  UNL1       -0.0560
     32  C         18.4640  -21.3270   -3.1530 C.3     1  UNL1        0.0490
     33  C         18.7440  -21.7880   -5.6380 C.2     1  UNL1       -0.0540
     34  C         18.3630  -22.4980   -6.7870 C.2     1  UNL1        0.0370
     35  C         19.8270  -20.7500   -5.7400 C.3     1  UNL1        0.0490
@<TRIPOS>BOND
     1    21    20    1
     2    21    22    1
     3    20    17    1
     4    22    18    1
     5    17    19    1
     6    17    16    2
     7    18    16    1
     8    19    13    2
     9    16    15    1
    10     5     4    1
    11    11    10    1
    12     3     4    2
    13     3     2    1
    14    13    12    1
    15    13    14    1
    16     4     6    1
    17    15    14    2
    18    10    12    1
    19    10     8   am
    20     2     1    2
    21     6     8    1
    22     6     7    2
    23     8     9    2
    24     1     7    1
    25     1    23    1
    26    24    23    2
    27    23    25    2
    28    23    26    1
    29    26    27    1
    30    26    28    1
    31    34    28    2
    32    34    33    1
    33    28    29    1
    34    35    33    1
    35    33    31    2
    36    29    30    2
    37    31    30    1
    38    31    32    1
