@<TRIPOS>MOLECULE
17549_out_ligand_01.pdbqt
 28 30 0 0 0
SMALL
GASTEIGER

@<TRIPOS>ATOM
      1  N         18.7700  -22.3600   -7.8290 N.am    1  UNL1       -0.3220
      2  C         18.2230  -23.5190   -7.3080 C.2     1  UNL1        0.2580
      3  O         18.4490  -24.6630   -7.6870 O.2     1  UNL1       -0.2670
      4  H         18.4970  -21.5020   -7.3520 H       1  UNL1        0.1690
      5  C         19.6670  -22.2210   -8.9130 C.2     1  UNL1        0.0440
      6  C         21.0580  -22.3080   -8.7570 C.2     1  UNL1        0.0470
      7  C         21.9200  -22.1550   -9.8540 C.2     1  UNL1        0.0360
      8  C         21.3950  -21.9370  -11.1250 C.2     1  UNL1        0.0600
      9  C         20.0190  -21.8600  -11.2840 C.2     1  UNL1        0.1250
     10  C         19.1370  -21.9960  -10.2020 C.2     1  UNL1        0.0030
     11  F         19.5380  -21.6520  -12.5180 F       1  UNL1       -0.2050
     12  C         17.6580  -21.8980  -10.4600 C.3     1  UNL1        0.0540
     13  C         23.3850  -22.2620   -9.6350 C.2     1  UNL1        0.2490
     14  N         23.8650  -23.4760   -9.2220 N.am    1  UNL1       -0.3660
     15  H         24.8730  -23.5620   -9.2160 H       1  UNL1        0.1590
     16  H         23.3300  -24.3260   -9.3320 H       1  UNL1        0.1590
     17  O         24.1430  -21.3250   -9.8380 O.2     1  UNL1       -0.2680
     18  C         17.2810  -23.3390   -6.1690 C.2     1  UNL1        0.0660
     19  C         16.0500  -24.0200   -6.1690 C.2     1  UNL1        0.0610
     20  C         15.1550  -23.8650   -5.1150 C.2     1  UNL1        0.1190
     21  F         13.9920  -24.5270   -5.1460 F       1  UNL1       -0.2060
     22  C         15.4280  -23.0410   -4.0220 C.2     1  UNL1        0.0740
     23  C         16.6550  -22.3740   -4.0380 C.2     1  UNL1        0.0660
     24  N         17.2420  -21.5050   -3.1540 N.pl3   1  UNL1       -0.3490
     25  C         17.5790  -22.5020   -5.0740 C.2     1  UNL1        0.1000
     26  C         18.4590  -21.1470   -3.6600 C.2     1  UNL1        0.2080
     27  H         16.8450  -21.1840   -2.2810 H       1  UNL1        0.1670
     28  N         18.6970  -21.7280   -4.8130 N.2     1  UNL1       -0.2410
@<TRIPOS>BOND
     1    11     9    1
     2     9     8    2
     3     9    10    1
     4     8     7    1
     5    12    10    1
     6    10     5    2
     7     7    13    1
     8     7     6    2
     9    17    13    2
    10    13    14   am
    11    16    14    1
    12    14    15    1
    13     5     6    1
    14     5     1    1
    15     1     4    1
    16     1     2   am
    17     3     2    2
    18     2    18    1
    19    18    19    2
    20    18    25    1
    21    19    20    1
    22    21    20    1
    23    20    22    2
    24    25    28    1
    25    25    23    2
    26    28    26    2
    27    23    22    1
    28    23    24    1
    29    26    24    1
    30    24    27    1
