@<TRIPOS>MOLECULE
17558_out_ligand_01.pdbqt
 31 33 0 0 0
SMALL
GASTEIGER

@<TRIPOS>ATOM
      1  C         18.8960  -23.1230   -9.1190 C.2     1  UNL1        0.0790
      2  C         19.2080  -22.2410  -10.1580 C.2     1  UNL1        0.0260
      3  C         20.5470  -21.9800  -10.4560 C.2     1  UNL1        0.0180
      4  C         21.5710  -22.5920   -9.7190 C.2     1  UNL1        0.0320
      5  C         21.2460  -23.4510   -8.6590 C.2     1  UNL1        0.0180
      6  C         19.9070  -23.7180   -8.3580 C.2     1  UNL1        0.0260
      7  S         17.1960  -23.4490   -8.7170 S.O2    1  UNL1        0.2630
      8  O         17.1330  -24.6130   -7.8610 O.2     1  UNL1       -0.2000
      9  O         16.4490  -23.3960   -9.9570 O.2     1  UNL1       -0.2000
     10  N         16.7510  -22.0670   -7.8530 N.pl3   1  UNL1       -0.2800
     11  H         16.0530  -21.5230   -8.3570 H       1  UNL1        0.1790
     12  C         16.6000  -22.1770   -6.4400 C.2     1  UNL1        0.0490
     13  C         15.3530  -22.5810   -5.9560 C.2     1  UNL1        0.0310
     14  C         15.1270  -22.6770   -4.5870 C.2     1  UNL1        0.0030
     15  C         16.1520  -22.3730   -3.6960 C.2     1  UNL1        0.0070
     16  C         17.4150  -21.9710   -4.1610 C.2     1  UNL1       -0.0540
     17  C         18.4850  -21.6410   -3.1530 C.3     1  UNL1        0.0490
     18  C         17.6470  -21.8570   -5.5540 C.2     1  UNL1       -0.0290
     19  C         18.9990  -21.4070   -6.0450 C.3     1  UNL1        0.0510
     20  C         22.9860  -22.2810  -10.0760 C.2     1  UNL1        0.2520
     21  O         23.5150  -21.2630   -9.6470 O.2     1  UNL1       -0.2680
     22  N         23.6070  -23.1730  -10.9240 N.am    1  UNL1       -0.3470
     23  H         23.0030  -23.7470  -11.4970 H       1  UNL1        0.1630
     24  C         24.9150  -22.8850  -11.5110 C.3     1  UNL1        0.1330
     25  C         26.0570  -23.6110  -10.7900 C.3     1  UNL1        0.0390
     26  C         24.8770  -23.2000  -13.0030 C.2     1  UNL1        0.0560
     27  C         24.4720  -22.2520  -13.9450 C.2     1  UNL1        0.0290
     28  C         24.5110  -22.5780  -15.2990 C.2     1  UNL1        0.0030
     29  C         24.9630  -23.8330  -15.6840 C.2     1  UNL1        0.0190
     30  C         25.3680  -24.7120  -14.6950 C.2     1  UNL1        0.1170
     31  N         25.3460  -24.4190  -13.3760 N.2     1  UNL1       -0.2630
@<TRIPOS>BOND
     1    29    28    2
     2    29    30    1
     3    28    27    1
     4    30    31    2
     5    27    26    2
     6    31    26    1
     7    26    24    1
     8    24    22    1
     9    24    25    1
    10    23    22    1
    11    22    20   am
    12     3     2    1
    13     3     4    2
    14     2     1    2
    15    20     4    1
    16    20    21    2
    17     9     7    2
    18     4     5    1
    19     1     7    1
    20     1     6    1
    21     7     8    2
    22     7    10    1
    23     5     6    2
    24    11    10    1
    25    10    12    1
    26    12    13    2
    27    12    18    1
    28    19    18    1
    29    13    14    1
    30    18    16    2
    31    14    15    2
    32    16    15    1
    33    16    17    1
