@<TRIPOS>MOLECULE
17556_out_ligand_01.pdbqt
 34 37 0 0 0
SMALL
GASTEIGER

@<TRIPOS>ATOM
      1  C         18.1430  -23.0640   -6.2810 C.2     1  UNL1        0.0860
      2  C         19.2990  -23.1490   -7.0770 C.2     1  UNL1        0.0420
      3  C         20.2680  -22.1430   -7.0310 C.2     1  UNL1        0.0330
      4  C         20.0820  -21.0460   -6.1900 C.2     1  UNL1        0.0170
      5  C         18.9220  -20.9490   -5.4160 C.2     1  UNL1        0.0090
      6  C         17.9310  -21.9490   -5.4490 C.2     1  UNL1       -0.0390
      7  C         16.7160  -21.7630   -4.5850 C.3     1  UNL1        0.0500
      8  C         21.4940  -22.3140   -7.8540 C.2     1  UNL1        0.2510
      9  O         22.4250  -21.5280   -7.7200 O.2     1  UNL1       -0.2680
     10  N         21.5040  -23.3840   -8.7190 N.am    1  UNL1       -0.3530
     11  H         20.7730  -24.0790   -8.6670 H       1  UNL1        0.1630
     12  C         22.6730  -23.7190   -9.5040 C.3     1  UNL1        0.1610
     13  C         22.7140  -22.8950  -10.7640 C.2     1  UNL1       -0.0380
     14  C         21.5330  -22.4250  -11.3580 C.2     1  UNL1        0.0120
     15  C         21.5810  -21.6760  -12.5370 C.2     1  UNL1        0.0400
     16  C         22.8080  -21.3980  -13.1350 C.2     1  UNL1        0.1020
     17  C         23.9920  -21.8440  -12.5410 C.2     1  UNL1        0.1020
     18  O         22.7760  -20.6770  -14.3000 O.2     1  UNL1       -0.3460
     19  C         23.9450  -22.5990  -11.3700 C.2     1  UNL1        0.0480
     20  O         25.2350  -21.5840  -13.0570 O.2     1  UNL1       -0.3460
     21  C         25.1870  -20.5340  -14.0280 C.3     1  UNL1        0.2020
     22  C         24.0300  -20.7460  -14.9900 C.3     1  UNL1        0.2020
     23  S         17.0130  -24.4490   -6.4130 S.O2    1  UNL1        0.2630
     24  O         17.7320  -25.6470   -6.7860 O.2     1  UNL1       -0.2000
     25  O         16.1850  -24.4230   -5.2250 O.2     1  UNL1       -0.2000
     26  N         16.0100  -23.9960   -7.6960 N.pl3   1  UNL1       -0.2810
     27  H         15.0700  -23.7620   -7.3810 H       1  UNL1        0.1790
     28  C         16.5530  -23.2510   -8.7800 C.2     1  UNL1        0.0420
     29  C         17.5840  -23.7670   -9.5610 C.2     1  UNL1        0.0300
     30  C         18.1190  -23.0050  -10.6020 C.2     1  UNL1        0.0090
     31  C         17.6200  -21.7260  -10.8750 C.2     1  UNL1       -0.0620
     32  C         18.2200  -20.8990  -11.9730 C.3     1  UNL1        0.0480
     33  C         16.5900  -21.2130  -10.0790 C.2     1  UNL1        0.0090
     34  C         16.0530  -21.9750   -9.0390 C.2     1  UNL1        0.0300
@<TRIPOS>BOND
     1    22    18    1
     2    22    21    1
     3    18    16    1
     4    21    20    1
     5    16    17    2
     6    16    15    1
     7    20    17    1
     8    17    19    1
     9    15    14    2
    10    32    31    1
    11    19    13    2
    12    14    13    1
    13    31    30    2
    14    31    33    1
    15    13    12    1
    16    30    29    1
    17    33    34    2
    18    29    28    2
    19    12    10    1
    20    34    28    1
    21    28    26    1
    22    10    11    1
    23    10     8   am
    24     8     9    2
    25     8     3    1
    26    26    27    1
    27    26    23    1
    28     2     3    1
    29     2     1    2
    30     3     4    2
    31    24    23    2
    32    23     1    1
    33    23    25    2
    34     1     6    1
    35     4     5    1
    36     6     5    2
    37     6     7    1
