@<TRIPOS>MOLECULE
17559_out_ligand_01.pdbqt
 39 41 0 0 0
SMALL
GASTEIGER

@<TRIPOS>ATOM
      1  C         23.1090  -22.6670  -11.3910 C.2     1  UNL1        0.0380
      2  C         24.2720  -22.2230  -12.0260 C.2     1  UNL1        0.0610
      3  C         24.1910  -21.4830  -13.2140 C.2     1  UNL1        0.1040
      4  C         22.9550  -21.1180  -13.7500 C.2     1  UNL1        0.0380
      5  C         21.7890  -21.4850  -13.0790 C.2     1  UNL1        0.0340
      6  C         21.8480  -22.2300  -11.8900 C.2     1  UNL1        0.0540
      7  N         23.1210  -23.4370  -10.2020 N.pl3   1  UNL1       -0.2820
      8  H         24.0690  -23.8210  -10.1030 H       1  UNL1        0.1280
      9  C         22.7290  -22.8130   -8.9280 C.3     1  UNL1        0.1950
     10  C         21.4120  -23.4040   -8.3930 C.2     1  UNL1        0.2350
     11  N         20.6870  -22.5100   -7.6210 N.am    1  UNL1       -0.3260
     12  H         21.0720  -21.5810   -7.5040 H       1  UNL1        0.1690
     13  O         21.1090  -24.5680   -8.6410 O.2     1  UNL1       -0.2720
     14  C         19.4870  -22.7560   -6.9200 C.2     1  UNL1        0.0340
     15  C         18.7640  -23.9470   -6.9950 C.2     1  UNL1        0.0300
     16  C         17.5860  -24.1080   -6.2550 C.2     1  UNL1        0.0190
     17  C         17.1210  -23.0840   -5.4240 C.2     1  UNL1        0.0320
     18  C         17.8340  -21.8820   -5.3560 C.2     1  UNL1        0.0190
     19  C         19.0100  -21.7240   -6.0980 C.2     1  UNL1        0.0300
     20  C         15.8630  -23.3040   -4.6610 C.2     1  UNL1        0.2490
     21  N         15.0670  -22.2170   -4.4250 N.am    1  UNL1       -0.3660
     22  H         14.2880  -22.3760   -3.7970 H       1  UNL1        0.1590
     23  H         15.4140  -21.2710   -4.4920 H       1  UNL1        0.1590
     24  O         15.5560  -24.4090   -4.2310 O.2     1  UNL1       -0.2680
     25  N         20.6870  -22.5980  -11.1640 N.pl3   1  UNL1       -0.3550
     26  H         20.9520  -23.1200  -10.3300 H       1  UNL1        0.1660
     27  C         19.4090  -22.0170  -11.1120 C.2     1  UNL1        0.0330
     28  C         19.1020  -20.8300  -11.7870 C.2     1  UNL1        0.0290
     29  C         17.8260  -20.2680  -11.7100 C.2     1  UNL1        0.0030
     30  C         16.8360  -20.8860  -10.9500 C.2     1  UNL1        0.0160
     31  C         17.1150  -22.0720  -10.2590 C.2     1  UNL1        0.0500
     32  C         18.4020  -22.6300  -10.3560 C.2     1  UNL1        0.0450
     33  C         16.0500  -22.7640   -9.4470 C.3     1  UNL1        0.4170
     34  F         15.9090  -22.2360   -8.1980 F       1  UNL1       -0.1660
     35  F         16.3150  -24.0880   -9.2640 F       1  UNL1       -0.1660
     36  F         14.8130  -22.7040  -10.0150 F       1  UNL1       -0.1660
     37  N         25.4280  -21.1030  -13.9040 N.pl3   1  UNL1       -0.1160
     38  O         26.4620  -21.7260  -13.6240 O.2     1  UNL1       -0.5320
     39  O         25.3650  -20.1710  -14.7230 O.2     1  UNL1       -0.5320
@<TRIPOS>BOND
     1    39    37    2
     2    37    38    2
     3    37     3    1
     4     4     3    2
     5     4     5    1
     6     3     2    1
     7     5     6    2
     8     2     1    2
     9     6     1    1
    10     6    25    1
    11    28    29    1
    12    28    27    2
    13    29    30    2
    14     1     7    1
    15    25    27    1
    16    25    26    1
    17    27    32    1
    18    30    31    1
    19    32    31    2
    20    31    33    1
    21     7     8    1
    22     7     9    1
    23    36    33    1
    24    33    35    1
    25    33    34    1
    26     9    10    1
    27    13    10    2
    28    10    11   am
    29    11    12    1
    30    11    14    1
    31    15    14    2
    32    15    16    1
    33    14    19    1
    34    16    17    2
    35    19    18    2
    36    17    18    1
    37    17    20    1
    38    20    21   am
    39    20    24    2
    40    23    21    1
    41    21    22    1
