@<TRIPOS>MOLECULE
17561_out_ligand_01.pdbqt
 34 36 0 0 0
SMALL
GASTEIGER

@<TRIPOS>ATOM
      1  C         19.8000  -22.8290  -10.0950 C.2     1  UNL1        0.0420
      2  C         18.9030  -23.3530   -9.1600 C.2     1  UNL1        0.0550
      3  C         17.5700  -22.9240   -9.1400 C.2     1  UNL1        0.0820
      4  C         17.0970  -22.0160  -10.0820 C.2     1  UNL1        0.0260
      5  C         17.9750  -21.5120  -11.0380 C.2     1  UNL1        0.0100
      6  C         19.3260  -21.9030  -11.0540 C.2     1  UNL1       -0.0350
      7  C         20.2240  -21.3070  -12.1100 C.3     1  UNL1        0.0500
      8  N         21.1690  -23.1780  -10.1110 N.am    1  UNL1       -0.3260
      9  C         22.1610  -22.8130   -9.2140 C.2     1  UNL1        0.2260
     10  O         22.0230  -22.0830   -8.2360 O.2     1  UNL1       -0.2730
     11  H         21.4630  -23.7830  -10.8660 H       1  UNL1        0.1690
     12  C         23.5450  -23.3480   -9.5710 C.3     1  UNL1        0.1410
     13  C         24.2160  -22.6450  -10.7290 C.2     1  UNL1       -0.0470
     14  C         24.8910  -21.4390  -10.5260 C.2     1  UNL1        0.0100
     15  C         25.5500  -20.8080  -11.5830 C.2     1  UNL1        0.0400
     16  C         25.5350  -21.3690  -12.8640 C.2     1  UNL1        0.1010
     17  C         24.8410  -22.5750  -13.0840 C.2     1  UNL1        0.1020
     18  C         24.1900  -23.2060  -12.0160 C.2     1  UNL1        0.0470
     19  O         26.1600  -20.8230  -13.9570 O.2     1  UNL1       -0.3530
     20  C         25.6950  -19.5630  -14.4180 C.3     1  UNL1        0.2100
     21  O         24.8760  -23.0680  -14.3640 O.2     1  UNL1       -0.3530
     22  C         25.4430  -24.3550  -14.5580 C.3     1  UNL1        0.2100
     23  S         16.4710  -23.5720   -7.9080 S.O2    1  UNL1        0.2630
     24  O         15.7670  -24.7100   -8.4520 O.2     1  UNL1       -0.2000
     25  O         15.7420  -22.4580   -7.3380 O.2     1  UNL1       -0.2000
     26  N         17.5340  -24.0840   -6.6910 N.pl3   1  UNL1       -0.2810
     27  H         18.3300  -24.5730   -7.1000 H       1  UNL1        0.1790
     28  C         17.7960  -23.1920   -5.6160 C.2     1  UNL1        0.0440
     29  C         17.4550  -23.5400   -4.3100 C.2     1  UNL1        0.0300
     30  C         17.7630  -22.6770   -3.2570 C.2     1  UNL1        0.0040
     31  C         18.4180  -21.4710   -3.5130 C.2     1  UNL1        0.0240
     32  C         18.7550  -21.1320   -4.8230 C.2     1  UNL1        0.0360
     33 CL         19.5750  -19.6510   -5.1380 Cl      1  UNL1       -0.0840
     34  C         18.4410  -21.9840   -5.8780 C.2     1  UNL1        0.0540
@<TRIPOS>BOND
     1    22    21    1
     2    20    19    1
     3    21    17    1
     4    19    16    1
     5    17    16    2
     6    17    18    1
     7    16    15    1
     8     7     6    1
     9    18    13    2
    10    15    14    2
    11     6     5    1
    12     6     1    2
    13     5     4    2
    14    11     8    1
    15    13    14    1
    16    13    12    1
    17     8     1    1
    18     8     9   am
    19     1     2    1
    20     4     3    1
    21    12     9    1
    22     9    10    2
    23     2     3    2
    24     3    23    1
    25    24    23    2
    26    23    25    2
    27    23    26    1
    28    27    26    1
    29    26    28    1
    30    34    28    2
    31    34    32    1
    32    28    29    1
    33    33    32    1
    34    32    31    2
    35    29    30    2
    36    31    30    1
