@<TRIPOS>MOLECULE
17566_out_ligand_01.pdbqt
 31 34 0 0 0
SMALL
GASTEIGER

@<TRIPOS>ATOM
      1  C         22.5160  -22.7320   -9.8680 C.2     1  UNL1        0.1180
      2  N         23.7860  -22.9750   -9.4630 N.2     1  UNL1       -0.2290
      3  C         24.8010  -22.7420  -10.3090 C.2     1  UNL1        0.2360
      4  N         24.7280  -22.2880  -11.5590 N.2     1  UNL1       -0.2340
      5  C         23.4590  -22.0490  -11.9400 C.2     1  UNL1        0.1130
      6  S         23.1390  -21.4650  -13.5100 S.3     1  UNL1       -0.0800
      7  C         21.4610  -21.3980  -13.2100 C.2     1  UNL1        0.0650
      8  C         21.1460  -21.8120  -11.9300 C.2     1  UNL1       -0.0030
      9  C         22.3130  -22.2230  -11.1750 C.2     1  UNL1        0.0510
     10  N         21.4640  -23.0230   -9.0010 N.pl3   1  UNL1       -0.2720
     11  H         20.5770  -23.0840   -9.4750 H       1  UNL1        0.1290
     12  C         21.4010  -22.2850   -7.7520 C.3     1  UNL1        0.1320
     13  C         20.0070  -22.4220   -7.1780 C.2     1  UNL1       -0.0450
     14  C         19.2320  -23.5520   -7.4730 C.2     1  UNL1        0.0100
     15  C         17.9810  -23.7240   -6.8810 C.2     1  UNL1        0.0250
     16  C         17.4990  -22.7600   -5.9950 C.2     1  UNL1        0.0740
     17  C         18.2630  -21.6310   -5.6830 C.2     1  UNL1        0.0250
     18  C         19.5160  -21.4680   -6.2720 C.2     1  UNL1        0.0100
     19  S         15.9210  -23.0070   -5.2190 S.O2    1  UNL1        0.2390
     20  O         14.9010  -22.4380   -6.0650 O.2     1  UNL1       -0.2060
     21  O         15.8570  -24.3680   -4.7460 O.2     1  UNL1       -0.2060
     22  N         16.0620  -22.0460   -3.8400 N.3     1  UNL1       -0.2250
     23  H         15.6850  -21.1180   -4.0450 H       1  UNL1        0.1360
     24  H         15.6190  -22.4540   -3.0130 H       1  UNL1        0.1360
     25  C         19.7640  -21.7670  -11.4830 C.2     1  UNL1       -0.0240
     26  C         19.0310  -20.5790  -11.5800 C.2     1  UNL1        0.0150
     27  C         17.6970  -20.5510  -11.1670 C.2     1  UNL1        0.0430
     28  C         17.1080  -21.7070  -10.6650 C.2     1  UNL1        0.1160
     29  F         15.8310  -21.6770  -10.2730 F       1  UNL1       -0.2060
     30  C         17.8260  -22.8930  -10.5650 C.2     1  UNL1        0.0430
     31  C         19.1600  -22.9240  -10.9740 C.2     1  UNL1        0.0150
@<TRIPOS>BOND
     1     6     7    1
     2     6     5    1
     3     7     8    2
     4     5     4    2
     5     5     9    1
     6     8    25    1
     7     8     9    1
     8    26    25    2
     9    26    27    1
    10     4     3    1
    11    25    31    1
    12     9     1    2
    13    27    28    2
    14    31    30    2
    15    28    30    1
    16    28    29    1
    17     3     2    2
    18     1     2    1
    19     1    10    1
    20    11    10    1
    21    10    12    1
    22    12    13    1
    23    14    13    2
    24    14    15    1
    25    13    18    1
    26    15    16    2
    27    18    17    2
    28    20    19    2
    29    16    17    1
    30    16    19    1
    31    19    21    2
    32    19    22    1
    33    23    22    1
    34    22    24    1
