@<TRIPOS>MOLECULE
17560_out_ligand_01.pdbqt
 35 38 0 0 0
SMALL
GASTEIGER

@<TRIPOS>ATOM
      1  C         17.9660  -21.9290   -5.3530 C.2     1  UNL1        0.0910
      2  C         18.9610  -20.9410   -5.3530 C.2     1  UNL1        0.0390
      3  C         20.0850  -21.0530   -6.1800 C.2     1  UNL1        0.0200
      4  C         20.2400  -22.1610   -7.0140 C.2     1  UNL1        0.0330
      5  C         19.2420  -23.1370   -7.0500 C.2     1  UNL1        0.0450
      6  C         18.1080  -23.0190   -6.2250 C.2     1  UNL1        0.1140
      7  C         21.4660  -22.2680   -7.8510 C.2     1  UNL1        0.2510
      8  O         22.3950  -21.4880   -7.6760 O.2     1  UNL1       -0.2680
      9  N         21.4760  -23.3030   -8.7620 N.am    1  UNL1       -0.3530
     10  H         20.7730  -24.0290   -8.6820 H       1  UNL1        0.1630
     11  C         22.6750  -23.6450   -9.4970 C.3     1  UNL1        0.1610
     12  C         22.7510  -22.8830  -10.7960 C.2     1  UNL1       -0.0380
     13  C         21.5900  -22.3450  -11.3760 C.2     1  UNL1        0.0120
     14  C         21.6560  -21.6350  -12.5790 C.2     1  UNL1        0.0400
     15  C         22.8880  -21.4430  -13.2020 C.2     1  UNL1        0.1020
     16  C         24.0590  -21.9290  -12.6040 C.2     1  UNL1        0.1020
     17  O         22.8780  -20.7560  -14.3910 O.2     1  UNL1       -0.3460
     18  C         23.9910  -22.6650  -11.4210 C.2     1  UNL1        0.0480
     19  O         25.3110  -21.7160  -13.1230 O.2     1  UNL1       -0.3460
     20  C         25.2880  -20.6690  -14.1030 C.3     1  UNL1        0.2020
     21  C         24.1300  -20.8710  -15.0730 C.3     1  UNL1        0.2020
     22  S         16.9050  -24.3380   -6.3080 S.O2    1  UNL1        0.2660
     23  O         16.0850  -24.3450   -5.1170 O.2     1  UNL1       -0.2000
     24  O         17.6370  -25.5350   -6.6860 O.2     1  UNL1       -0.2000
     25  N         15.9790  -23.9530   -7.6660 N.pl3   1  UNL1       -0.2810
     26  H         15.2980  -24.6730   -7.9020 H       1  UNL1        0.1790
     27  C         16.5590  -23.2110   -8.7290 C.2     1  UNL1        0.0420
     28  C         17.5860  -23.7600   -9.4940 C.2     1  UNL1        0.0300
     29  C         18.1400  -23.0300  -10.5480 C.2     1  UNL1        0.0090
     30  C         17.6700  -21.7430  -10.8430 C.2     1  UNL1       -0.0620
     31  C         18.2450  -20.9760  -11.9980 C.3     1  UNL1        0.0480
     32  C         16.6250  -21.2070  -10.0790 C.2     1  UNL1        0.0090
     33  C         16.0740  -21.9350   -9.0200 C.2     1  UNL1        0.0300
     34  O         16.8570  -21.8860   -4.5620 O.2     1  UNL1       -0.3540
     35  C         17.0160  -22.0130   -3.1540 C.3     1  UNL1        0.2100
@<TRIPOS>BOND
     1    21    17    1
     2    21    20    1
     3    17    15    1
     4    20    19    1
     5    15    16    2
     6    15    14    1
     7    19    16    1
     8    16    18    1
     9    14    13    2
    10    31    30    1
    11    18    12    2
    12    13    12    1
    13    30    29    2
    14    30    32    1
    15    12    11    1
    16    29    28    1
    17    32    33    2
    18    11     9    1
    19    28    27    2
    20    33    27    1
    21     9    10    1
    22     9     7   am
    23    27    25    1
    24    26    25    1
    25     7     8    2
    26     7     4    1
    27    25    22    1
    28     5     4    2
    29     5     6    1
    30     4     3    1
    31    24    22    2
    32    22     6    1
    33    22    23    2
    34     6     1    2
    35     3     2    2
    36     2     1    1
    37     1    34    1
    38    34    35    1
