@<TRIPOS>MOLECULE
17563_out_ligand_01.pdbqt
 36 39 0 0 0
SMALL
GASTEIGER

@<TRIPOS>ATOM
      1  C         17.2480  -21.0160  -11.7620 C.3     1  UNL1        0.1530
      2  N         18.2620  -21.7140  -10.9900 N.am    1  UNL1       -0.3440
      3  C         19.5770  -21.2540  -11.0850 C.2     1  UNL1        0.2530
      4  O         19.9190  -20.2340  -11.6750 O.2     1  UNL1       -0.2670
      5  C         20.6320  -22.0450  -10.4280 C.2     1  UNL1        0.0340
      6  C         20.4150  -22.5150   -9.1310 C.2     1  UNL1        0.0170
      7  C         21.4170  -23.2430   -8.5000 C.2     1  UNL1        0.0030
      8  C         22.6270  -23.4800   -9.1600 C.2     1  UNL1        0.0300
      9  C         22.8450  -22.9970  -10.4580 C.2     1  UNL1        0.0430
     10  C         21.8230  -22.3160  -11.1120 C.2     1  UNL1        0.0470
     11  N         24.0980  -23.3040  -11.0640 N.pl3   1  UNL1       -0.2810
     12  H         24.4350  -24.2650  -11.0340 H       1  UNL1        0.1790
     13  S         25.3310  -22.1890  -11.2860 S.O2    1  UNL1        0.2630
     14  O         26.6090  -22.8590  -11.1720 O.2     1  UNL1       -0.2000
     15  O         25.0030  -21.0510  -10.4550 O.2     1  UNL1       -0.2000
     16  C         25.1300  -21.6640  -12.9750 C.2     1  UNL1        0.0790
     17  C         25.6270  -20.4160  -13.3650 C.2     1  UNL1        0.0250
     18  C         25.4690  -19.9990  -14.6850 C.2     1  UNL1        0.0020
     19  C         24.8370  -20.8300  -15.6140 C.2     1  UNL1        0.0000
     20  C         24.3500  -22.0790  -15.2200 C.2     1  UNL1        0.0020
     21  C         24.5010  -22.5040  -13.8990 C.2     1  UNL1        0.0250
     22  C         17.9020  -23.0420  -10.4880 C.3     1  UNL1        0.2280
     23  C         16.8460  -23.0240   -9.3630 C.2     1  UNL1        0.2400
     24  O         15.6530  -22.8610   -9.5920 O.2     1  UNL1       -0.2710
     25  N         17.4240  -23.2480   -8.1200 N.am    1  UNL1       -0.3250
     26  H         18.4190  -23.3980   -8.1260 H       1  UNL1        0.1690
     27  C         16.7890  -23.3000   -6.8470 C.2     1  UNL1        0.0450
     28  C         15.6250  -24.0520   -6.6450 C.2     1  UNL1        0.0300
     29  C         15.0050  -24.0970   -5.4000 C.2     1  UNL1        0.0030
     30  C         15.5420  -23.3910   -4.3310 C.2     1  UNL1        0.0120
     31  C         16.7060  -22.6300   -4.4860 C.2     1  UNL1       -0.0240
     32  C         17.2220  -21.9290   -3.3800 C.2     1  UNL1        0.0120
     33  C         17.3530  -22.5660   -5.7500 C.2     1  UNL1        0.0010
     34  C         18.3760  -21.1580   -3.4890 C.2     1  UNL1        0.0010
     35  C         19.0250  -21.0740   -4.7080 C.2     1  UNL1        0.0010
     36  C         18.5210  -21.7620   -5.8200 C.2     1  UNL1        0.0140
@<TRIPOS>BOND
     1    19    20    2
     2    19    18    1
     3    20    21    1
     4    18    17    2
     5    21    16    2
     6    17    16    1
     7    16    13    1
     8     1     2    1
     9     4     3    2
    10    13    14    2
    11    13    11    1
    12    13    15    2
    13    10     9    1
    14    10     5    2
    15     3     2   am
    16     3     5    1
    17    11    12    1
    18    11     9    1
    19     2    22    1
    20    22    23    1
    21     9     8    2
    22     5     6    1
    23    24    23    2
    24    23    25   am
    25     8     7    1
    26     6     7    2
    27    26    25    1
    28    25    27    1
    29    27    28    2
    30    27    33    1
    31    28    29    1
    32    36    33    1
    33    36    35    2
    34    33    31    2
    35    29    30    2
    36    35    34    1
    37    31    30    1
    38    31    32    1
    39    34    32    2
