@<TRIPOS>MOLECULE
17576_out_ligand_01.pdbqt
 31 34 0 0 0
SMALL
GASTEIGER

@<TRIPOS>ATOM
      1  N         20.5390  -23.9280   -9.3300 N.3     1  UNL1       -0.2760
      2  H         20.9790  -24.7840   -9.6620 H       1  UNL1        0.1290
      3  C         21.1040  -23.5010   -8.0460 C.3     1  UNL1        0.0980
      4  C         20.4510  -22.2300   -7.4760 C.3     1  UNL1        0.0530
      5  C         19.2230  -22.5050   -6.6340 C.2     1  UNL1       -0.0570
      6  C         18.4950  -23.6930   -6.8000 C.2     1  UNL1        0.0090
      7  C         17.3800  -23.9550   -6.0050 C.2     1  UNL1        0.0250
      8  C         16.9860  -23.0210   -5.0420 C.2     1  UNL1        0.0740
      9  C         17.7070  -21.8400   -4.8540 C.2     1  UNL1        0.0250
     10  C         18.8210  -21.5830   -5.6550 C.2     1  UNL1        0.0090
     11  S         15.5720  -23.3630   -4.0290 S.O2    1  UNL1        0.2390
     12  O         15.8930  -24.4640   -3.1530 O.2     1  UNL1       -0.2060
     13  O         15.0430  -22.1100   -3.5400 O.2     1  UNL1       -0.2060
     14  N         14.4640  -23.9100   -5.1720 N.3     1  UNL1       -0.2250
     15  H         13.6800  -24.4160   -4.7620 H       1  UNL1        0.1360
     16  H         14.9590  -24.4710   -5.8670 H       1  UNL1        0.1360
     17  C         20.5180  -22.9760  -10.3680 C.3     1  UNL1        0.1180
     18  N         21.6580  -22.7160  -11.0260 N.2     1  UNL1       -0.2150
     19  C         21.6090  -21.8070  -12.0080 C.2     1  UNL1        0.1680
     20  N         20.5160  -21.1290  -12.3910 N.pl3   1  UNL1       -0.2270
     21  C         19.3910  -21.3730  -11.7150 C.2     1  UNL1        0.0720
     22  C         18.2410  -20.6780  -12.0700 C.2     1  UNL1        0.0320
     23  C         19.3210  -22.2970  -10.6630 C.2     1  UNL1        0.0330
     24  C         17.0260  -20.8690  -11.4070 C.2     1  UNL1        0.0020
     25  C         16.9510  -21.7700  -10.3560 C.2     1  UNL1        0.0010
     26  C         18.0890  -22.4810   -9.9830 C.2     1  UNL1        0.0170
     27  C         22.8390  -21.5230  -12.7560 C.2     1  UNL1        0.0520
     28  C         22.9690  -21.0260  -14.0440 C.2     1  UNL1        0.0230
     29  C         24.3250  -20.8760  -14.4530 C.2     1  UNL1        0.0090
     30  C         25.2020  -21.2640  -13.4670 C.2     1  UNL1        0.0500
     31  S         24.3900  -21.8040  -12.0630 S.3     1  UNL1       -0.0980
@<TRIPOS>BOND
     1    29    28    1
     2    29    30    2
     3    28    27    2
     4    30    31    1
     5    27    31    1
     6    27    19    1
     7    20    19    1
     8    20    21    1
     9    22    21    2
    10    22    24    1
    11    19    18    2
    12    21    23    1
    13    24    25    2
    14    18    17    1
    15    23    17    1
    16    23    26    2
    17    17     1    1
    18    25    26    1
    19     2     1    1
    20     1     3    1
    21     3     4    1
    22     4     5    1
    23     6     5    2
    24     6     7    1
    25     5    10    1
    26     7     8    2
    27    16    14    1
    28    10     9    2
    29    14    15    1
    30    14    11    1
    31     8     9    1
    32     8    11    1
    33    11    13    2
    34    11    12    2
