@<TRIPOS>MOLECULE
17574_out_ligand_01.pdbqt
 33 35 0 0 0
SMALL
GASTEIGER

@<TRIPOS>ATOM
      1  C         24.2910  -22.3830  -11.7280 C.2     1  UNL1        0.0690
      2  C         25.3260  -23.2480  -12.0890 C.2     1  UNL1        0.0380
      3  C         25.5980  -23.4930  -13.4420 C.2     1  UNL1        0.0250
      4  C         24.8370  -22.8760  -14.4380 C.2     1  UNL1        0.0440
      5  C         25.1160  -23.1290  -15.8220 C.1     1  UNL1        0.0990
      6  N         25.3400  -23.3300  -16.9430 N.1     1  UNL1       -0.1910
      7  C         23.8040  -22.0070  -14.0770 C.2     1  UNL1        0.0250
      8  C         23.5380  -21.7610  -12.7270 C.2     1  UNL1        0.0380
      9  O         23.9380  -22.0370  -10.4510 O.2     1  UNL1       -0.3420
     10  C         23.2740  -23.0190   -9.6620 C.3     1  UNL1        0.2780
     11  C         21.8660  -22.6230   -9.2000 C.2     1  UNL1        0.2460
     12  N         20.9150  -22.7930  -10.1920 N.am    1  UNL1       -0.3250
     13  H         21.2920  -23.1010  -11.0810 H       1  UNL1        0.1690
     14  O         21.6770  -22.2280   -8.0550 O.2     1  UNL1       -0.2710
     15  C         19.5300  -22.5300  -10.1350 C.2     1  UNL1        0.0420
     16  C         18.7020  -23.1070   -9.1670 C.2     1  UNL1        0.0550
     17  C         17.3320  -22.8310   -9.1500 C.2     1  UNL1        0.0820
     18  C         16.7690  -21.9500  -10.0730 C.2     1  UNL1        0.0260
     19  C         17.5870  -21.3660  -11.0370 C.2     1  UNL1        0.0100
     20  C         18.9630  -21.6520  -11.0870 C.2     1  UNL1       -0.0350
     21  C         19.7910  -20.9780  -12.1510 C.3     1  UNL1        0.0500
     22  S         16.2970  -23.5680   -7.9060 S.O2    1  UNL1        0.2630
     23  O         15.4100  -22.5550   -7.3770 O.2     1  UNL1       -0.2000
     24  O         15.7720  -24.8010   -8.4580 O.2     1  UNL1       -0.2000
     25  N         17.3970  -24.0340   -6.7190 N.pl3   1  UNL1       -0.2810
     26  H         18.0580  -24.7270   -7.0620 H       1  UNL1        0.1790
     27  C         17.8010  -23.1620   -5.6680 C.2     1  UNL1        0.0440
     28  C         17.4580  -23.5240   -4.3590 C.2     1  UNL1        0.0300
     29  C         17.8000  -22.7010   -3.2830 C.2     1  UNL1        0.0040
     30  C         18.4750  -21.5030   -3.5150 C.2     1  UNL1        0.0240
     31  C         18.7920  -21.1300   -4.8200 C.2     1  UNL1        0.0360
     32 CL         19.6110  -19.6410   -5.0980 Cl      1  UNL1       -0.0840
     33  C         18.4430  -21.9450   -5.9000 C.2     1  UNL1        0.0540
@<TRIPOS>BOND
     1     6     5    3
     2     5     4    1
     3     4     7    2
     4     4     3    1
     5     7     8    1
     6     3     2    2
     7     8     1    2
     8    21    20    1
     9     2     1    1
    10     1     9    1
    11    20    19    1
    12    20    15    2
    13    13    12    1
    14    19    18    2
    15     9    10    1
    16    12    15    1
    17    12    11   am
    18    15    16    1
    19    18    17    1
    20    10    11    1
    21    11    14    2
    22    16    17    2
    23    17    22    1
    24    24    22    2
    25    22    23    2
    26    22    25    1
    27    26    25    1
    28    25    27    1
    29    33    27    2
    30    33    31    1
    31    27    28    1
    32    32    31    1
    33    31    30    2
    34    28    29    2
    35    30    29    1
