@<TRIPOS>MOLECULE
17586_out_ligand_01.pdbqt
 32 35 0 0 0
SMALL
GASTEIGER

@<TRIPOS>ATOM
      1  C         20.2850  -23.1990  -10.4890 C.3     1  UNL1        0.1180
      2  N         21.4440  -22.9050  -11.1010 N.2     1  UNL1       -0.2160
      3  C         21.4620  -21.8650  -11.9470 C.2     1  UNL1        0.1630
      4  N         20.4000  -21.0960  -12.2320 N.pl3   1  UNL1       -0.2280
      5  C         19.2570  -21.3700  -11.5960 C.2     1  UNL1        0.0720
      6  C         18.1480  -20.5720  -11.8510 C.2     1  UNL1        0.0320
      7  C         16.9200  -20.7860  -11.2190 C.2     1  UNL1        0.0020
      8  C         16.7900  -21.8190  -10.3020 C.2     1  UNL1        0.0010
      9  C         17.8860  -22.6350  -10.0320 C.2     1  UNL1        0.0170
     10  C         19.1280  -22.4250  -10.6830 C.2     1  UNL1        0.0330
     11  N         20.2540  -24.2940   -9.5990 N.3     1  UNL1       -0.2760
     12  H         20.5720  -25.1310  -10.0800 H       1  UNL1        0.1290
     13  C         20.9350  -24.1050   -8.3140 C.3     1  UNL1        0.0980
     14  C         20.5900  -22.7530   -7.6700 C.3     1  UNL1        0.0530
     15  C         19.2900  -22.8030   -6.9050 C.2     1  UNL1       -0.0570
     16  C         18.8450  -21.6910   -6.1760 C.2     1  UNL1        0.0090
     17  C         17.6500  -21.7490   -5.4560 C.2     1  UNL1        0.0250
     18  C         16.9010  -22.9280   -5.4600 C.2     1  UNL1        0.0740
     19  C         17.3220  -24.0410   -6.1910 C.2     1  UNL1        0.0250
     20  C         18.5180  -23.9770   -6.9070 C.2     1  UNL1        0.0090
     21  S         15.3830  -23.0050   -4.5480 S.O2    1  UNL1        0.2390
     22  O         14.3810  -22.2450   -5.2550 O.2     1  UNL1       -0.2060
     23  O         15.1690  -24.3710   -4.1280 O.2     1  UNL1       -0.2060
     24  N         15.7870  -22.1530   -3.1530 N.3     1  UNL1       -0.2250
     25  H         16.7970  -21.9960   -3.1460 H       1  UNL1        0.1360
     26  H         15.2690  -21.2810   -3.0520 H       1  UNL1        0.1360
     27  C         22.7320  -21.5650  -12.6230 C.2     1  UNL1        0.0290
     28  C         22.7970  -21.0640  -13.9310 C.2     1  UNL1        0.0180
     29  C         24.0290  -20.8050  -14.5340 C.2     1  UNL1        0.0200
     30  C         25.1800  -21.0540  -13.8090 C.2     1  UNL1        0.1160
     31  N         25.1790  -21.5310  -12.5490 N.2     1  UNL1       -0.2720
     32  C         23.9610  -21.7670  -11.9920 C.2     1  UNL1        0.1310
@<TRIPOS>BOND
     1    29    28    1
     2    29    30    2
     3    28    27    2
     4    30    31    1
     5    27    32    1
     6    27     3    1
     7    31    32    2
     8     4     3    1
     9     4     5    1
    10     3     2    2
    11     6     5    2
    12     6     7    1
    13     5    10    1
    14     7     8    2
    15     2     1    1
    16    10     1    1
    17    10     9    2
    18     1    11    1
    19     8     9    1
    20    12    11    1
    21    11    13    1
    22    13    14    1
    23    14    15    1
    24    20    15    2
    25    20    19    1
    26    15    16    1
    27    19    18    2
    28    16    17    2
    29    18    17    1
    30    18    21    1
    31    22    21    2
    32    21    23    2
    33    21    24    1
    34    24    25    1
    35    24    26    1
