@<TRIPOS>MOLECULE
17589_out_ligand_01.pdbqt
 35 39 0 0 0
SMALL
GASTEIGER

@<TRIPOS>ATOM
      1  C         23.1990  -22.5380  -11.2710 C.3     1  UNL1        0.1190
      2  N         21.8800  -22.4890  -10.9800 N.2     1  UNL1       -0.2160
      3  C         21.0250  -21.8660  -11.8170 C.2     1  UNL1        0.1620
      4  N         21.3490  -21.2670  -12.9710 N.pl3   1  UNL1       -0.2200
      5  C         22.6620  -21.3240  -13.2390 C.ar    1  UNL1        0.1140
      6  S         23.2840  -20.6110  -14.6780 S.2     1  UNL1       -0.0730
      7  C         24.8300  -21.0870  -14.2680 C.ar    1  UNL1       -0.0080
      8  C         24.9110  -21.7660  -13.0820 C.ar    1  UNL1       -0.0290
      9  C         23.6440  -21.9250  -12.4560 C.ar    1  UNL1        0.0470
     10  C         26.3150  -22.1540  -12.7910 C.3     1  UNL1        0.0410
     11  C         27.1210  -21.3000  -13.8190 C.3     1  UNL1        0.0100
     12  C         26.1280  -20.9080  -14.9570 C.3     1  UNL1        0.0470
     13  N         24.0820  -23.1780  -10.3940 N.3     1  UNL1       -0.2760
     14  H         24.5870  -23.9150  -10.8770 H       1  UNL1        0.1290
     15  C         23.4930  -23.6180   -9.1320 C.3     1  UNL1        0.0980
     16  C         22.7550  -22.4550   -8.4480 C.3     1  UNL1        0.0530
     17  C         21.3450  -22.8060   -8.0240 C.2     1  UNL1       -0.0570
     18  C         20.8040  -24.0660   -8.3220 C.2     1  UNL1        0.0090
     19  C         19.5190  -24.4040   -7.8910 C.2     1  UNL1        0.0250
     20  C         18.7690  -23.4740   -7.1680 C.2     1  UNL1        0.0740
     21  C         19.2950  -22.2170   -6.8600 C.2     1  UNL1        0.0250
     22  C         20.5790  -21.8850   -7.2940 C.2     1  UNL1        0.0090
     23  S         17.1620  -23.9110   -6.5720 S.O2    1  UNL1        0.2390
     24  O         16.4660  -24.6650   -7.5870 O.2     1  UNL1       -0.2060
     25  O         17.2780  -24.3710   -5.2080 O.2     1  UNL1       -0.2060
     26  N         16.3960  -22.4190   -6.5000 N.3     1  UNL1       -0.2250
     27  H         17.0710  -21.6940   -6.2580 H       1  UNL1        0.1360
     28  H         15.8950  -22.2420   -7.3690 H       1  UNL1        0.1360
     29  C         19.5950  -21.8510  -11.4280 C.2     1  UNL1        0.0120
     30  C         18.9620  -22.9980  -10.9050 C.2     1  UNL1        0.0170
     31  C         17.6120  -22.9890  -10.5360 C.2     1  UNL1        0.0250
     32  C         16.8640  -21.8250  -10.6830 C.2     1  UNL1        0.0340
     33 CL         15.2040  -21.8100  -10.2320 Cl      1  UNL1       -0.0840
     34  C         17.4550  -20.6750  -11.1930 C.2     1  UNL1        0.0250
     35  C         18.8060  -20.6900  -11.5600 C.2     1  UNL1        0.0170
@<TRIPOS>BOND
     1    12     7    1
     2    12    11    1
     3     6     7   ar
     4     6     5   ar
     5     7     8   ar
     6    11    10    1
     7     5     4    1
     8     5     9   ar
     9     8    10    1
    10     8     9   ar
    11     4     3    1
    12     9     1    1
    13     3    29    1
    14     3     2    2
    15    35    29    2
    16    35    34    1
    17    29    30    1
    18     1     2    1
    19     1    13    1
    20    34    32    2
    21    30    31    2
    22    14    13    1
    23    32    31    1
    24    32    33    1
    25    13    15    1
    26    15    16    1
    27    16    17    1
    28    18    17    2
    29    18    19    1
    30    17    22    1
    31    19    20    2
    32    24    23    2
    33    28    26    1
    34    22    21    2
    35    20    21    1
    36    20    23    1
    37    23    26    1
    38    23    25    2
    39    26    27    1
