@<TRIPOS>MOLECULE
17582_out_ligand_01.pdbqt
 34 37 0 0 0
SMALL
GASTEIGER

@<TRIPOS>ATOM
      1  C         19.6760  -21.6140  -10.8570 C.2     1  UNL1        0.0460
      2  C         19.0000  -21.0410  -11.9470 C.2     1  UNL1        0.0180
      3  C         17.6040  -21.0480  -12.0060 C.2     1  UNL1        0.0010
      4  C         16.8640  -21.6330  -10.9810 C.2     1  UNL1        0.0010
      5  C         17.5190  -22.2220   -9.9000 C.2     1  UNL1        0.0160
      6  C         18.9210  -22.2230   -9.8460 C.2     1  UNL1        0.0300
      7  C         21.1650  -21.5850  -10.9050 C.2     1  UNL1        0.2570
      8  N         21.7550  -22.1030  -12.0390 N.am    1  UNL1       -0.3230
      9  H         21.1330  -22.4210  -12.7850 H       1  UNL1        0.1690
     10  O         21.7450  -21.1290   -9.9260 O.2     1  UNL1       -0.2670
     11  C         23.1310  -22.1950  -12.3330 C.2     1  UNL1        0.0360
     12  C         24.0290  -23.0310  -11.6610 C.2     1  UNL1        0.0490
     13  C         25.3890  -23.0610  -12.0200 C.2     1  UNL1        0.0720
     14  C         25.8340  -22.2440  -13.0600 C.2     1  UNL1        0.1320
     15  C         24.9510  -21.4080  -13.7370 C.2     1  UNL1        0.0450
     16  F         27.1210  -22.2340  -13.4420 F       1  UNL1       -0.2050
     17  C         23.6050  -21.3860  -13.3750 C.2     1  UNL1        0.0320
     18  C         26.3000  -23.9710  -11.2740 C.2     1  UNL1        0.2520
     19  N         26.3050  -23.9060   -9.9100 N.am    1  UNL1       -0.3660
     20  H         25.7250  -23.2670   -9.3820 H       1  UNL1        0.1590
     21  H         26.9300  -24.5260   -9.4120 H       1  UNL1        0.1590
     22  O         27.0340  -24.7650  -11.8500 O.2     1  UNL1       -0.2680
     23  C         19.5500  -22.8730   -8.6870 C.2     1  UNL1        0.1930
     24  O         20.4770  -23.6450   -8.9170 O.2     1  UNL1       -0.2870
     25  C         19.0800  -22.6030   -7.3020 C.2     1  UNL1        0.0180
     26  C         19.5750  -21.5340   -6.5420 C.2     1  UNL1        0.0180
     27  C         19.0930  -21.3130   -5.2490 C.2     1  UNL1        0.0400
     28  C         18.1160  -22.1520   -4.7170 C.2     1  UNL1        0.1020
     29  C         17.6340  -23.2290   -5.4650 C.2     1  UNL1        0.1030
     30  O         17.6770  -21.8590   -3.4510 O.2     1  UNL1       -0.3460
     31  C         18.1000  -23.4460   -6.7610 C.2     1  UNL1        0.0550
     32  O         16.6950  -24.1110   -4.9940 O.2     1  UNL1       -0.3460
     33  C         16.5360  -24.0000   -3.5740 C.3     1  UNL1        0.2020
     34  C         16.4520  -22.5410   -3.1550 C.3     1  UNL1        0.2020
@<TRIPOS>BOND
     1    15    17    1
     2    15    14    2
     3    16    14    1
     4    17    11    2
     5    14    13    1
     6     9     8    1
     7    11     8    1
     8    11    12    1
     9     8     7   am
    10    13    12    2
    11    13    18    1
    12     3     2    1
    13     3     4    2
    14     2     1    2
    15    22    18    2
    16    18    19   am
    17     4     5    1
    18     7     1    1
    19     7    10    2
    20     1     6    1
    21    19    21    1
    22    19    20    1
    23     5     6    2
    24     6    23    1
    25    24    23    2
    26    23    25    1
    27    25    31    2
    28    25    26    1
    29    31    29    1
    30    26    27    2
    31    29    32    1
    32    29    28    2
    33    27    28    1
    34    32    33    1
    35    28    30    1
    36    33    34    1
    37    30    34    1
