@<TRIPOS>MOLECULE
17592_out_ligand_01.pdbqt
 27 29 0 0 0
SMALL
GASTEIGER

@<TRIPOS>ATOM
      1  C         20.6180  -22.7030   -7.6870 C.2     1  UNL1        0.2520
      2  O         21.4470  -21.8500   -7.3920 O.2     1  UNL1       -0.2680
      3  N         20.8310  -23.6930   -8.6200 N.am    1  UNL1       -0.3530
      4  H         20.2180  -24.4970   -8.6290 H       1  UNL1        0.1630
      5  C         19.3020  -22.7230   -6.9920 C.2     1  UNL1        0.0350
      6  C         18.9890  -21.8190   -5.9650 C.2     1  UNL1        0.0190
      7  C         17.7420  -21.8770   -5.3340 C.2     1  UNL1        0.0290
      8  C         16.8150  -22.8450   -5.7290 C.2     1  UNL1        0.1120
      9  C         17.1300  -23.7490   -6.7360 C.2     1  UNL1        0.1400
     10  C         18.3700  -23.6980   -7.3680 C.2     1  UNL1        0.0600
     11  F         16.2520  -24.6840   -7.1240 F       1  UNL1       -0.2040
     12  S         15.2310  -22.9840   -4.9880 S.O2    1  UNL1        0.2420
     13  O         14.2610  -22.3330   -5.8350 O.2     1  UNL1       -0.2060
     14  O         15.0700  -24.3220   -4.4690 O.2     1  UNL1       -0.2060
     15  N         15.3200  -22.0080   -3.6150 N.3     1  UNL1       -0.2250
     16  H         16.2130  -22.1820   -3.1490 H       1  UNL1        0.1360
     17  H         15.2030  -21.0340   -3.9010 H       1  UNL1        0.1360
     18  C         22.1260  -23.8760   -9.2390 C.3     1  UNL1        0.1610
     19  C         22.2180  -23.0840  -10.5190 C.2     1  UNL1       -0.0400
     20  C         21.0770  -22.4130  -11.0120 C.2     1  UNL1        0.0090
     21  C         21.1380  -21.6460  -12.1780 C.2     1  UNL1        0.0080
     22  C         22.3460  -21.5650  -12.8480 C.2     1  UNL1       -0.0520
     23  C         23.4830  -22.2190  -12.3650 C.2     1  UNL1       -0.0510
     24  C         22.6640  -20.7840  -14.0830 C.3     1  UNL1        0.0390
     25  C         23.4390  -22.9710  -11.2030 C.2     1  UNL1        0.0160
     26  C         24.6690  -21.9360  -13.2350 C.3     1  UNL1        0.0390
     27  C         23.9860  -21.4350  -14.5150 C.3     1  UNL1        0.0090
@<TRIPOS>BOND
     1    27    24    1
     2    27    26    1
     3    24    22    1
     4    26    23    1
     5    22    23    2
     6    22    21    1
     7    23    25    1
     8    21    20    2
     9    25    19    2
    10    20    19    1
    11    19    18    1
    12    18     3    1
    13     4     3    1
    14     3     1   am
    15     1     2    2
    16     1     5    1
    17    10     5    2
    18    10     9    1
    19    11     9    1
    20     5     6    1
    21     9     8    2
    22     6     7    2
    23    13    12    2
    24     8     7    1
    25     8    12    1
    26    12    14    2
    27    12    15    1
    28    17    15    1
    29    15    16    1
