@<TRIPOS>MOLECULE
1760_out_ligand_01.pdbqt
 33 36 0 0 0
SMALL
GASTEIGER

@<TRIPOS>ATOM
      1  O         16.9730  -20.4570  -11.3960 O.2     1  UNL1       -0.2650
      2  C         17.6770  -21.3740  -10.9810 C.2     1  UNL1        0.2750
      3  N         17.1480  -22.4020  -10.2190 N.am    1  UNL1       -0.3550
      4  H         17.7220  -23.2020   -9.9970 H       1  UNL1        0.1620
      5  C         19.1010  -21.4810  -11.2480 C.2     1  UNL1        0.1430
      6  C         19.9780  -20.7590  -12.0400 C.2     1  UNL1        0.0450
      7  C         21.2570  -21.3540  -11.8900 C.2     1  UNL1        0.0360
      8  C         21.1000  -22.3970  -11.0030 C.2     1  UNL1        0.0680
      9  O         19.7930  -22.4890  -10.6280 O.2     1  UNL1       -0.3080
     10  C         22.0040  -23.4190  -10.4300 C.3     1  UNL1        0.2100
     11  S         23.4330  -22.6190   -9.7150 S.O2    1  UNL1        0.1810
     12  O         24.1550  -23.5510   -8.8680 O.2     1  UNL1       -0.2220
     13  O         23.0440  -21.3110   -9.2120 O.2     1  UNL1       -0.2220
     14  C         24.4610  -22.3300  -11.1440 C.2     1  UNL1        0.0590
     15  C         24.3980  -23.2070  -12.2310 C.2     1  UNL1        0.0250
     16  C         25.1980  -22.9700  -13.3510 C.2     1  UNL1        0.0200
     17  C         26.0400  -21.8570  -13.3770 C.2     1  UNL1        0.0110
     18 BR         27.1200  -21.5380  -14.8960 Br      1  UNL1       -0.0510
     19  C         26.0900  -20.9730  -12.2980 C.2     1  UNL1        0.0200
     20  C         25.2920  -21.2060  -11.1760 C.2     1  UNL1        0.0250
     21  C         15.7300  -22.4800   -9.9200 C.3     1  UNL1        0.1250
     22  C         15.4810  -22.8800   -8.4670 C.3     1  UNL1        0.0500
     23  C         15.8740  -24.3360   -8.1860 C.3     1  UNL1        0.2740
     24  N         16.5160  -24.5390   -6.8770 N.3     1  UNL1        0.0920
     25  C         15.9360  -23.6610   -5.8350 C.3     1  UNL1        0.2770
     26  C         16.9080  -23.1970   -4.7370 C.3     1  UNL1        0.0690
     27  C         18.0810  -22.5240   -5.3960 C.2     1  UNL1       -0.0490
     28  C         18.6610  -21.3560   -4.9030 C.2     1  UNL1        0.0070
     29  C         18.5870  -23.1340   -6.5570 C.2     1  UNL1       -0.0240
     30  C         19.7390  -20.7820   -5.5780 C.2     1  UNL1        0.0010
     31  C         20.2410  -21.3800   -6.7360 C.2     1  UNL1        0.0010
     32  C         19.6720  -22.5580   -7.2220 C.2     1  UNL1        0.0090
     33  C         17.9870  -24.4540   -6.9800 C.3     1  UNL1        0.3110
@<TRIPOS>BOND
     1    18    17    1
     2    17    16    2
     3    17    19    1
     4    16    15    1
     5    19    20    2
     6    15    14    2
     7     6     7    1
     8     6     5    2
     9     7     8    2
    10     1     2    2
    11     5     2    1
    12     5     9    1
    13    20    14    1
    14    14    11    1
    15     8     9    1
    16     8    10    1
    17     2     3   am
    18    10    11    1
    19     3     4    1
    20     3    21    1
    21    21    22    1
    22    11    13    2
    23    11    12    2
    24    22    23    1
    25    23    24    1
    26    32    31    2
    27    32    29    1
    28    33    24    1
    29    33    29    1
    30    24    25    1
    31    31    30    1
    32    29    27    2
    33    25    26    1
    34    30    28    2
    35    27    28    1
    36    27    26    1
