@<TRIPOS>MOLECULE
17603_out_ligand_01.pdbqt
 38 40 0 0 0
SMALL
GASTEIGER

@<TRIPOS>ATOM
      1  C         23.3730  -21.6700  -10.0110 C.2     1  UNL1        0.0420
      2  C         22.4470  -21.6650  -11.0550 C.2     1  UNL1        0.0310
      3  C         21.1110  -21.9910  -10.8020 C.2     1  UNL1        0.0190
      4  C         20.7060  -22.3200   -9.5030 C.2     1  UNL1        0.0320
      5  C         21.6360  -22.3330   -8.4610 C.2     1  UNL1        0.0190
      6  C         22.9670  -21.9980   -8.7150 C.2     1  UNL1        0.0310
      7  N         24.7390  -21.4020  -10.3030 N.pl3   1  UNL1       -0.2810
      8  H         25.0340  -20.4320  -10.4040 H       1  UNL1        0.1790
      9  S         25.5680  -22.4220  -11.3710 S.O2    1  UNL1        0.2630
     10  O         24.6770  -23.4830  -11.7840 O.2     1  UNL1       -0.2000
     11  O         26.8350  -22.7310  -10.7410 O.2     1  UNL1       -0.2000
     12  C         25.8710  -21.3620  -12.7810 C.2     1  UNL1        0.0860
     13  C         25.6070  -21.9020  -14.0560 C.2     1  UNL1        0.0330
     14  C         25.7920  -21.1550  -15.2350 C.2     1  UNL1       -0.0490
     15  C         26.2810  -19.8510  -15.0890 C.2     1  UNL1        0.0080
     16  C         26.5610  -19.3120  -13.8240 C.2     1  UNL1        0.0090
     17  C         26.3470  -20.0480  -12.6480 C.2     1  UNL1       -0.0390
     18  C         26.6730  -19.3980  -11.3330 C.3     1  UNL1        0.0500
     19  C         25.4390  -21.7680  -16.6020 C.3     1  UNL1       -0.0240
     20  C         24.4160  -22.9120  -16.4270 C.3     1  UNL1        0.0190
     21  C         26.6540  -22.3590  -17.3520 C.3     1  UNL1        0.0190
     22  C         24.8270  -20.6730  -17.5010 C.3     1  UNL1        0.0190
     23  C         19.2990  -22.6980   -9.2100 C.2     1  UNL1        0.2560
     24  O         18.5210  -22.8110  -10.1480 O.2     1  UNL1       -0.2670
     25  N         19.0410  -22.9240   -7.8690 N.am    1  UNL1       -0.3230
     26  H         19.8390  -22.9260   -7.2450 H       1  UNL1        0.1690
     27  C         17.8010  -23.2630   -7.2870 C.2     1  UNL1        0.0360
     28  C         16.8890  -24.1500   -7.8590 C.2     1  UNL1        0.0320
     29  C         15.6760  -24.4280   -7.2200 C.2     1  UNL1        0.0450
     30  C         15.3700  -23.8210   -6.0080 C.2     1  UNL1        0.1320
     31  F         14.1950  -24.1190   -5.4300 F       1  UNL1       -0.2050
     32  C         16.2640  -22.9270   -5.4170 C.2     1  UNL1        0.0720
     33  C         17.4790  -22.6510   -6.0670 C.2     1  UNL1        0.0490
     34  C         16.0010  -22.2510   -4.1200 C.2     1  UNL1        0.2520
     35  N         17.0660  -21.8210   -3.3800 N.am    1  UNL1       -0.3660
     36  H         18.0290  -21.9240   -3.6840 H       1  UNL1        0.1590
     37  H         16.8790  -21.3430   -2.5090 H       1  UNL1        0.1590
     38  O         14.8550  -22.0800   -3.7180 O.2     1  UNL1       -0.2680
@<TRIPOS>BOND
     1    22    19    1
     2    21    19    1
     3    19    20    1
     4    19    14    1
     5    14    15    2
     6    14    13    1
     7    15    16    1
     8    13    12    2
     9    16    17    2
    10    12    17    1
    11    12     9    1
    12    17    18    1
    13    10     9    2
    14     9    11    2
    15     9     7    1
    16     2     3    1
    17     2     1    2
    18     3     4    2
    19     8     7    1
    20     7     1    1
    21    24    23    2
    22     1     6    1
    23     4    23    1
    24     4     5    1
    25    23    25   am
    26     6     5    2
    27    25    27    1
    28    25    26    1
    29    28    27    2
    30    28    29    1
    31    27    33    1
    32    29    30    2
    33    33    32    2
    34    30    31    1
    35    30    32    1
    36    32    34    1
    37    34    38    2
    38    34    35   am
    39    36    35    1
    40    35    37    1
