@<TRIPOS>MOLECULE
17609_out_ligand_01.pdbqt
 32 35 0 0 0
SMALL
GASTEIGER

@<TRIPOS>ATOM
      1  C         20.9590  -22.2730  -10.5770 C.2     1  UNL1       -0.0190
      2  C         20.8970  -21.4590  -11.7170 C.2     1  UNL1        0.0100
      3  C         19.6860  -20.9050  -12.1360 C.2     1  UNL1        0.0030
      4  C         18.5090  -21.1510  -11.4270 C.2     1  UNL1        0.0290
      5  C         18.5290  -21.9570  -10.2940 C.2     1  UNL1        0.0350
      6  C         19.7510  -22.5130   -9.8830 C.2     1  UNL1        0.0390
      7  N         17.3910  -22.2580   -9.5160 N.am    1  UNL1       -0.3270
      8  C         17.2320  -23.3040   -8.6180 C.2     1  UNL1        0.2260
      9  O         18.0660  -24.1690   -8.3600 O.2     1  UNL1       -0.2730
     10  H         16.6080  -21.6280   -9.6240 H       1  UNL1        0.1690
     11  C         15.8620  -23.3080   -7.9510 C.3     1  UNL1        0.1440
     12  C         15.9570  -23.2310   -6.4600 C.2     1  UNL1       -0.0210
     13  C         15.0960  -23.8360   -5.5630 C.2     1  UNL1        0.0970
     14  N         15.5060  -23.5320   -4.2950 N.pl3   1  UNL1       -0.3650
     15  C         16.6160  -22.7210   -4.3360 C.2     1  UNL1        0.0430
     16  H         15.0600  -23.8550   -3.4460 H       1  UNL1        0.1650
     17  C         17.3600  -22.1630   -3.2900 C.2     1  UNL1        0.0320
     18  C         16.9280  -22.5170   -5.6820 C.2     1  UNL1        0.0000
     19  C         18.4620  -21.3710   -3.6280 C.2     1  UNL1        0.0260
     20  C         18.7960  -21.1520   -4.9600 C.2     1  UNL1        0.0350
     21 CL         20.1620  -20.1700   -5.3460 Cl      1  UNL1       -0.0840
     22  C         18.0450  -21.7140   -5.9970 C.2     1  UNL1        0.0380
     23  C         22.2670  -22.8890  -10.0850 C.3     1  UNL1        0.1390
     24  C         22.1440  -24.0730   -9.1200 C.3     1  UNL1        0.0540
     25  N         23.1050  -23.2790  -11.2060 N.am    1  UNL1       -0.3210
     26  C         24.3040  -22.6110  -11.2270 C.2     1  UNL1        0.3240
     27  H         22.8340  -23.9080  -11.9490 H       1  UNL1        0.1650
     28  O         25.1490  -22.7230  -12.0950 O.2     1  UNL1       -0.2470
     29  N         24.3640  -21.7920  -10.1510 N.am    1  UNL1       -0.2770
     30  C         23.2030  -21.8410   -9.4370 C.2     1  UNL1        0.2580
     31  H         25.1270  -21.1670   -9.9540 H       1  UNL1        0.1730
     32  O         22.9740  -21.1650   -8.4450 O.2     1  UNL1       -0.2700
@<TRIPOS>BOND
     1     3     2    1
     2     3     4    2
     3    28    26    2
     4    27    25    1
     5     2     1    2
     6     4     5    1
     7    26    25   am
     8    26    29   am
     9    25    23    1
    10     1    23    1
    11     1     6    1
    12     5     6    2
    13     5     7    1
    14    29    31    1
    15    29    30   am
    16    23    30    1
    17    23    24    1
    18    10     7    1
    19     7     8   am
    20    30    32    2
    21     8     9    2
    22     8    11    1
    23    11    12    1
    24    12    18    1
    25    12    13    2
    26    22    18    1
    27    22    20    2
    28    18    15    2
    29    13    14    1
    30    21    20    1
    31    20    19    1
    32    15    14    1
    33    15    17    1
    34    14    16    1
    35    19    17    2
