@<TRIPOS>MOLECULE
17611_out_ligand_01.pdbqt
 33 35 0 0 0
SMALL
GASTEIGER

@<TRIPOS>ATOM
      1  C         22.3510  -22.1690   -9.1510 C.2     1  UNL1        0.0500
      2  C         23.5420  -21.5170   -9.5210 C.2     1  UNL1        0.0340
      3  C         24.2130  -21.8470  -10.7080 C.2     1  UNL1        0.0490
      4  C         23.6780  -22.8530  -11.5220 C.2     1  UNL1        0.0170
      5  C         22.4850  -23.4920  -11.1710 C.2     1  UNL1        0.0210
      6  C         21.7990  -23.1500   -9.9940 C.2     1  UNL1        0.0210
      7  C         21.7510  -21.7410   -7.8540 C.2     1  UNL1        0.2570
      8  N         20.4440  -22.1360   -7.6480 N.am    1  UNL1       -0.3230
      9  H         19.9970  -22.6370   -8.4090 H       1  UNL1        0.1690
     10  O         22.4660  -21.1270   -7.0700 O.2     1  UNL1       -0.2670
     11  C         19.6370  -21.8870   -6.5210 C.2     1  UNL1        0.0350
     12  C         19.7780  -20.7770   -5.6870 C.2     1  UNL1        0.0290
     13  C         18.9390  -20.6040   -4.5830 C.2     1  UNL1        0.0030
     14  C         17.9400  -21.5380   -4.3040 C.2     1  UNL1        0.0170
     15  C         17.7770  -22.6470   -5.1390 C.2     1  UNL1        0.0340
     16  C         18.6330  -22.8220   -6.2360 C.2     1  UNL1        0.0460
     17  C         16.7340  -23.6780   -4.8940 C.2     1  UNL1        0.2490
     18  N         16.0860  -23.6490   -3.6910 N.am    1  UNL1       -0.3660
     19  H         15.2990  -24.2810   -3.5980 H       1  UNL1        0.1590
     20  H         16.1010  -22.8390   -3.0890 H       1  UNL1        0.1590
     21  O         16.4350  -24.5030   -5.7480 O.2     1  UNL1       -0.2680
     22  S         20.2480  -23.9970   -9.6940 S.3     1  UNL1       -0.0890
     23  C         19.1040  -22.7890  -10.3410 C.2     1  UNL1        0.0080
     24  C         19.5590  -21.7670  -11.1820 C.2     1  UNL1        0.0190
     25  C         18.6670  -20.8210  -11.6940 C.2     1  UNL1        0.0040
     26  C         17.3170  -20.8860  -11.3560 C.2     1  UNL1        0.0420
     27  C         16.8720  -21.8970  -10.5110 C.2     1  UNL1        0.1170
     28  F         15.5750  -21.9570  -10.1820 F       1  UNL1       -0.2060
     29  C         17.7510  -22.8460   -9.9990 C.2     1  UNL1        0.0610
     30  C         25.5060  -21.1550  -11.0700 C.3     1  UNL1        0.4170
     31  F         26.5840  -21.9820  -11.0110 F       1  UNL1       -0.1660
     32  F         25.7960  -20.1030  -10.2560 F       1  UNL1       -0.1660
     33  F         25.4820  -20.6550  -12.3350 F       1  UNL1       -0.1660
@<TRIPOS>BOND
     1    33    30    1
     2    25    26    2
     3    25    24    1
     4     4     5    2
     5     4     3    1
     6    26    27    1
     7    24    23    2
     8     5     6    1
     9    30    31    1
    10    30     3    1
    11    30    32    1
    12     3     2    2
    13    27    28    1
    14    27    29    2
    15    23    29    1
    16    23    22    1
    17     6    22    1
    18     6     1    2
    19     2     1    1
    20     1     7    1
    21     9     8    1
    22     7     8   am
    23     7    10    2
    24     8    11    1
    25    11    16    2
    26    11    12    1
    27    16    15    1
    28    21    17    2
    29    12    13    2
    30    15    17    1
    31    15    14    2
    32    17    18   am
    33    13    14    1
    34    18    19    1
    35    18    20    1
