@<TRIPOS>MOLECULE
17612_out_ligand_01.pdbqt
 30 32 0 0 0
SMALL
GASTEIGER

@<TRIPOS>ATOM
      1  C         23.0090  -21.0490  -13.9080 C.3     1  UNL1        0.0500
      2  C         22.2410  -21.5240  -12.7060 C.2     1  UNL1       -0.0390
      3  C         20.8740  -21.2220  -12.6310 C.2     1  UNL1        0.0100
      4  C         20.1100  -21.6080  -11.5270 C.2     1  UNL1        0.0300
      5  C         20.6910  -22.2990  -10.4590 C.2     1  UNL1        0.0360
      6  C         22.0510  -22.5950  -10.5130 C.2     1  UNL1        0.0550
      7  C         22.8240  -22.2210  -11.6300 C.2     1  UNL1        0.0870
      8  N         19.8410  -22.6530   -9.3890 N.am    1  UNL1       -0.3230
      9  C         20.1150  -22.5780   -8.0360 C.2     1  UNL1        0.2560
     10  O         21.1360  -22.1500   -7.5140 O.2     1  UNL1       -0.2670
     11  H         18.9080  -22.9430   -9.6510 H       1  UNL1        0.1690
     12  C         19.0160  -23.0510   -7.1490 C.2     1  UNL1        0.0350
     13  C         18.3420  -24.2570   -7.3940 C.2     1  UNL1        0.0200
     14  C         17.3200  -24.6700   -6.5350 C.2     1  UNL1        0.0400
     15  C         16.9830  -23.8900   -5.4300 C.2     1  UNL1        0.1020
     16  C         17.6490  -22.6830   -5.1910 C.2     1  UNL1        0.1030
     17  O         15.9850  -24.3700   -4.6210 O.2     1  UNL1       -0.3460
     18  C         18.6780  -22.2730   -6.0360 C.2     1  UNL1        0.0560
     19  O         17.3490  -21.8560   -4.1390 O.2     1  UNL1       -0.3460
     20  C         16.0880  -22.1930   -3.5490 C.3     1  UNL1        0.2020
     21  C         15.9710  -23.6960   -3.3570 C.3     1  UNL1        0.2020
     22  S         24.5640  -22.6230  -11.6040 S.O2    1  UNL1        0.2600
     23  O         24.9010  -23.2450  -10.3450 O.2     1  UNL1       -0.2000
     24  O         25.2830  -21.4550  -12.0670 O.2     1  UNL1       -0.2000
     25  N         24.7200  -23.7630  -12.8240 N.3     1  UNL1       -0.3070
     26  H         23.8090  -23.9960  -13.2190 H       1  UNL1        0.1730
     27  C         25.8880  -23.8920  -13.7230 C.3     1  UNL1        0.0290
     28  C         25.6430  -25.0260  -14.7260 C.3     1  UNL1        0.0380
     29  C         26.2340  -22.5890  -14.4430 C.3     1  UNL1        0.0380
     30  C         27.0770  -24.2770  -12.8250 C.3     1  UNL1        0.0380
@<TRIPOS>BOND
     1    28    27    1
     2    29    27    1
     3     1     2    1
     4    27    30    1
     5    27    25    1
     6    26    25    1
     7    25    22    1
     8     2     3    2
     9     2     7    1
    10     3     4    1
    11    24    22    2
    12     7    22    1
    13     7     6    2
    14    22    23    2
    15     4     5    2
    16     6     5    1
    17     5     8    1
    18    11     8    1
    19     8     9   am
    20     9    10    2
    21     9    12    1
    22    13    12    2
    23    13    14    1
    24    12    18    1
    25    14    15    2
    26    18    16    2
    27    15    16    1
    28    15    17    1
    29    16    19    1
    30    17    21    1
    31    19    20    1
    32    20    21    1
