@<TRIPOS>MOLECULE
17625_out_ligand_01.pdbqt
 31 33 0 0 0
SMALL
GASTEIGER

@<TRIPOS>ATOM
      1  N         21.5070  -23.2680  -10.7500 N.am    1  UNL1       -0.3090
      2  C         20.4560  -22.5310  -10.2470 C.2     1  UNL1        0.3210
      3  O         20.3880  -21.3130  -10.1690 O.2     1  UNL1       -0.2470
      4  N         19.4370  -23.3720   -9.8350 N.am    1  UNL1       -0.3380
      5  H         21.2950  -24.2430  -10.9160 H       1  UNL1        0.1700
      6  H         19.7820  -24.2520   -9.4730 H       1  UNL1        0.1640
      7  C         22.7580  -22.7960  -11.1850 C.2     1  UNL1        0.0400
      8  C         23.9460  -22.9680  -10.4710 C.2     1  UNL1        0.0720
      9  C         25.1470  -22.4860  -10.9900 C.2     1  UNL1        0.1200
     10  C         25.1970  -21.8270  -12.2100 C.2     1  UNL1        0.0670
     11  F         26.2810  -22.6660  -10.2980 F       1  UNL1       -0.2060
     12  C         24.0110  -21.6500  -12.9180 C.2     1  UNL1        0.0790
     13  C         22.7960  -22.1390  -12.4220 C.2     1  UNL1        0.0540
     14  S         24.0520  -20.8380  -14.4910 S.O2    1  UNL1        0.2390
     15  O         25.0920  -19.8400  -14.4600 O.2     1  UNL1       -0.2060
     16  O         23.9720  -21.8480  -15.5210 O.2     1  UNL1       -0.2060
     17  N         22.5680  -20.0500  -14.5040 N.3     1  UNL1       -0.2250
     18  H         22.0030  -20.2400  -15.3320 H       1  UNL1        0.1360
     19  H         22.7140  -19.0500  -14.3520 H       1  UNL1        0.1360
     20  C         18.2850  -22.8280   -9.1360 C.3     1  UNL1        0.0900
     21  C         17.2310  -22.2590  -10.1030 C.3     1  UNL1        0.0260
     22  C         15.8690  -22.7000   -9.5700 C.3     1  UNL1        0.0020
     23  C         16.1360  -23.2670   -8.1860 C.3     1  UNL1        0.0070
     24  C         17.5250  -23.8920   -8.3210 C.3     1  UNL1        0.0130
     25  C         18.1340  -24.2050   -6.9460 C.3     1  UNL1        0.0450
     26  C         18.2980  -22.9840   -6.0740 C.2     1  UNL1       -0.0580
     27  C         19.2070  -21.9760   -6.4230 C.2     1  UNL1        0.0070
     28  C         19.4020  -20.8750   -5.5870 C.2     1  UNL1        0.0010
     29  C         18.6890  -20.7700   -4.3960 C.2     1  UNL1        0.0000
     30  C         17.7740  -21.7610   -4.0440 C.2     1  UNL1        0.0010
     31  C         17.5770  -22.8610   -4.8790 C.2     1  UNL1        0.0070
@<TRIPOS>BOND
     1    16    14    2
     2    18    17    1
     3    17    14    1
     4    17    19    1
     5    14    15    2
     6    14    12    1
     7    12    13    1
     8    12    10    2
     9    13     7    2
    10    10     9    1
    11     7     1    1
    12     7     8    1
    13     9     8    2
    14     9    11    1
    15     5     1    1
    16     1     2   am
    17     2     3    2
    18     2     4   am
    19    21    22    1
    20    21    20    1
    21     4     6    1
    22     4    20    1
    23    22    23    1
    24    20    24    1
    25    24    23    1
    26    24    25    1
    27    25    26    1
    28    27    26    2
    29    27    28    1
    30    26    31    1
    31    28    29    2
    32    31    30    2
    33    29    30    1
