@<TRIPOS>MOLECULE
17630_out_ligand_01.pdbqt
 26 28 0 0 0
SMALL
GASTEIGER

@<TRIPOS>ATOM
      1  C         18.4030  -23.1160   -9.1900 C.3     1  UNL1        0.2540
      2  C         16.9850  -23.1350   -9.7930 C.3     1  UNL1        0.0410
      3  C         16.5550  -21.7470  -10.2600 C.3     1  UNL1        0.0070
      4  C         17.4880  -21.2260  -11.3490 C.3     1  UNL1        0.0390
      5  C         18.9520  -21.5300  -11.1220 C.2     1  UNL1       -0.0500
      6  C         19.8930  -20.9100  -11.9620 C.2     1  UNL1        0.0090
      7  C         21.2510  -21.2090  -11.8580 C.2     1  UNL1        0.0250
      8  C         21.6700  -22.1550  -10.9260 C.2     1  UNL1        0.0740
      9  C         20.7500  -22.7810  -10.0790 C.2     1  UNL1        0.0340
     10  C         19.3820  -22.4660  -10.1570 C.2     1  UNL1       -0.0180
     11  N         18.3380  -22.4050   -7.9070 N.3     1  UNL1        0.0960
     12  H         19.0150  -21.6430   -7.8950 H       1  UNL1        0.3170
     13  C         18.5500  -23.2500   -6.7380 C.3     1  UNL1        0.3090
     14  C         17.3860  -23.1330   -5.7820 C.2     1  UNL1       -0.0300
     15  C         17.4710  -23.6500   -4.4840 C.2     1  UNL1        0.0090
     16  C         16.3900  -23.5430   -3.6080 C.2     1  UNL1        0.0010
     17  C         15.2160  -22.9120   -4.0180 C.2     1  UNL1        0.0070
     18  C         15.1170  -22.3690   -5.3030 C.2     1  UNL1       -0.0610
     19  C         13.8460  -21.7120   -5.7560 C.3     1  UNL1        0.0480
     20  C         16.2010  -22.4940   -6.1830 C.2     1  UNL1        0.0150
     21  S         23.3940  -22.5420  -10.7950 S.O2    1  UNL1        0.2390
     22  O         23.8060  -23.2170  -12.0010 O.2     1  UNL1       -0.2060
     23  O         24.0850  -21.3840  -10.2750 O.2     1  UNL1       -0.2060
     24  N         23.3920  -23.6670   -9.5420 N.3     1  UNL1       -0.2250
     25  H         24.3280  -24.0630   -9.4510 H       1  UNL1        0.1360
     26  H         23.0500  -23.2870   -8.6600 H       1  UNL1        0.1360
@<TRIPOS>BOND
     1    22    21    2
     2     6     7    1
     3     6     5    2
     4     7     8    2
     5     4     5    1
     6     4     3    1
     7     5    10    1
     8     8    21    1
     9     8     9    1
    10    21    23    2
    11    21    24    1
    12     3     2    1
    13    10     9    2
    14    10     1    1
    15     2     1    1
    16    24    25    1
    17    24    26    1
    18     1    11    1
    19    11    12    1
    20    11    13    1
    21    13    14    1
    22    20    14    2
    23    20    18    1
    24    14    15    1
    25    19    18    1
    26    18    17    2
    27    15    16    2
    28    17    16    1
