@<TRIPOS>MOLECULE
17635_out_ligand_01.pdbqt
 27 29 0 0 0
SMALL
GASTEIGER

@<TRIPOS>ATOM
      1  C         17.5680  -22.6070   -8.9020 C.2     1  UNL1        0.2580
      2  O         16.7920  -22.4480   -9.8410 O.2     1  UNL1       -0.2670
      3  N         18.9410  -22.4750   -8.9790 N.am    1  UNL1       -0.3230
      4  H         19.4400  -22.6420   -8.1030 H       1  UNL1        0.1690
      5  C         19.7300  -22.1440  -10.0950 C.2     1  UNL1        0.0360
      6  C         19.3150  -21.3010  -11.1270 C.2     1  UNL1        0.0320
      7  C         20.1660  -21.0260  -12.2000 C.2     1  UNL1        0.0450
      8  C         21.4370  -21.5930  -12.2460 C.2     1  UNL1        0.1320
      9  F         22.2200  -21.3000  -13.2950 F       1  UNL1       -0.2050
     10  C         21.8750  -22.4380  -11.2280 C.2     1  UNL1        0.0720
     11  C         21.0110  -22.7090  -10.1540 C.2     1  UNL1        0.0490
     12  C         23.2180  -23.0720  -11.2220 C.2     1  UNL1        0.2520
     13  N         23.7710  -23.4080  -10.0200 N.am    1  UNL1       -0.3660
     14  H         24.6850  -23.8390  -10.0210 H       1  UNL1        0.1590
     15  H         23.3090  -23.2430   -9.1340 H       1  UNL1        0.1590
     16  O         23.8230  -23.2940  -12.2650 O.2     1  UNL1       -0.2680
     17  C         17.0010  -22.9750   -7.5570 C.2     1  UNL1        0.0610
     18  C         15.9600  -23.9270   -7.5570 C.2     1  UNL1        0.0190
     19  C         15.3680  -24.3340   -6.3690 C.2     1  UNL1        0.0020
     20  C         15.8100  -23.7930   -5.1690 C.2     1  UNL1        0.0140
     21  C         16.8460  -22.8440   -5.1540 C.2     1  UNL1       -0.0060
     22  C         17.2840  -22.3040   -3.9380 C.2     1  UNL1        0.0160
     23  C         17.4630  -22.4140   -6.3520 C.2     1  UNL1        0.0830
     24  C         18.3060  -21.3670   -3.9170 C.2     1  UNL1        0.0270
     25  C         18.8720  -20.9840   -5.1200 C.2     1  UNL1        0.0310
     26  C         19.9790  -19.9740   -5.1450 C.3     1  UNL1        0.0700
     27  N         18.4650  -21.4930   -6.3100 N.2     1  UNL1       -0.2520
@<TRIPOS>BOND
     1     9     8    1
     2    16    12    2
     3     8     7    2
     4     8    10    1
     5     7     6    1
     6    10    12    1
     7    10    11    2
     8    12    13   am
     9     6     5    2
    10    11     5    1
    11     5     3    1
    12    14    13    1
    13    13    15    1
    14     2     1    2
    15     3     1   am
    16     3     4    1
    17     1    17    1
    18    17    18    2
    19    17    23    1
    20    18    19    1
    21    19    20    2
    22    23    27    1
    23    23    21    2
    24    27    25    2
    25    20    21    1
    26    21    22    1
    27    26    25    1
    28    25    24    1
    29    22    24    2
