@<TRIPOS>MOLECULE
17642_out_ligand_01.pdbqt
 29 32 0 0 0
SMALL
GASTEIGER

@<TRIPOS>ATOM
      1  C         18.9780  -22.0420  -10.7620 C.2     1  UNL1        0.2240
      2  O         18.8070  -21.7220  -11.9430 O.2     1  UNL1       -0.2730
      3  N         17.9020  -22.2960   -9.9220 N.am    1  UNL1       -0.3510
      4  C         16.5660  -22.2100  -10.5080 C.3     1  UNL1        0.1260
      5  C         15.4490  -22.5340   -9.5210 C.3     1  UNL1        0.0210
      6  C         15.7440  -23.8270   -8.7630 C.3     1  UNL1        0.0150
      7  C         17.1400  -23.8230   -8.1100 C.3     1  UNL1        0.0750
      8  C         17.9810  -22.5940   -8.4920 C.3     1  UNL1        0.1380
      9  C         20.3950  -22.1870  -10.2220 C.3     1  UNL1        0.1410
     10  C         21.4540  -22.0520  -11.2940 C.2     1  UNL1       -0.0490
     11  C         22.6800  -22.7260  -11.1820 C.2     1  UNL1        0.0090
     12  C         23.6540  -22.5970  -12.1740 C.2     1  UNL1        0.0260
     13  C         23.4110  -21.7750  -13.2760 C.2     1  UNL1        0.0790
     14  C         22.1940  -21.1010  -13.4070 C.2     1  UNL1        0.0260
     15  C         21.2250  -21.2350  -12.4130 C.2     1  UNL1        0.0090
     16  S         24.6380  -21.6020  -14.5480 S.O2    1  UNL1        0.2580
     17  O         25.9080  -22.0510  -14.0240 O.2     1  UNL1       -0.2010
     18  O         24.0840  -22.1300  -15.7740 O.2     1  UNL1       -0.2010
     19  N         24.7170  -19.9390  -14.7440 N.3     1  UNL1       -0.3200
     20  C         25.9560  -19.2290  -14.4700 C.3     1  UNL1        0.1590
     21  H         23.8270  -19.4580  -14.6390 H       1  UNL1        0.1710
     22  C         17.1050  -23.9780   -6.6220 C.ar    1  UNL1        0.1360
     23  N         17.9870  -24.6470   -5.8920 N.ar    1  UNL1       -0.1340
     24  N         17.6520  -24.5250   -4.5490 N.ar    1  UNL1       -0.1350
     25  C         16.5790  -23.7850   -4.5080 C.ar    1  UNL1        0.1300
     26  N         16.2180  -23.4280   -5.7680 N.ar    1  UNL1       -0.3200
     27  C         15.6770  -23.2230   -3.4940 C.3     1  UNL1        0.0820
     28  C         15.0570  -22.5720   -5.7960 C.3     1  UNL1        0.1320
     29  C         14.9320  -22.1430   -4.3200 C.3     1  UNL1        0.0280
@<TRIPOS>BOND
     1    18    16    2
     2    19    21    1
     3    19    16    1
     4    19    20    1
     5    16    17    2
     6    16    13    1
     7    14    13    2
     8    14    15    1
     9    13    12    1
    10    15    10    2
    11    12    11    2
    12     2     1    2
    13    10    11    1
    14    10     9    1
    15     1     9    1
    16     1     3   am
    17     4     3    1
    18     4     5    1
    19     3     8    1
    20     5     6    1
    21     6     7    1
    22     8     7    1
    23     7    22    1
    24    22    23   ar
    25    22    26   ar
    26    23    24   ar
    27    28    26    1
    28    28    29    1
    29    26    25   ar
    30    24    25   ar
    31    25    27    1
    32    29    27    1
