@<TRIPOS>MOLECULE
17650_out_ligand_01.pdbqt
 26 29 0 0 0
SMALL
GASTEIGER

@<TRIPOS>ATOM
      1  C         21.4750  -22.9710  -10.1260 C.ar    1  UNL1        0.2580
      2  N         22.4520  -22.5900  -10.9310 N.ar    1  UNL1       -0.1230
      3  N         21.9330  -21.6980  -11.8420 N.ar    1  UNL1       -0.1280
      4  C         20.6540  -21.5550  -11.5730 C.ar    1  UNL1        0.1750
      5  C         19.6380  -20.7750  -12.1580 C.2     1  UNL1        0.0590
      6  C         18.3980  -20.8290  -11.6510 C.2     1  UNL1        0.0640
      7  C         18.1820  -21.7310  -10.4950 C.2     1  UNL1        0.1890
      8  N         19.0860  -22.4560   -9.9120 N.2     1  UNL1       -0.1380
      9  N         20.3150  -22.3420  -10.4890 N.ar    1  UNL1       -0.1870
     10  O         16.8970  -21.7800   -9.9670 O.2     1  UNL1       -0.2910
     11  C         16.4810  -22.6670   -8.9530 C.2     1  UNL1        0.0790
     12  C         15.9350  -23.8880   -9.3350 C.2     1  UNL1        0.0370
     13  C         15.4950  -24.7640   -8.3470 C.2     1  UNL1        0.0040
     14  C         15.5920  -24.4080   -6.9960 C.2     1  UNL1        0.0150
     15  C         16.1220  -23.1630   -6.6140 C.2     1  UNL1        0.0140
     16  C         16.5630  -22.2860   -7.6150 C.2     1  UNL1        0.0520
     17  C         16.2410  -22.7590   -5.2160 C.2     1  UNL1        0.1610
     18  N         15.2500  -22.4990   -4.3820 N.2     1  UNL1       -0.1300
     19  N         15.7790  -22.1590   -3.1590 N.2     1  UNL1       -0.1430
     20  C         17.0840  -22.2290   -3.2630 C.2     1  UNL1        0.2330
     21  N         17.4200  -22.6000   -4.5280 N.pl3   1  UNL1       -0.3320
     22  H         18.3500  -22.7540   -4.8820 H       1  UNL1        0.1680
     23  C         21.5150  -23.9060   -8.9920 C.3     1  UNL1        0.4540
     24  F         21.1370  -23.3200   -7.8250 F       1  UNL1       -0.1630
     25  F         22.7610  -24.4060   -8.7770 F       1  UNL1       -0.1630
     26  F         20.7020  -24.9800   -9.1760 F       1  UNL1       -0.1630
@<TRIPOS>BOND
     1     5     6    2
     2     5     4    1
     3     3     4   ar
     4     3     2   ar
     5     6     7    1
     6     4     9   ar
     7     2     1   ar
     8     7    10    1
     9     7     8    2
    10     9     1   ar
    11     9     8    1
    12     1    23    1
    13    10    11    1
    14    12    11    2
    15    12    13    1
    16    26    23    1
    17    23    25    1
    18    23    24    1
    19    11    16    1
    20    13    14    2
    21    16    15    2
    22    14    15    1
    23    15    17    1
    24    17    21    1
    25    17    18    2
    26    22    21    1
    27    21    20    1
    28    18    19    1
    29    20    19    2
