@<TRIPOS>MOLECULE
17690_out_ligand_01.pdbqt
 26 28 0 0 0
SMALL
GASTEIGER

@<TRIPOS>ATOM
      1  C         20.3100  -22.5620   -8.0660 C.2     1  UNL1        0.2580
      2  O         21.4540  -22.3830   -7.6520 O.2     1  UNL1       -0.2670
      3  N         19.9140  -22.5370   -9.4170 N.am    1  UNL1       -0.3130
      4  C         18.7550  -23.3170   -9.8950 C.3     1  UNL1        0.1320
      5  C         17.6260  -22.5040  -10.5380 C.3     1  UNL1        0.0200
      6  C         17.8930  -22.1100  -11.9930 C.3     1  UNL1        0.0020
      7  C         18.4400  -20.6950  -12.1850 C.3     1  UNL1        0.0050
      8  C         19.6090  -20.3090  -11.2840 C.3     1  UNL1        0.0410
      9  C         20.7620  -21.2780  -11.3520 C.2     1  UNL1       -0.0310
     10  C         21.7250  -21.1260  -12.3630 C.2     1  UNL1        0.0090
     11  C         22.8380  -21.9660  -12.4210 C.2     1  UNL1        0.0010
     12  C         23.0060  -22.9640  -11.4660 C.2     1  UNL1        0.0020
     13  C         22.0510  -23.1350  -10.4620 C.2     1  UNL1        0.0300
     14  C         20.9190  -22.3090  -10.4080 C.2     1  UNL1        0.0430
     15  C         19.2670  -22.7640   -7.0340 C.2     1  UNL1        0.0320
     16  C         18.9770  -21.7150   -6.1520 C.2     1  UNL1        0.0180
     17  C         17.9870  -21.8790   -5.1810 C.2     1  UNL1        0.0260
     18  C         17.2870  -23.0880   -5.1090 C.2     1  UNL1        0.0790
     19  C         17.5520  -24.1270   -6.0100 C.2     1  UNL1        0.0260
     20  C         18.5420  -23.9610   -6.9800 C.2     1  UNL1        0.0180
     21  S         16.0140  -23.3050   -3.8920 S.O2    1  UNL1        0.2580
     22  O         15.9020  -22.0670   -3.1530 O.2     1  UNL1       -0.2010
     23  O         16.2000  -24.5790   -3.2330 O.2     1  UNL1       -0.2010
     24  N         14.6360  -23.4070   -4.8510 N.3     1  UNL1       -0.3200
     25  C         14.3290  -22.2940   -5.7420 C.3     1  UNL1        0.1590
     26  H         14.4750  -24.3550   -5.1900 H       1  UNL1        0.1710
@<TRIPOS>BOND
     1    11    10    1
     2    11    12    2
     3    10     9    2
     4     7     6    1
     5     7     8    1
     6     6     5    1
     7    12    13    1
     8     9     8    1
     9     9    14    1
    10     5     4    1
    11    13    14    2
    12    14     3    1
    13     4     3    1
    14     3     1   am
    15     1     2    2
    16     1    15    1
    17    15    20    2
    18    15    16    1
    19    20    19    1
    20    16    17    2
    21    19    18    2
    22    25    24    1
    23    26    24    1
    24    17    18    1
    25    18    21    1
    26    24    21    1
    27    21    23    2
    28    21    22    2
