@<TRIPOS>MOLECULE
17699_out_ligand_01.pdbqt
 30 32 0 0 0
SMALL
GASTEIGER

@<TRIPOS>ATOM
      1  C         18.8810  -22.3180  -10.5730 C.2     1  UNL1        0.0360
      2  C         18.0700  -21.4800  -11.3420 C.2     1  UNL1        0.0290
      3  C         16.7180  -21.3030  -11.0230 C.2     1  UNL1        0.0040
      4  C         16.1640  -21.9520   -9.9220 C.2     1  UNL1        0.0250
      5  C         16.9760  -22.7740   -9.1430 C.2     1  UNL1        0.0770
      6  C         18.3210  -22.9810   -9.4770 C.2     1  UNL1        0.0540
      7  N         20.2520  -22.5400  -10.8170 N.am    1  UNL1       -0.3230
      8  C         21.1830  -21.6320  -11.2780 C.2     1  UNL1        0.2580
      9  O         20.9710  -20.4700  -11.6080 O.2     1  UNL1       -0.2670
     10  H         20.5930  -23.4630  -10.5760 H       1  UNL1        0.1690
     11  C         22.5730  -22.1490  -11.4370 C.2     1  UNL1        0.0570
     12  C         23.1170  -22.0760  -12.7340 C.2     1  UNL1        0.0190
     13  C         24.4090  -22.5340  -12.9970 C.2     1  UNL1        0.0040
     14  C         25.1740  -23.0620  -11.9630 C.2     1  UNL1        0.0440
     15  C         24.6450  -23.1210  -10.6750 C.2     1  UNL1        0.1390
     16  F         25.4150  -23.6260   -9.6990 F       1  UNL1       -0.2040
     17  C         23.3530  -22.6660  -10.3950 C.2     1  UNL1        0.0880
     18 CL         22.8120  -22.7410   -8.7530 Cl      1  UNL1       -0.0800
     19  S         16.2960  -23.5930   -7.7200 S.O2    1  UNL1        0.2460
     20  O         15.7490  -24.8590   -8.1590 O.2     1  UNL1       -0.2060
     21  O         15.4810  -22.6320   -7.0080 O.2     1  UNL1       -0.2060
     22  N         17.6550  -23.8750   -6.7470 N.pl3   1  UNL1       -0.1800
     23  H         17.6210  -24.8150   -6.3480 H       1  UNL1        0.1460
     24  C         18.0720  -22.8400   -5.8470 C.2     1  UNL1        0.0440
     25  C         18.9640  -21.8580   -6.2840 C.2     1  UNL1        0.0260
     26  C         19.3260  -20.8110   -5.4340 C.2     1  UNL1        0.0020
     27  C         18.8000  -20.7410   -4.1450 C.2     1  UNL1        0.0020
     28  C         17.9150  -21.7230   -3.6970 C.2     1  UNL1        0.0260
     29  C         17.5540  -22.7710   -4.5440 C.2     1  UNL1        0.0560
     30 CL         16.4580  -23.9710   -3.9580 Cl      1  UNL1       -0.0820
@<TRIPOS>BOND
     1    13    12    1
     2    13    14    2
     3    12    11    2
     4    14    15    1
     5     9     8    2
     6    11     8    1
     7    11    17    1
     8     2     3    1
     9     2     1    2
    10     8     7   am
    11     3     4    2
    12     7    10    1
    13     7     1    1
    14    15    17    2
    15    15    16    1
    16     1     6    1
    17    17    18    1
    18     4     5    1
    19     6     5    2
    20     5    19    1
    21    20    19    2
    22    19    21    2
    23    19    22    1
    24    22    23    1
    25    22    24    1
    26    25    24    2
    27    25    26    1
    28    24    29    1
    29    26    27    2
    30    29    30    1
    31    29    28    2
    32    27    28    1
