@<TRIPOS>MOLECULE
17717_out_ligand_01.pdbqt
 25 27 0 0 0
SMALL
GASTEIGER

@<TRIPOS>ATOM
      1  C         16.8930  -23.1050   -5.3110 C.2     1  UNL1        0.0820
      2  C         17.0900  -24.0750   -6.2940 C.2     1  UNL1        0.0270
      3  C         18.1370  -23.9260   -7.2090 C.2     1  UNL1        0.0280
      4  C         19.0080  -22.8200   -7.1620 C.2     1  UNL1        0.0500
      5  C         18.7830  -21.8740   -6.1410 C.2     1  UNL1        0.1390
      6  F         19.5550  -20.7800   -6.0370 F       1  UNL1       -0.2040
      7  C         17.7450  -22.0080   -5.2210 C.2     1  UNL1        0.0690
      8  N         20.0420  -22.7470   -8.1190 N.pl3   1  UNL1       -0.2760
      9  C         21.3510  -22.2690   -7.6570 C.3     1  UNL1        0.1010
     10  C         22.4200  -22.6810   -8.6740 C.3     1  UNL1        0.0550
     11  C         22.0580  -22.2840  -10.0870 C.2     1  UNL1       -0.0290
     12  C         23.0160  -22.2180  -11.1170 C.2     1  UNL1        0.0180
     13  C         20.7030  -22.0320  -10.4010 C.2     1  UNL1        0.0020
     14 BR         24.8510  -22.6130  -10.8200 Br      1  UNL1       -0.0510
     15  C         22.6450  -21.8650  -12.4190 C.2     1  UNL1        0.0220
     16  C         21.3140  -21.5830  -12.7140 C.2     1  UNL1        0.0440
     17  C         20.3590  -21.6700  -11.7090 C.2     1  UNL1        0.1240
     18  F         19.0810  -21.3980  -12.0090 F       1  UNL1       -0.2050
     19  C         19.5980  -22.0990   -9.3700 C.3     1  UNL1        0.1380
     20  S         15.5770  -23.3020   -4.1370 S.O2    1  UNL1        0.2580
     21  O         15.6800  -22.2400   -3.1630 O.2     1  UNL1       -0.2010
     22  O         15.5360  -24.6940   -3.7520 O.2     1  UNL1       -0.2010
     23  N         14.2210  -23.0270   -5.0730 N.3     1  UNL1       -0.3200
     24  C         14.0260  -21.7580   -5.7520 C.3     1  UNL1        0.1590
     25  H         13.7320  -23.8590   -5.3940 H       1  UNL1        0.1710
@<TRIPOS>BOND
     1    16    15    2
     2    16    17    1
     3    15    12    1
     4    18    17    1
     5    17    13    2
     6    12    14    1
     7    12    11    2
     8    13    11    1
     9    13    19    1
    10    11    10    1
    11    19     8    1
    12    10     9    1
    13     8     9    1
    14     8     4    1
    15     3     4    2
    16     3     2    1
    17     4     5    1
    18     2     1    2
    19     5     6    1
    20     5     7    2
    21    24    23    1
    22    25    23    1
    23     1     7    1
    24     1    20    1
    25    23    20    1
    26    20    22    2
    27    20    21    2
