@<TRIPOS>MOLECULE
17716_out_ligand_01.pdbqt
 29 31 0 0 0
SMALL
GASTEIGER

@<TRIPOS>ATOM
      1  N         21.3960  -22.1700  -11.8870 N.am    1  UNL1       -0.3230
      2  C         20.9290  -21.9480  -10.6050 C.2     1  UNL1        0.2600
      3  O         21.5870  -21.7720   -9.5880 O.2     1  UNL1       -0.2670
      4  H         20.6990  -22.2430  -12.6180 H       1  UNL1        0.1690
      5  C         19.4580  -21.9010  -10.5000 C.2     1  UNL1        0.0870
      6  C         18.7710  -21.0390  -11.3580 C.2     1  UNL1        0.1330
      7  F         19.4390  -20.2430  -12.2070 F       1  UNL1       -0.2050
      8  C         17.3820  -20.9750  -11.3490 C.2     1  UNL1        0.0430
      9  C         16.6620  -21.7850  -10.4760 C.2     1  UNL1        0.0040
     10  C         17.3400  -22.6470   -9.6080 C.2     1  UNL1        0.0200
     11  C         18.7440  -22.7110   -9.6010 C.2     1  UNL1        0.0240
     12  S         19.4960  -23.8150   -8.4080 S.3     1  UNL1       -0.0890
     13  C         18.8960  -23.1250   -6.8760 C.2     1  UNL1        0.0050
     14  C         18.0240  -23.8440   -6.0520 C.2     1  UNL1        0.0190
     15  C         17.5540  -23.2820   -4.8640 C.2     1  UNL1        0.0010
     16  C         17.9570  -22.0010   -4.4910 C.2     1  UNL1        0.0000
     17  C         18.8350  -21.2840   -5.3010 C.2     1  UNL1        0.0010
     18  C         19.3090  -21.8460   -6.4880 C.2     1  UNL1        0.0190
     19  C         22.7390  -22.2310  -12.3090 C.2     1  UNL1        0.0350
     20  C         23.0880  -21.4570  -13.4250 C.2     1  UNL1        0.0290
     21  C         24.3980  -21.4480  -13.9090 C.2     1  UNL1        0.0030
     22  C         25.3770  -22.2140  -13.2800 C.2     1  UNL1        0.0170
     23  C         25.0420  -22.9890  -12.1630 C.2     1  UNL1        0.0340
     24  C         23.7220  -23.0050  -11.6870 C.2     1  UNL1        0.0460
     25  C         26.0590  -23.8250  -11.4740 C.2     1  UNL1        0.2490
     26  N         26.1020  -23.7510  -10.1080 N.am    1  UNL1       -0.3660
     27  H         26.7010  -24.4330   -9.6580 H       1  UNL1        0.1590
     28  H         25.3250  -23.3930   -9.5720 H       1  UNL1        0.1590
     29  O         26.8090  -24.5750  -12.0830 O.2     1  UNL1       -0.2680
@<TRIPOS>BOND
     1    21    20    1
     2    21    22    2
     3    20    19    2
     4    22    23    1
     5     4     1    1
     6    19     1    1
     7    19    24    1
     8     7     6    1
     9    23    24    2
    10    23    25    1
    11    29    25    2
    12     1     2   am
    13    25    26   am
    14     6     8    1
    15     6     5    2
    16     8     9    2
    17     2     5    1
    18     2     3    2
    19     5    11    1
    20     9    10    1
    21    26    27    1
    22    26    28    1
    23    10    11    2
    24    11    12    1
    25    12    13    1
    26    13    18    2
    27    13    14    1
    28    18    17    1
    29    14    15    2
    30    17    16    2
    31    15    16    1
