@<TRIPOS>MOLECULE
17711_out_ligand_01.pdbqt
 34 38 0 0 0
SMALL
GASTEIGER

@<TRIPOS>ATOM
      1  N         24.6130  -22.5180   -9.8820 N.3     1  UNL1       -0.3090
      2  H         25.2230  -22.4450   -9.0670 H       1  UNL1        0.1720
      3  C         23.1620  -22.3560   -9.7600 C.3     1  UNL1        0.1200
      4  C         22.8110  -21.6470   -8.4540 C.3     1  UNL1        0.1300
      5  C         21.4810  -22.2470   -8.0790 C.2     1  UNL1        0.2220
      6  O         20.7300  -21.8010   -7.2260 O.2     1  UNL1       -0.2730
      7  N         21.3030  -23.4110   -8.8180 N.am    1  UNL1       -0.3450
      8  C         22.4340  -23.6910   -9.6570 C.3     1  UNL1        0.1520
      9  C         20.2470  -24.3460   -8.5710 C.3     1  UNL1        0.0960
     10  C         19.0780  -24.0580   -7.6740 C.3     1  UNL1        0.0370
     11  C         18.8570  -24.1880   -9.1620 C.3     1  UNL1        0.0430
     12  C         18.4900  -22.9820  -10.0000 C.2     1  UNL1       -0.0520
     13  C         19.3160  -22.5180  -11.0380 C.2     1  UNL1        0.0070
     14  C         18.9660  -21.4030  -11.8060 C.2     1  UNL1        0.0010
     15  C         17.7810  -20.7210  -11.5440 C.2     1  UNL1        0.0000
     16  C         16.9550  -21.1470  -10.5090 C.2     1  UNL1        0.0010
     17  C         17.3120  -22.2600   -9.7440 C.2     1  UNL1        0.0070
     18  S         25.3250  -23.0560  -11.2900 S.O2    1  UNL1        0.2590
     19  O         26.5110  -23.8010  -10.9390 O.2     1  UNL1       -0.2010
     20  O         24.2670  -23.6230  -12.0940 O.2     1  UNL1       -0.2010
     21  C         25.8270  -21.5400  -12.0670 C.2     1  UNL1        0.0800
     22  C         26.5080  -20.5770  -11.3090 C.2     1  UNL1        0.0270
     23  C         26.9030  -19.3760  -11.9030 C.2     1  UNL1        0.0320
     24  C         26.6120  -19.1450  -13.2480 C.ar    1  UNL1        0.0520
     25  N         27.0060  -17.9500  -13.8540 N.ar    1  UNL1       -0.3080
     26  C         25.9250  -20.1060  -13.9940 C.ar    1  UNL1        0.0600
     27  C         26.7500  -17.6540  -15.1620 C.ar    1  UNL1        0.3270
     28  H         27.5020  -17.2390  -13.3310 H       1  UNL1        0.1700
     29  O         27.1200  -16.5980  -15.6620 O.2     1  UNL1       -0.2470
     30  N         26.0710  -18.5970  -15.8780 N.ar    1  UNL1       -0.2750
     31  C         25.6510  -19.8200  -15.4150 C.ar    1  UNL1        0.2610
     32  H         25.8940  -18.3880  -16.8490 H       1  UNL1        0.1730
     33  O         25.0960  -20.6400  -16.1350 O.2     1  UNL1       -0.2670
     34  C         25.5180  -21.3080  -13.4090 C.2     1  UNL1        0.0440
@<TRIPOS>BOND
     1    32    30    1
     2    33    31    2
     3    30    31   ar
     4    30    27   ar
     5    29    27    2
     6    31    26   ar
     7    27    25   ar
     8    26    34    1
     9    26    24   ar
    10    25    28    1
    11    25    24   ar
    12    34    21    2
    13    24    23    1
    14    20    18    2
    15    21    22    1
    16    21    18    1
    17    23    22    2
    18    14    15    2
    19    14    13    1
    20    15    16    1
    21    18    19    2
    22    18     1    1
    23    13    12    2
    24    16    17    2
    25    12    17    1
    26    12    11    1
    27     1     3    1
    28     1     2    1
    29     3     8    1
    30     3     4    1
    31     8     7    1
    32    11     9    1
    33    11    10    1
    34     7     9    1
    35     7     5   am
    36     9    10    1
    37     4     5    1
    38     5     6    2
