@<TRIPOS>MOLECULE
17720_out_ligand_01.pdbqt
 30 34 0 0 0
SMALL
GASTEIGER

@<TRIPOS>ATOM
      1  S         21.1540  -23.4490   -9.3430 S.O2    1  UNL1        0.2490
      2  O         22.2840  -23.5640   -8.4440 O.2     1  UNL1       -0.2050
      3  O         20.3790  -24.6050   -9.7380 O.2     1  UNL1       -0.2050
      4  N         20.1200  -22.2400   -8.7220 N.pl3   1  UNL1       -0.1710
      5  C         20.3490  -21.8490   -7.2700 C.3     1  UNL1        0.1230
      6  C         19.1620  -22.4290   -6.4820 C.3     1  UNL1        0.0360
      7  C         18.5640  -21.5780   -5.3730 C.3     1  UNL1        0.0180
      8  C         18.1440  -22.5540   -7.5610 C.2     1  UNL1       -0.0170
      9  C         17.2460  -22.2060   -4.8860 C.3     1  UNL1        0.0840
     10  C         16.2530  -22.5260   -6.0030 C.2     1  UNL1        0.1600
     11  O         15.0580  -22.6980   -5.7840 O.2     1  UNL1       -0.2920
     12  C         16.7810  -22.6630   -7.3810 C.2     1  UNL1        0.0180
     13  C         15.9760  -22.8410   -8.5050 C.2     1  UNL1        0.0160
     14  C         16.5620  -22.8820   -9.7840 C.2     1  UNL1        0.0030
     15  C         17.9460  -22.7200   -9.9490 C.2     1  UNL1        0.0250
     16  C         18.7200  -22.5470   -8.8180 C.2     1  UNL1        0.0330
     17  C         21.7280  -22.7140  -10.8360 C.2     1  UNL1        0.0930
     18  C         20.9200  -21.8250  -11.5250 C.2     1  UNL1        0.1430
     19  N         21.2950  -21.2290  -12.6860 N.2     1  UNL1       -0.2410
     20  C         22.5260  -21.5260  -13.1550 C.ar    1  UNL1        0.1470
     21  N         22.9120  -20.9140  -14.3380 N.ar    1  UNL1       -0.2920
     22  C         23.3920  -22.4030  -12.5190 C.ar    1  UNL1        0.0800
     23  C         24.1190  -21.1150  -14.9280 C.ar    1  UNL1        0.3280
     24  H         22.2580  -20.2810  -14.7780 H       1  UNL1        0.1720
     25  O         24.4280  -20.5610  -15.9780 O.2     1  UNL1       -0.2470
     26  N         24.9700  -21.9720  -14.2910 N.ar    1  UNL1       -0.2750
     27  C         24.7030  -22.6580  -13.1320 C.ar    1  UNL1        0.2630
     28  H         25.8640  -22.1340  -14.7310 H       1  UNL1        0.1730
     29  O         25.4930  -23.4470  -12.6320 O.2     1  UNL1       -0.2670
     30  C         22.9950  -23.0140  -11.3330 C.2     1  UNL1        0.0470
@<TRIPOS>BOND
     1    25    23    2
     2    23    21   ar
     3    23    26   ar
     4    24    21    1
     5    28    26    1
     6    21    20   ar
     7    26    27   ar
     8    20    19    2
     9    20    22   ar
    10    27    29    2
    11    27    22   ar
    12    19    18    1
    13    22    30    2
    14    18    17    2
    15    30    17    1
    16    17     1    1
    17    15    14    2
    18    15    16    1
    19    14    13    1
    20     3     1    2
    21     1     4    1
    22     1     2    2
    23    16     4    1
    24    16     8    2
    25     4     5    1
    26    13    12    2
    27     8    12    1
    28     8     6    1
    29    12    10    1
    30     5     6    1
    31     6     7    1
    32    10    11    2
    33    10     9    1
    34     7     9    1
