@<TRIPOS>MOLECULE
17754_out_ligand_01.pdbqt
 34 37 0 0 0
SMALL
GASTEIGER

@<TRIPOS>ATOM
      1  C         18.0270  -22.6310  -10.0410 C.2     1  UNL1        0.2520
      2  O         17.4210  -23.3040  -10.8670 O.2     1  UNL1       -0.2680
      3  N         18.9660  -21.6780  -10.3710 N.am    1  UNL1       -0.3530
      4  H         19.5960  -21.3470   -9.6550 H       1  UNL1        0.1630
      5  C         19.3900  -21.4850  -11.7420 C.3     1  UNL1        0.1610
      6  C         20.8710  -21.7260  -11.8790 C.2     1  UNL1       -0.0410
      7  C         21.5840  -22.3500  -10.8510 C.2     1  UNL1        0.0090
      8  C         22.9630  -22.5500  -10.9590 C.2     1  UNL1        0.0110
      9  C         23.6770  -22.1320  -12.0990 C.2     1  UNL1       -0.0210
     10  C         22.9500  -21.4940  -13.1190 C.2     1  UNL1        0.0110
     11  C         21.5690  -21.2920  -13.0100 C.2     1  UNL1        0.0090
     12  C         25.1850  -22.3470  -12.1880 C.3     1  UNL1        0.1390
     13  C         25.8230  -22.1150  -13.5630 C.3     1  UNL1        0.0540
     14  N         25.5610  -23.6690  -11.7170 N.am    1  UNL1       -0.3210
     15  C         26.3950  -23.6250  -10.6280 C.2     1  UNL1        0.3240
     16  H         25.1820  -24.5410  -12.0610 H       1  UNL1        0.1650
     17  O         26.8080  -24.5980  -10.0250 O.2     1  UNL1       -0.2470
     18  N         26.6500  -22.3310  -10.3300 N.am    1  UNL1       -0.2770
     19  C         25.9520  -21.4940  -11.1480 C.2     1  UNL1        0.2580
     20  H         27.2070  -22.0320   -9.5480 H       1  UNL1        0.1730
     21  O         25.9620  -20.2740  -11.0650 O.2     1  UNL1       -0.2700
     22  C         17.7880  -22.8500   -8.5880 C.2     1  UNL1        0.0340
     23  C         16.6100  -22.3430   -8.0280 C.2     1  UNL1        0.0470
     24  C         16.3520  -22.5260   -6.6690 C.2     1  UNL1        0.0460
     25  N         15.1620  -22.0180   -6.1320 N.am    1  UNL1       -0.3230
     26  C         17.2580  -23.2070   -5.8360 C.2     1  UNL1       -0.0030
     27  C         14.8140  -22.1430   -4.8170 C.2     1  UNL1        0.2460
     28  H         14.5040  -21.5230   -6.7180 H       1  UNL1        0.1690
     29  C         15.7690  -22.8620   -3.9450 C.2     1  UNL1        0.0820
     30  O         13.7680  -21.6900   -4.3670 O.2     1  UNL1       -0.2680
     31  C         16.9260  -23.3700   -4.4030 C.2     1  UNL1       -0.0440
     32  C         17.8700  -24.0920   -3.4890 C.3     1  UNL1        0.0490
     33  C         18.4420  -23.6940   -6.4070 C.2     1  UNL1        0.0150
     34  C         18.7090  -23.5140   -7.7710 C.2     1  UNL1        0.0180
@<TRIPOS>BOND
     1    13    12    1
     2    10    11    1
     3    10     9    2
     4    11     6    2
     5    12     9    1
     6    12    14    1
     7    12    19    1
     8     9     8    1
     9    16    14    1
    10     6     5    1
    11     6     7    1
    12     5     3    1
    13    14    15   am
    14    19    21    2
    15    19    18   am
    16     8     7    2
    17     2     1    2
    18    15    18   am
    19    15    17    2
    20     3     1   am
    21     3     4    1
    22    18    20    1
    23     1    22    1
    24    22    23    2
    25    22    34    1
    26    23    24    1
    27    34    33    2
    28    28    25    1
    29    24    25    1
    30    24    26    2
    31    33    26    1
    32    25    27   am
    33    26    31    1
    34    27    30    2
    35    27    29    1
    36    31    29    2
    37    31    32    1
