@<TRIPOS>MOLECULE
1784_out_ligand_01.pdbqt
 35 38 0 0 0
SMALL
GASTEIGER

@<TRIPOS>ATOM
      1  C         22.6870  -22.5530  -11.2800 C.ar    1  UNL1        0.1050
      2  N         21.9530  -23.2070  -10.4030 N.ar    1  UNL1       -0.2330
      3  C         20.6830  -22.6970  -10.5310 C.ar    1  UNL1        0.0860
      4  C         19.5130  -23.0390   -9.8390 C.2     1  UNL1        0.0510
      5  C         18.3270  -22.3620  -10.1660 C.2     1  UNL1        0.0340
      6  C         18.3090  -21.3900  -11.1770 C.2     1  UNL1        0.0190
      7  C         19.4720  -21.0360  -11.8720 C.2     1  UNL1        0.0330
      8  C         20.6400  -21.7120  -11.5100 C.ar    1  UNL1        0.0620
      9  N         21.9310  -21.6280  -11.9620 N.ar    1  UNL1       -0.3430
     10  H         22.2630  -21.0220  -12.7010 H       1  UNL1        0.1670
     11  C         24.1480  -22.7400  -11.5270 C.3     1  UNL1        0.0830
     12  C         24.4590  -23.1770  -12.9610 C.3     1  UNL1        0.0460
     13  C         24.8930  -22.0340  -13.8510 C.2     1  UNL1       -0.0580
     14  C         25.1910  -20.7800  -13.3060 C.2     1  UNL1        0.0090
     15  C         25.5470  -19.7140  -14.1380 C.2     1  UNL1        0.0300
     16  C         25.6130  -19.8790  -15.5270 C.2     1  UNL1        0.0340
     17  C         25.3250  -21.1320  -16.0680 C.2     1  UNL1        0.0300
     18  C         24.9700  -22.2020  -15.2390 C.2     1  UNL1        0.0090
     19  N         25.9650  -18.7500  -16.2950 N.am    1  UNL1       -0.3280
     20  C         26.6390  -17.6190  -15.8680 C.2     1  UNL1        0.2180
     21  C         26.8290  -16.6260  -16.9880 C.3     1  UNL1        0.1170
     22  O         27.0670  -17.3900  -14.7430 O.2     1  UNL1       -0.2740
     23  H         25.7040  -18.7780  -17.2720 H       1  UNL1        0.1690
     24  C         17.0510  -22.6740   -9.4700 C.2     1  UNL1        0.2520
     25  O         15.9790  -22.4260  -10.0080 O.2     1  UNL1       -0.2680
     26  N         17.1630  -23.2090   -8.2100 N.am    1  UNL1       -0.3530
     27  H         18.0700  -23.3390   -7.7830 H       1  UNL1        0.1630
     28  C         16.0000  -23.6030   -7.4510 C.3     1  UNL1        0.1620
     29  C         16.2130  -23.3510   -5.9780 C.2     1  UNL1       -0.0350
     30  C         17.3610  -23.8780   -5.3590 C.2     1  UNL1        0.0090
     31  C         17.6170  -23.6470   -4.0080 C.2     1  UNL1        0.0010
     32  C         16.7320  -22.8810   -3.2570 C.2     1  UNL1        0.0010
     33  C         15.5940  -22.3420   -3.8550 C.2     1  UNL1        0.0070
     34  C         15.3220  -22.5650   -5.2150 C.2     1  UNL1       -0.0540
     35  C         14.0890  -21.9530   -5.8240 C.3     1  UNL1        0.0490
@<TRIPOS>BOND
     1    23    19    1
     2    21    20    1
     3    19    20   am
     4    19    16    1
     5    17    16    2
     6    17    18    1
     7    20    22    2
     8    16    15    1
     9    18    13    2
    10    15    14    2
    11    13    14    1
    12    13    12    1
    13    12    11    1
    14    10     9    1
    15     9     8   ar
    16     9     1   ar
    17     7     8    1
    18     7     6    2
    19    11     1    1
    20     8     3   ar
    21     1     2   ar
    22     6     5    1
    23     3     2   ar
    24     3     4    1
    25     5     4    2
    26     5    24    1
    27    25    24    2
    28    24    26   am
    29    26    27    1
    30    26    28    1
    31    28    29    1
    32    29    30    2
    33    29    34    1
    34    35    34    1
    35    30    31    1
    36    34    33    2
    37    31    32    2
    38    33    32    1
