@<TRIPOS>MOLECULE
1794_out_ligand_01.pdbqt
 31 34 0 0 0
SMALL
GASTEIGER

@<TRIPOS>ATOM
      1  C         19.6340  -21.4530  -11.6080 C.2     1  UNL1        0.0340
      2  C         20.1870  -20.8250  -12.7210 C.2     1  UNL1        0.0180
      3  C         21.5390  -21.0000  -13.0000 C.2     1  UNL1        0.0220
      4  C         22.3490  -21.8110  -12.1820 C.2     1  UNL1        0.0270
      5  C         21.8080  -22.4770  -11.0480 C.2     1  UNL1        0.0480
      6  C         20.4360  -22.2760  -10.8000 C.2     1  UNL1        0.0470
      7  N         22.5930  -23.3180  -10.2370 N.pl3   1  UNL1       -0.3750
      8  C         24.0070  -22.9210  -10.1410 C.3     1  UNL1        0.1340
      9  C         24.6950  -23.1050  -11.4840 C.3     1  UNL1        0.0990
     10  S         24.0710  -21.9070  -12.6940 S.3     1  UNL1       -0.1260
     11  C         18.1970  -21.2970  -11.2480 C.2     1  UNL1        0.2510
     12  N         17.6740  -22.2360  -10.3830 N.am    1  UNL1       -0.3570
     13  H         18.2090  -23.0650  -10.1630 H       1  UNL1        0.1620
     14  O         17.5320  -20.3930  -11.7430 O.2     1  UNL1       -0.2680
     15  C         16.2650  -22.2260  -10.0290 C.3     1  UNL1        0.1270
     16  C         15.8230  -23.5400   -9.3810 C.3     1  UNL1        0.0580
     17  C         15.9330  -23.4880   -7.8780 C.2     1  UNL1       -0.0570
     18  C         15.5360  -22.3390   -7.1810 C.2     1  UNL1        0.0080
     19  C         15.6550  -22.2780   -5.7900 C.2     1  UNL1        0.0190
     20  C         16.1630  -23.3650   -5.0740 C.2     1  UNL1       -0.0000
     21  C         16.5760  -24.5050   -5.7700 C.2     1  UNL1        0.0190
     22  C         16.4600  -24.5680   -7.1620 C.2     1  UNL1        0.0080
     23  S         16.3420  -23.3270   -3.2990 S.3     1  UNL1       -0.1340
     24  C         17.8720  -22.3660   -3.1530 C.3     1  UNL1        0.0950
     25  C         22.0110  -24.0280   -9.0880 C.3     1  UNL1        0.1610
     26  C         21.2790  -23.0920   -8.1460 C.2     1  UNL1       -0.0400
     27  C         21.9090  -21.9430   -7.6450 C.2     1  UNL1        0.0090
     28  C         21.2240  -21.0800   -6.7860 C.2     1  UNL1        0.0010
     29  C         19.9040  -21.3530   -6.4260 C.2     1  UNL1        0.0000
     30  C         19.2660  -22.4880   -6.9250 C.2     1  UNL1        0.0010
     31  C         19.9480  -23.3500   -7.7830 C.2     1  UNL1        0.0090
@<TRIPOS>BOND
     1     3     2    1
     2     3     4    2
     3     2     1    2
     4    10     4    1
     5    10     9    1
     6     4     5    1
     7    14    11    2
     8     1    11    1
     9     1     6    1
    10     9     8    1
    11    11    12   am
    12     5     6    2
    13     5     7    1
    14    12    13    1
    15    12    15    1
    16     7     8    1
    17     7    25    1
    18    15    16    1
    19    16    17    1
    20    25    26    1
    21    26    31    2
    22    26    27    1
    23    17    18    2
    24    17    22    1
    25    31    30    1
    26    27    28    2
    27    18    19    1
    28    22    21    2
    29    30    29    2
    30    28    29    1
    31    19    20    2
    32    21    20    1
    33    20    23    1
    34    23    24    1
