@<TRIPOS>MOLECULE
17952_out_ligand_01.pdbqt
 27 30 0 0 0
SMALL
GASTEIGER

@<TRIPOS>ATOM
      1  C         20.1700  -22.1310  -11.1250 C.2     1  UNL1        0.0320
      2  C         19.9690  -23.1670  -10.2050 C.2     1  UNL1        0.0170
      3  C         18.6970  -23.3840   -9.6690 C.2     1  UNL1        0.0100
      4  C         17.6100  -22.5870  -10.0550 C.2     1  UNL1       -0.0300
      5  C         17.8170  -21.5580  -10.9850 C.2     1  UNL1        0.0100
      6  C         19.0880  -21.3370  -11.5220 C.2     1  UNL1        0.0170
      7  C         16.2320  -22.8230   -9.4650 C.3     1  UNL1        0.3110
      8  N         16.1960  -22.7060   -7.9980 N.3     1  UNL1        0.0970
      9  C         15.9950  -24.0280   -7.3850 C.3     1  UNL1        0.2770
     10  C         15.7570  -23.8970   -5.8750 C.3     1  UNL1        0.0690
     11  C         16.7860  -23.0270   -5.2030 C.2     1  UNL1       -0.0490
     12  C         16.9320  -23.0560   -3.8090 C.2     1  UNL1        0.0070
     13  C         17.5600  -22.1390   -5.9700 C.2     1  UNL1       -0.0240
     14  C         17.8610  -22.2250   -3.1820 C.2     1  UNL1        0.0010
     15  C         18.6430  -21.3570   -3.9410 C.2     1  UNL1        0.0010
     16  C         18.4960  -21.3150   -5.3270 C.2     1  UNL1        0.0090
     17  C         17.4460  -22.1080   -7.4810 C.3     1  UNL1        0.3110
     18  C         21.5070  -21.8590  -11.7260 C.2     1  UNL1        0.2560
     19  O         21.5680  -21.1540  -12.7250 O.2     1  UNL1       -0.2670
     20  N         22.5780  -22.4150  -11.0500 N.am    1  UNL1       -0.3220
     21  H         22.3860  -22.8680  -10.1680 H       1  UNL1        0.1690
     22  C         23.9380  -22.3350  -11.4220 C.2     1  UNL1        0.0520
     23  C         24.7530  -21.4480  -10.7120 C.2     1  UNL1        0.0320
     24  C         26.1050  -21.3340  -11.0330 C.2     1  UNL1        0.0210
     25  C         26.6050  -22.1160  -12.0580 C.2     1  UNL1        0.1160
     26  N         25.8560  -22.9860  -12.7660 N.2     1  UNL1       -0.2710
     27  C         24.5410  -23.0760  -12.4330 C.2     1  UNL1        0.1450
@<TRIPOS>BOND
     1    26    27    1
     2    26    25    2
     3    19    18    2
     4    27    22    2
     5    25    24    1
     6    18     1    1
     7    18    20   am
     8     6     1    2
     9     6     5    1
    10    22    20    1
    11    22    23    1
    12     1     2    1
    13    20    21    1
    14    24    23    2
    15     5     4    2
    16     2     3    2
    17     4     3    1
    18     4     7    1
    19     7     8    1
    20     8    17    1
    21     8     9    1
    22    17    13    1
    23     9    10    1
    24    13    16    1
    25    13    11    2
    26    10    11    1
    27    16    15    2
    28    11    12    1
    29    15    14    1
    30    12    14    2
