@<TRIPOS>MOLECULE
17951_out_ligand_01.pdbqt
 36 38 0 0 0
SMALL
GASTEIGER

@<TRIPOS>ATOM
      1  N         20.3550  -22.4760   -8.0390 N.pl3   1  UNL1       -0.2630
      2  C         21.8260  -22.6930   -8.0360 C.3     1  UNL1        0.2450
      3  C         22.6090  -22.1130   -9.2070 C.2     1  UNL1        0.2410
      4  N         22.5220  -22.8820  -10.3590 N.am    1  UNL1       -0.3260
      5  H         22.0530  -23.7760  -10.2860 H       1  UNL1        0.1690
      6  O         23.2100  -21.0470   -9.0950 O.2     1  UNL1       -0.2710
      7  C         23.0760  -22.5930  -11.6250 C.2     1  UNL1        0.0340
      8  C         24.2810  -23.1200  -12.0920 C.2     1  UNL1        0.0300
      9  C         24.7700  -22.7660  -13.3560 C.2     1  UNL1        0.0190
     10  C         24.0560  -21.8870  -14.1740 C.2     1  UNL1        0.0320
     11  C         22.8530  -21.3460  -13.7090 C.2     1  UNL1        0.0190
     12  C         22.3700  -21.7010  -12.4430 C.2     1  UNL1        0.0300
     13  C         24.6230  -21.5380  -15.5040 C.2     1  UNL1        0.2490
     14  N         24.0710  -20.4770  -16.1690 N.am    1  UNL1       -0.3660
     15  H         23.1520  -20.1270  -15.9430 H       1  UNL1        0.1590
     16  H         24.3870  -20.3570  -17.1240 H       1  UNL1        0.1590
     17  O         25.5310  -22.1870  -16.0080 O.2     1  UNL1       -0.2680
     18  C         19.8120  -21.9480   -6.8120 C.2     1  UNL1        0.0460
     19  C         20.3590  -20.8400   -6.1610 C.2     1  UNL1        0.0300
     20  C         19.7460  -20.3240   -5.0190 C.2     1  UNL1        0.0030
     21  C         18.5700  -20.8970   -4.5350 C.2     1  UNL1        0.0160
     22  C         17.9900  -21.9900   -5.1930 C.2     1  UNL1        0.0500
     23  C         18.6160  -22.4990   -6.3450 C.2     1  UNL1        0.0460
     24  C         16.7010  -22.6050   -4.7090 C.3     1  UNL1        0.4170
     25  F         16.8260  -23.9330   -4.4310 F       1  UNL1       -0.1660
     26  F         15.7080  -22.5110   -5.6360 F       1  UNL1       -0.1660
     27  F         16.2110  -22.0310   -3.5750 F       1  UNL1       -0.1660
     28  S         19.3950  -23.6600   -8.8110 S.O2    1  UNL1        0.2650
     29  O         18.5130  -24.2720   -7.8410 O.2     1  UNL1       -0.2000
     30  O         20.2460  -24.4580   -9.6680 O.2     1  UNL1       -0.2000
     31  C         18.3640  -22.6710   -9.8720 C.2     1  UNL1        0.0800
     32  C         16.9970  -22.5690   -9.5870 C.2     1  UNL1        0.0250
     33  C         16.1890  -21.7660  -10.3910 C.2     1  UNL1        0.0020
     34  C         16.7440  -21.0820  -11.4740 C.2     1  UNL1        0.0000
     35  C         18.1060  -21.2000  -11.7630 C.2     1  UNL1        0.0020
     36  C         18.9240  -21.9970  -10.9620 C.2     1  UNL1        0.0250
@<TRIPOS>BOND
     1    16    14    1
     2    14    15    1
     3    14    13   am
     4    17    13    2
     5    13    10    1
     6    10    11    2
     7    10     9    1
     8    11    12    1
     9     9     8    2
    10    12     7    2
    11     8     7    1
    12    35    34    2
    13    35    36    1
    14     7     4    1
    15    34    33    1
    16    36    31    2
    17    33    32    2
    18     4     5    1
    19     4     3   am
    20    31    32    1
    21    31    28    1
    22    30    28    2
    23     3     6    2
    24     3     2    1
    25    28     1    1
    26    28    29    2
    27     1     2    1
    28     1    18    1
    29    18    23    2
    30    18    19    1
    31    23    22    1
    32    19    20    2
    33    26    24    1
    34    22    24    1
    35    22    21    2
    36    20    21    1
    37    24    25    1
    38    24    27    1
