@<TRIPOS>MOLECULE
17_out_ligand_01.pdbqt
 30 33 0 0 0
SMALL
GASTEIGER

@<TRIPOS>ATOM
      1  C         23.7170  -22.0880  -10.8090 C.2     1  UNL1       -0.0270
      2  C         23.5070  -22.3860   -9.4580 C.2     1  UNL1        0.0120
      3  C         22.2140  -22.4250   -8.9240 C.2     1  UNL1        0.0310
      4  C         21.0830  -22.1540   -9.7060 C.2     1  UNL1        0.0430
      5  C         21.2890  -21.8620  -11.0720 C.2     1  UNL1       -0.0300
      6  C         22.5930  -21.8530  -11.6090 C.2     1  UNL1        0.0190
      7  C         20.1390  -21.5950  -12.0080 C.3     1  UNL1        0.0420
      8  C         18.9200  -21.1270  -11.2370 C.3     1  UNL1        0.0250
      9  C         18.6350  -22.1180  -10.1220 C.3     1  UNL1        0.1330
     10  N         19.7470  -22.2260   -9.1680 N.am    1  UNL1       -0.3130
     11  C         19.5040  -22.2790   -7.7840 C.2     1  UNL1        0.2580
     12  O         20.2660  -21.8480   -6.9130 O.2     1  UNL1       -0.2670
     13  C         25.1260  -22.0790  -11.3710 C.3     1  UNL1        0.1790
     14  C         25.5150  -23.4050  -12.0870 C.3     1  UNL1        0.3080
     15  N         25.8150  -23.2550  -13.5270 N.3     1  UNL1        0.0910
     16  C         25.4690  -21.9270  -14.0620 C.3     1  UNL1        0.2730
     17  C         24.2510  -21.9240  -14.9890 C.3     1  UNL1        0.0340
     18  C         24.4250  -22.8790  -16.1790 C.3     1  UNL1       -0.0150
     19  C         24.9890  -22.1590  -17.4040 C.3     1  UNL1        0.0100
     20  C         25.3050  -24.0800  -15.8050 C.3     1  UNL1        0.0340
     21  C         25.2500  -24.3660  -14.3050 C.3     1  UNL1        0.2730
     22  O         26.0190  -21.7770  -10.2930 O.3     1  UNL1       -0.3890
     23  H         25.8200  -20.8690  -10.0020 H       1  UNL1        0.2100
     24  C         18.2190  -22.8560   -7.3010 C.2     1  UNL1        0.0320
     25  C         17.2320  -21.9950   -6.8140 C.2     1  UNL1        0.0200
     26  C         16.0270  -22.5040   -6.3180 C.2     1  UNL1        0.0430
     27  C         15.8230  -23.8820   -6.3110 C.2     1  UNL1        0.1160
     28  F         14.6580  -24.3720   -5.8610 F       1  UNL1       -0.2060
     29  C         16.8040  -24.7540   -6.7710 C.2     1  UNL1        0.0430
     30  C         18.0150  -24.2450   -7.2470 C.2     1  UNL1        0.0200
@<TRIPOS>BOND
     1    19    18    1
     2    18    20    1
     3    18    17    1
     4    20    21    1
     5    17    16    1
     6    21    15    1
     7    16    15    1
     8    15    14    1
     9    14    13    1
    10     7     8    1
    11     7     5    1
    12     6     5    1
    13     6     1    2
    14    13     1    1
    15    13    22    1
    16     8     9    1
    17     5     4    2
    18     1     2    1
    19    22    23    1
    20     9    10    1
    21     4    10    1
    22     4     3    1
    23     2     3    2
    24    10    11   am
    25    11    24    1
    26    11    12    2
    27    24    30    2
    28    24    25    1
    29    30    29    1
    30    25    26    2
    31    29    27    2
    32    26    27    1
    33    27    28    1
