@<TRIPOS>MOLECULE
18023_out_ligand_01.pdbqt
 29 32 0 0 0
SMALL
GASTEIGER

@<TRIPOS>ATOM
      1  C         22.8550  -22.5360   -9.5840 C.2     1  UNL1        0.0320
      2  C         22.5860  -21.8900   -8.3710 C.2     1  UNL1        0.0170
      3  C         21.3930  -22.1500   -7.6910 C.2     1  UNL1        0.0100
      4  C         20.4550  -23.0540   -8.2110 C.2     1  UNL1       -0.0300
      5  C         20.7250  -23.6840   -9.4340 C.2     1  UNL1        0.0100
      6  C         21.9150  -23.4240  -10.1190 C.2     1  UNL1        0.0170
      7  C         24.1070  -22.2840  -10.3490 C.2     1  UNL1        0.2510
      8  O         24.6230  -21.1720  -10.3500 O.2     1  UNL1       -0.2680
      9  N         24.6110  -23.3510  -11.0620 N.am    1  UNL1       -0.3530
     10  H         24.0100  -24.1430  -11.2430 H       1  UNL1        0.1630
     11  C         25.7540  -23.1700  -11.9250 C.3     1  UNL1        0.1610
     12  C         25.3480  -23.2470  -13.3730 C.2     1  UNL1       -0.0400
     13  C         24.7850  -22.1270  -14.0060 C.2     1  UNL1        0.0100
     14  C         24.4160  -22.1850  -15.3520 C.2     1  UNL1        0.0240
     15  C         24.6150  -23.3600  -16.0730 C.2     1  UNL1        0.0340
     16 CL         24.1610  -23.4320  -17.7300 Cl      1  UNL1       -0.0840
     17  C         25.1850  -24.4750  -15.4620 C.2     1  UNL1        0.0240
     18  C         25.5550  -24.4170  -14.1150 C.2     1  UNL1        0.0100
     19  C         19.1550  -23.3200   -7.4760 C.3     1  UNL1        0.3110
     20  N         18.2810  -22.1370   -7.4180 N.3     1  UNL1        0.0970
     21  C         16.9990  -22.3640   -8.1030 C.3     1  UNL1        0.2770
     22  C         16.1100  -23.4380   -7.4560 C.3     1  UNL1        0.0690
     23  C         16.0770  -23.3400   -5.9510 C.2     1  UNL1       -0.0490
     24  C         15.1430  -24.0880   -5.2230 C.2     1  UNL1        0.0070
     25  C         17.0200  -22.5470   -5.2720 C.2     1  UNL1       -0.0240
     26  C         15.1290  -24.0340   -3.8300 C.2     1  UNL1        0.0010
     27  C         16.0490  -23.2350   -3.1550 C.2     1  UNL1        0.0010
     28  C         16.9880  -22.4920   -3.8720 C.2     1  UNL1        0.0090
     29  C         18.0180  -21.6980   -6.0330 C.3     1  UNL1        0.3110
@<TRIPOS>BOND
     1    16    15    1
     2    15    17    2
     3    15    14    1
     4    17    18    1
     5    14    13    2
     6    18    12    2
     7    13    12    1
     8    12    11    1
     9    11     9    1
    10    10     9    1
    11     9     7   am
    12     8     7    2
    13     7     1    1
    14     6     1    2
    15     6     5    1
    16     1     2    1
    17     5     4    2
    18     2     3    2
    19     4     3    1
    20     4    19    1
    21    21    22    1
    22    21    20    1
    23    19    20    1
    24    22    23    1
    25    20    29    1
    26    29    25    1
    27    23    25    2
    28    23    24    1
    29    25    28    1
    30    24    26    2
    31    28    27    2
    32    26    27    1
