@<TRIPOS>MOLECULE
18047_out_ligand_01.pdbqt
 35 39 0 0 0
SMALL
GASTEIGER

@<TRIPOS>ATOM
      1  N         19.5380  -21.4930   -6.4130 N.1     1  UNL1       -0.1920
      2  C         19.2460  -22.5480   -6.7990 C.1     1  UNL1        0.0980
      3  C         18.8920  -23.8430   -7.2860 C.2     1  UNL1        0.0550
      4  C         19.4780  -24.3690   -8.3880 C.2     1  UNL1        0.0350
      5  C         17.8550  -24.5840   -6.4650 C.3     1  UNL1        0.1810
      6  N         17.8770  -24.1600   -5.0490 N.pl3   1  UNL1       -0.2700
      7  C         16.6400  -23.4960   -4.8990 C.2     1  UNL1        0.0310
      8  H         18.6570  -23.5700   -4.7750 H       1  UNL1        0.1290
      9  C         16.1870  -22.8200   -3.7850 C.2     1  UNL1        0.0250
     10  C         15.8550  -23.6230   -6.0430 C.2     1  UNL1        0.0310
     11  C         14.9110  -22.2490   -3.8410 C.2     1  UNL1        0.0020
     12  C         14.1180  -22.3780   -4.9970 C.2     1  UNL1        0.0020
     13  C         14.5890  -23.0780   -6.1110 C.2     1  UNL1        0.0250
     14  N         16.5100  -24.3820   -7.0350 N.pl3   1  UNL1       -0.2700
     15  H         16.4760  -23.9280   -7.9420 H       1  UNL1        0.1290
     16  C         20.4580  -23.7760   -9.2430 C.2     1  UNL1       -0.0070
     17  C         21.8170  -23.9930   -9.1960 C.2     1  UNL1        0.1040
     18  N         22.4000  -23.2440  -10.1870 N.pl3   1  UNL1       -0.3460
     19  C         21.4450  -22.4960  -10.8450 C.2     1  UNL1        0.0450
     20  C         21.5600  -21.5790  -11.9030 C.2     1  UNL1        0.0300
     21  C         20.2110  -22.8080  -10.2630 C.2     1  UNL1        0.0020
     22  C         20.3950  -20.9640  -12.3720 C.2     1  UNL1        0.0020
     23  C         19.1550  -21.2540  -11.8080 C.2     1  UNL1        0.0010
     24  C         19.0500  -22.1730  -10.7590 C.2     1  UNL1        0.0140
     25  C         23.8260  -23.2430  -10.4810 C.3     1  UNL1        0.2310
     26  C         24.3630  -21.8700  -10.8420 C.2     1  UNL1        0.2400
     27  O         24.3630  -20.9730   -9.9970 O.2     1  UNL1       -0.2710
     28  N         24.8860  -21.7870  -12.1260 N.am    1  UNL1       -0.3260
     29  H         24.7860  -22.6030  -12.7220 H       1  UNL1        0.1690
     30  C         25.5410  -20.6910  -12.7240 C.2     1  UNL1        0.0340
     31  C         26.4970  -19.9040  -12.0810 C.2     1  UNL1        0.0290
     32  C         27.1200  -18.8520  -12.7600 C.2     1  UNL1        0.0020
     33  C         26.7920  -18.5770  -14.0860 C.2     1  UNL1        0.0000
     34  C         25.8310  -19.3500  -14.7360 C.2     1  UNL1        0.0020
     35  C         25.2080  -20.4010  -14.0580 C.2     1  UNL1        0.0290
@<TRIPOS>BOND
     1    34    33    2
     2    34    35    1
     3    33    32    1
     4    35    30    2
     5    32    31    2
     6    30    28    1
     7    30    31    1
     8    29    28    1
     9    22    20    1
    10    22    23    2
    11    28    26   am
    12    20    19    2
    13    23    24    1
    14    19    21    1
    15    19    18    1
    16    26    25    1
    17    26    27    2
    18    24    21    2
    19    25    18    1
    20    21    16    1
    21    18    17    1
    22    16    17    2
    23    16     4    1
    24     4     3    2
    25    15    14    1
    26     3     2    1
    27     3     5    1
    28    14     5    1
    29    14    10    1
    30     2     1    3
    31     5     6    1
    32    13    10    1
    33    13    12    2
    34    10     7    2
    35     6     7    1
    36     6     8    1
    37    12    11    1
    38     7     9    1
    39    11     9    2
