@<TRIPOS>MOLECULE
1805_out_ligand_01.pdbqt
 35 39 0 0 0
SMALL
GASTEIGER

@<TRIPOS>ATOM
      1  C         23.1490  -21.8500  -12.4930 C.2     1  UNL1        0.2400
      2  N         23.3370  -22.7070  -11.4150 N.2     1  UNL1       -0.1980
      3  C         22.1270  -22.8000  -10.8960 C.3     1  UNL1        0.2230
      4  C         21.7130  -23.5580   -9.7470 C.2     1  UNL1        0.2960
      5  O         22.4970  -24.2350   -9.0840 O.2     1  UNL1       -0.2640
      6  N         20.3420  -23.4640   -9.4240 N.am    1  UNL1       -0.3050
      7  C         19.4320  -22.6600  -10.2020 C.2     1  UNL1        0.0670
      8  C         18.0670  -22.5550   -9.9040 C.2     1  UNL1        0.0390
      9  C         17.2020  -21.7660  -10.6850 C.2     1  UNL1       -0.0600
     10  C         15.7510  -21.6430  -10.3130 C.3     1  UNL1        0.0480
     11  C         17.7110  -21.0510  -11.7730 C.2     1  UNL1        0.0090
     12  C         19.0610  -21.1380  -12.0970 C.2     1  UNL1        0.0340
     13  C         19.9000  -21.9380  -11.3140 C.2     1  UNL1        0.0870
     14  N         21.2580  -22.0450  -11.6160 N.pl3   1  UNL1       -0.2060
     15  N         21.8790  -21.4310  -12.6390 N.pl3   1  UNL1       -0.1390
     16  C         24.2710  -21.4580  -13.3800 C.2     1  UNL1        0.2950
     17  N         23.9530  -21.6780  -14.7110 N.am    1  UNL1       -0.3200
     18  H         23.0160  -22.0470  -14.8600 H       1  UNL1        0.1690
     19  O         25.3230  -20.9960  -12.9510 O.2     1  UNL1       -0.2640
     20  C         24.7440  -21.4430  -15.8500 C.2     1  UNL1        0.0360
     21  C         25.0620  -22.5520  -16.6420 C.2     1  UNL1        0.0290
     22  C         25.8450  -22.4050  -17.7870 C.2     1  UNL1        0.0040
     23  C         26.3130  -21.1440  -18.1510 C.2     1  UNL1        0.0180
     24  C         25.9980  -20.0210  -17.3780 C.2     1  UNL1        0.0020
     25  C         25.2240  -20.1830  -16.2210 C.2     1  UNL1        0.0480
     26  S         26.6500  -18.4390  -17.9000 S.3     1  UNL1       -0.1340
     27  C         26.6900  -17.5330  -16.3290 C.3     1  UNL1        0.0950
     28  C         19.8810  -24.2030   -8.2450 C.3     1  UNL1        0.1710
     29  C         19.2550  -23.3220   -7.1840 C.2     1  UNL1       -0.0380
     30  C         19.8010  -22.0680   -6.8690 C.2     1  UNL1        0.0090
     31  C         19.2240  -21.2630   -5.8830 C.2     1  UNL1        0.0020
     32  C         18.0980  -21.7070   -5.1900 C.2     1  UNL1        0.0240
     33  C         17.5600  -22.9570   -5.4820 C.2     1  UNL1        0.0340
     34 CL         16.1770  -23.5140   -4.6220 Cl      1  UNL1       -0.0840
     35  C         18.1340  -23.7650   -6.4640 C.2     1  UNL1        0.0320
@<TRIPOS>BOND
     1    23    22    2
     2    23    24    1
     3    26    24    1
     4    26    27    1
     5    22    21    1
     6    24    25    2
     7    21    20    2
     8    25    20    1
     9    20    17    1
    10    18    17    1
    11    17    16   am
    12    16    19    2
    13    16     1    1
    14    15     1    1
    15    15    14    1
    16     1     2    2
    17    12    11    2
    18    12    13    1
    19    11     9    1
    20    14    13    1
    21    14     3    1
    22     2     3    1
    23    13     7    2
    24     3     4    1
    25     9    10    1
    26     9     8    2
    27     7     8    1
    28     7     6    1
    29     4     6   am
    30     4     5    2
    31     6    28    1
    32    28    29    1
    33    29    30    2
    34    29    35    1
    35    30    31    1
    36    35    33    2
    37    31    32    2
    38    33    32    1
    39    33    34    1
