@<TRIPOS>MOLECULE
18072_out_ligand_01.pdbqt
 36 38 0 0 0
SMALL
GASTEIGER

@<TRIPOS>ATOM
      1  C         15.6200  -22.8940   -6.5410 C.2     1  UNL1        0.0650
      2  C         16.5440  -22.5580   -5.6260 C.2     1  UNL1        0.1150
      3  C         16.1630  -22.4410   -4.2590 C.1     1  UNL1        0.1050
      4  N         15.8390  -22.3010   -3.1530 N.1     1  UNL1       -0.1910
      5  C         17.9860  -22.3450   -5.9400 C.2     1  UNL1        0.2660
      6  O         18.6320  -21.5250   -5.2990 O.2     1  UNL1       -0.2670
      7  N         18.4390  -23.1380   -6.9780 N.am    1  UNL1       -0.3220
      8  H         17.7780  -23.7670   -7.4200 H       1  UNL1        0.1690
      9  C         19.7370  -23.1530   -7.5360 C.2     1  UNL1        0.0350
     10  C         20.6370  -22.0900   -7.4530 C.2     1  UNL1        0.0300
     11  C         21.8990  -22.1790   -8.0500 C.2     1  UNL1        0.0090
     12  C         22.2790  -23.3270   -8.7510 C.2     1  UNL1       -0.0620
     13  C         23.6360  -23.4250   -9.3780 C.3     1  UNL1        0.0480
     14  C         21.3880  -24.4030   -8.8130 C.2     1  UNL1        0.0090
     15  C         20.1290  -24.3150   -8.2130 C.2     1  UNL1        0.0300
     16  C         15.8060  -23.0210   -7.9470 C.2     1  UNL1        0.0770
     17  C         15.4860  -24.0210   -8.8580 C.2     1  UNL1        0.0400
     18  C         15.9460  -23.6220  -10.1360 C.2     1  UNL1        0.0370
     19  C         16.5340  -22.3910   -9.9630 C.2     1  UNL1        0.0710
     20  O         16.4670  -22.0370   -8.6510 O.2     1  UNL1       -0.3130
     21  C         17.1880  -21.4030  -10.8600 C.3     1  UNL1        0.1880
     22  N         18.5120  -21.8440  -11.2150 N.am    1  UNL1       -0.3470
     23  C         19.5040  -20.9910  -11.6260 C.2     1  UNL1        0.3100
     24  O         19.4170  -19.7770  -11.7480 O.2     1  UNL1       -0.2620
     25  H         18.7410  -22.8330  -11.1790 H       1  UNL1        0.1630
     26  C         20.8300  -21.7040  -11.9680 C.2     1  UNL1        0.3130
     27  N         21.6020  -20.9620  -12.8360 N.am    1  UNL1       -0.3190
     28  H         21.1940  -20.0670  -13.1000 H       1  UNL1        0.1690
     29  O         21.0470  -22.8000  -11.4730 O.2     1  UNL1       -0.2620
     30  C         22.8410  -21.3070  -13.3980 C.2     1  UNL1        0.0350
     31  C         23.6280  -22.3700  -12.9500 C.2     1  UNL1        0.0300
     32  C         24.8440  -22.6650  -13.5750 C.2     1  UNL1        0.0090
     33  C         25.2940  -21.8970  -14.6560 C.2     1  UNL1       -0.0620
     34  C         26.5840  -22.2210  -15.3490 C.3     1  UNL1        0.0480
     35  C         24.5070  -20.8330  -15.1030 C.2     1  UNL1        0.0090
     36  C         23.2910  -20.5380  -14.4770 C.2     1  UNL1        0.0300
@<TRIPOS>BOND
     1    34    33    1
     2    35    33    2
     3    35    36    1
     4    33    32    1
     5    36    30    2
     6    32    31    2
     7    30    31    1
     8    30    27    1
     9    28    27    1
    10    27    26   am
    11    26    23    1
    12    26    29    2
    13    24    23    2
    14    23    22   am
    15    22    25    1
    16    22    21    1
    17    21    19    1
    18    18    19    2
    19    18    17    1
    20    19    20    1
    21    13    12    1
    22    17    16    2
    23    14    12    2
    24    14    15    1
    25    12    11    1
    26    20    16    1
    27    15     9    2
    28    11    10    2
    29    16     1    1
    30     9    10    1
    31     9     7    1
    32     8     7    1
    33     7     5   am
    34     1     2    2
    35     5     2    1
    36     5     6    2
    37     2     3    1
    38     3     4    3
