@<TRIPOS>MOLECULE
18111_out_ligand_01.pdbqt
 38 41 0 0 0
SMALL
GASTEIGER

@<TRIPOS>ATOM
      1  N         15.0980  -22.4250   -3.4360 N.1     1  UNL1       -0.1910
      2  C         15.9360  -22.5140   -4.2350 C.1     1  UNL1        0.1050
      3  C         16.9810  -22.5440   -5.2020 C.2     1  UNL1        0.1130
      4  C         18.0500  -21.7300   -5.0730 C.2     1  UNL1        0.0390
      5  C         16.8420  -23.5300   -6.3070 C.2     1  UNL1        0.2620
      6  O         17.2690  -24.6750   -6.1980 O.2     1  UNL1       -0.2670
      7  N         16.1760  -23.0580   -7.4110 N.am    1  UNL1       -0.3560
      8  H         15.7020  -22.1630   -7.3530 H       1  UNL1        0.1620
      9  C         15.8270  -23.9250   -8.5210 C.3     1  UNL1        0.1270
     10  C         16.9530  -24.0370   -9.5540 C.3     1  UNL1        0.0600
     11  C         17.2550  -22.7350  -10.2360 C.2     1  UNL1       -0.0290
     12  C         16.3680  -21.6970  -10.4550 C.2     1  UNL1        0.0960
     13  N         17.0320  -20.6950  -11.1140 N.pl3   1  UNL1       -0.3650
     14  C         18.3390  -21.0570  -11.3360 C.2     1  UNL1        0.0420
     15  H         16.6280  -19.8110  -11.3950 H       1  UNL1        0.1650
     16  C         19.3740  -20.3570  -11.9720 C.2     1  UNL1        0.0300
     17  C         18.5140  -22.3280  -10.7880 C.2     1  UNL1       -0.0020
     18  C         20.6260  -20.9760  -12.0470 C.2     1  UNL1        0.0020
     19  C         20.8340  -22.2410  -11.5050 C.2     1  UNL1        0.0010
     20  C         19.7880  -22.9270  -10.8740 C.2     1  UNL1        0.0140
     21  C         19.2430  -21.7060   -5.9270 C.2     1  UNL1       -0.0340
     22  C         20.2240  -20.7350   -5.7150 C.2     1  UNL1        0.0140
     23  C         21.3790  -20.7160   -6.5040 C.2     1  UNL1        0.0370
     24  C         21.5750  -21.6680   -7.5090 C.2     1  UNL1        0.0690
     25  C         20.6040  -22.6470   -7.7130 C.2     1  UNL1        0.0370
     26  C         19.4490  -22.6710   -6.9220 C.2     1  UNL1        0.0140
     27  O         22.7580  -21.5480   -8.1850 O.2     1  UNL1       -0.3420
     28  C         23.1470  -22.6180   -9.0420 C.3     1  UNL1        0.2780
     29  C         24.0170  -22.2140  -10.2400 C.2     1  UNL1        0.2460
     30  O         24.5320  -21.1010  -10.2930 O.2     1  UNL1       -0.2710
     31  N         24.1510  -23.2330  -11.1670 N.am    1  UNL1       -0.3250
     32  H         23.6390  -24.0820  -10.9530 H       1  UNL1        0.1690
     33  C         24.8440  -23.2050  -12.3930 C.2     1  UNL1        0.0340
     34  C         25.9810  -23.9680  -12.6640 C.2     1  UNL1        0.0290
     35  C         26.6170  -23.8720  -13.9070 C.2     1  UNL1        0.0020
     36  C         26.1180  -23.0170  -14.8890 C.2     1  UNL1        0.0000
     37  C         24.9820  -22.2540  -14.6290 C.2     1  UNL1        0.0020
     38  C         24.3480  -22.3490  -13.3860 C.2     1  UNL1        0.0290
@<TRIPOS>BOND
     1    36    37    2
     2    36    35    1
     3    37    38    1
     4    35    34    2
     5    38    33    2
     6    34    33    1
     7    33    31    1
     8    18    16    1
     9    18    19    2
    10    16    14    2
    11    19    20    1
    12    15    13    1
    13    14    13    1
    14    14    17    1
    15    31    32    1
    16    31    29   am
    17    13    12    1
    18    20    17    2
    19    17    11    1
    20    12    11    2
    21    30    29    2
    22    29    28    1
    23    11    10    1
    24    10     9    1
    25    28    27    1
    26     9     7    1
    27    27    24    1
    28    25    24    2
    29    25    26    1
    30    24    23    1
    31     7     8    1
    32     7     5   am
    33    26    21    2
    34    23    22    2
    35     5     6    2
    36     5     3    1
    37    21    22    1
    38    21     4    1
    39     3     4    2
    40     3     2    1
    41     2     1    3
