@<TRIPOS>MOLECULE
18117_out_ligand_01.pdbqt
 36 38 0 0 0
SMALL
GASTEIGER

@<TRIPOS>ATOM
      1  C         23.6140  -21.4170  -13.1520 C.2     1  UNL1        0.0870
      2  C         24.9150  -21.1050  -13.0390 C.2     1  UNL1        0.1180
      3  C         25.5590  -21.0580  -11.7180 C.2     1  UNL1        0.2720
      4  O         26.7550  -20.7980  -11.6420 O.2     1  UNL1       -0.2660
      5  N         24.7980  -21.3060  -10.6100 N.am    1  UNL1       -0.1850
      6  C         23.5500  -21.6120  -10.7640 C.2     1  UNL1        0.1730
      7  N         22.8850  -21.6970  -11.9880 N.pl3   1  UNL1       -0.3160
      8  S         22.6780  -21.9490   -9.2600 S.3     1  UNL1       -0.0820
      9  C         22.4410  -23.7450   -9.3490 C.3     1  UNL1        0.1850
     10  C         21.1510  -24.1610   -8.6560 C.2     1  UNL1        0.2310
     11  O         20.7030  -25.2970   -8.7990 O.2     1  UNL1       -0.2720
     12  N         20.5810  -23.1500   -7.9050 N.am    1  UNL1       -0.3270
     13  H         21.1660  -22.3230   -7.7640 H       1  UNL1        0.1690
     14  C         19.3580  -23.1700   -7.2110 C.2     1  UNL1        0.0340
     15  C         18.4860  -24.2640   -7.2000 C.2     1  UNL1        0.0310
     16  C         17.2830  -24.2060   -6.4890 C.2     1  UNL1        0.0270
     17  C         16.9520  -23.0480   -5.7830 C.2     1  UNL1        0.0740
     18  C         17.8000  -21.9420   -5.7970 C.2     1  UNL1        0.0270
     19  C         19.0010  -22.0090   -6.5120 C.2     1  UNL1        0.0310
     20  S         15.4270  -22.9880   -4.8800 S.O2    1  UNL1        0.2390
     21  O         15.0820  -24.3280   -4.4700 O.2     1  UNL1       -0.2060
     22  O         14.5050  -22.1270   -5.5860 O.2     1  UNL1       -0.2060
     23  N         15.8840  -22.1230   -3.5080 N.3     1  UNL1       -0.2250
     24  H         15.2980  -21.3060   -3.3340 H       1  UNL1        0.1360
     25  H         15.9030  -22.7590   -2.7100 H       1  UNL1        0.1360
     26  C         21.4860  -22.1820  -12.0820 C.3     1  UNL1        0.1370
     27  C         20.4570  -21.0370  -12.1090 C.3     1  UNL1        0.0590
     28  C         19.1360  -21.3830  -11.4660 C.2     1  UNL1       -0.0570
     29  C         18.0870  -20.4530  -11.4490 C.2     1  UNL1        0.0070
     30  C         16.8550  -20.7850  -10.8840 C.2     1  UNL1        0.0010
     31  C         16.6590  -22.0500  -10.3310 C.2     1  UNL1        0.0000
     32  C         17.6940  -22.9820  -10.3400 C.2     1  UNL1        0.0010
     33  C         18.9280  -22.6520  -10.9050 C.2     1  UNL1        0.0070
     34  N         23.0530  -21.4500  -14.4180 N.pl3   1  UNL1       -0.2880
     35  H         22.0350  -21.4550  -14.4160 H       1  UNL1        0.1250
     36  H         23.3880  -22.2430  -14.9640 H       1  UNL1        0.1250
@<TRIPOS>BOND
     1    36    34    1
     2    34    35    1
     3    34     1    1
     4     1     2    2
     5     1     7    1
     6     2     3    1
     7    27    26    1
     8    27    28    1
     9    26     7    1
    10     7     6    1
    11     3     4    2
    12     3     5    1
    13    28    29    2
    14    28    33    1
    15    29    30    1
    16    33    32    2
    17    30    31    2
    18     6     5    2
    19     6     8    1
    20    32    31    1
    21     9     8    1
    22     9    10    1
    23    11    10    2
    24    10    12   am
    25    12    13    1
    26    12    14    1
    27    14    15    2
    28    14    19    1
    29    15    16    1
    30    19    18    2
    31    16    17    2
    32    18    17    1
    33    17    20    1
    34    22    20    2
    35    20    21    2
    36    20    23    1
    37    23    24    1
    38    23    25    1
