@<TRIPOS>MOLECULE
18121_out_ligand_01.pdbqt
 33 36 0 0 0
SMALL
GASTEIGER

@<TRIPOS>ATOM
      1  N         15.5120  -22.4770  -10.0180 N.1     1  UNL1       -0.1910
      2  C         15.8800  -22.8030   -8.9660 C.1     1  UNL1        0.1010
      3  C         16.3250  -23.1910   -7.6580 C.2     1  UNL1        0.0690
      4  C         15.4900  -22.9380   -6.5590 C.2     1  UNL1        0.0640
      5  C         15.9410  -23.3120   -5.3110 C.2     1  UNL1        0.1060
      6  C         17.1630  -23.9150   -5.1300 C.2     1  UNL1        0.1060
      7  C         18.0100  -24.1800   -6.1850 C.2     1  UNL1        0.0650
      8  C         17.5910  -23.7970   -7.4660 C.2     1  UNL1        0.0460
      9  O         17.4080  -24.2070   -3.8250 O.2     1  UNL1       -0.3230
     10  C         16.1950  -23.7300   -3.2040 C.3     1  UNL1        0.3520
     11  O         15.2670  -23.1460   -4.1420 O.2     1  UNL1       -0.3230
     12  N         18.4330  -24.1200   -8.5910 N.pl3   1  UNL1       -0.1800
     13  H         18.0810  -23.6930   -9.4530 H       1  UNL1        0.1460
     14  S         20.0470  -23.5830   -8.4170 S.O2    1  UNL1        0.2450
     15  O         20.0540  -22.7010   -7.2700 O.2     1  UNL1       -0.2060
     16  O         20.9490  -24.7090   -8.5200 O.2     1  UNL1       -0.2060
     17  C         20.2250  -22.5990   -9.8810 C.2     1  UNL1        0.0750
     18  C         19.1220  -21.8990  -10.3790 C.2     1  UNL1        0.0250
     19  C         19.2590  -21.1230  -11.5310 C.2     1  UNL1        0.0030
     20  C         20.4900  -21.0610  -12.1900 C.2     1  UNL1        0.0170
     21  C         21.5850  -21.7870  -11.7030 C.2     1  UNL1        0.0330
     22  C         21.4560  -22.5550  -10.5400 C.2     1  UNL1        0.0410
     23  C         22.9150  -21.7340  -12.3700 C.2     1  UNL1        0.2560
     24  O         23.9090  -21.9220  -11.6790 O.2     1  UNL1       -0.2670
     25  N         22.8740  -21.5050  -13.7320 N.am    1  UNL1       -0.3230
     26  H         21.9610  -21.5020  -14.1700 H       1  UNL1        0.1690
     27  C         23.9700  -21.3590  -14.6080 C.2     1  UNL1        0.0350
     28  C         24.2740  -22.4480  -15.4400 C.2     1  UNL1        0.0320
     29  C         25.3390  -22.3780  -16.3420 C.2     1  UNL1        0.0440
     30  C         26.1000  -21.2200  -16.4130 C.2     1  UNL1        0.1160
     31  F         27.1210  -21.1520  -17.2770 F       1  UNL1       -0.2060
     32  C         25.8150  -20.1310  -15.6000 C.2     1  UNL1        0.0440
     33  C         24.7480  -20.2000  -14.6970 C.2     1  UNL1        0.0320
@<TRIPOS>BOND
     1    31    30    1
     2    30    29    2
     3    30    32    1
     4    29    28    1
     5    32    33    2
     6    28    27    2
     7    33    27    1
     8    27    25    1
     9    26    25    1
    10    25    23   am
    11    23    21    1
    12    23    24    2
    13    20    21    2
    14    20    19    1
    15    21    22    1
    16    19    18    2
    17    22    17    2
    18    18    17    1
    19     1     2    3
    20    17    14    1
    21    13    12    1
    22     2     3    1
    23    12    14    1
    24    12     8    1
    25    16    14    2
    26    14    15    2
    27     3     8    2
    28     3     4    1
    29     8     7    1
    30     4     5    2
    31     7     6    2
    32     5     6    1
    33     5    11    1
    34     6     9    1
    35    11    10    1
    36     9    10    1
