@<TRIPOS>MOLECULE
18153_out_ligand_01.pdbqt
 31 34 0 0 0
SMALL
GASTEIGER

@<TRIPOS>ATOM
      1  C         20.7210  -22.3330   -7.4270 C.2     1  UNL1        0.0320
      2  C         21.7520  -21.4200   -7.6560 C.2     1  UNL1        0.0190
      3  C         22.8560  -21.7860   -8.4330 C.2     1  UNL1        0.0300
      4  C         22.9690  -23.0710   -8.9860 C.2     1  UNL1        0.0280
      5  C         21.9010  -23.9530   -8.7950 C.2     1  UNL1        0.0300
      6  C         20.7890  -23.5980   -8.0170 C.2     1  UNL1        0.0190
      7  N         24.0650  -23.3510   -9.7960 N.pl3   1  UNL1       -0.3900
      8  H         24.2340  -24.3530   -9.9100 H       1  UNL1        0.1590
      9  C         24.3330  -22.6210  -11.0340 C.3     1  UNL1        0.1270
     10  C         23.3520  -22.9710  -12.1480 C.3     1  UNL1        0.1050
     11  C         22.5570  -21.7680  -12.6250 C.2     1  UNL1        0.1840
     12  O         23.0420  -20.9260  -13.3820 O.2     1  UNL1       -0.2900
     13  C         21.1970  -21.6700  -12.1350 C.2     1  UNL1        0.1220
     14  C         20.2570  -20.6670  -12.2750 C.2     1  UNL1        0.0550
     15  C         19.0900  -21.0930  -11.5910 C.2     1  UNL1        0.0010
     16  C         17.8100  -20.5610  -11.3540 C.2     1  UNL1        0.0140
     17  C         19.3960  -22.3440  -11.0700 C.2     1  UNL1        0.0860
     18  C         16.8970  -21.3150  -10.6040 C.2     1  UNL1        0.0010
     19  C         17.2440  -22.5700  -10.0960 C.2     1  UNL1        0.0030
     20  C         18.5120  -23.1160  -10.3200 C.2     1  UNL1        0.0380
     21  O         20.6700  -22.6940  -11.3970 O.2     1  UNL1       -0.3060
     22  C         19.5640  -21.9030   -6.5940 C.2     1  UNL1        0.2520
     23  O         19.6330  -20.8740   -5.9310 O.2     1  UNL1       -0.2680
     24  N         18.4600  -22.7310   -6.6000 N.am    1  UNL1       -0.3520
     25  H         18.4750  -23.5870   -7.1350 H       1  UNL1        0.1630
     26  C         17.2410  -22.3850   -5.8830 C.3     1  UNL1        0.0840
     27  C         17.2680  -22.9530   -4.4630 C.3     1  UNL1        0.0250
     28  C         16.0460  -22.5180   -3.6510 C.3     1  UNL1        0.0020
     29  C         14.8010  -22.2680   -4.5060 C.3     1  UNL1        0.0000
     30  C         14.7890  -23.1400   -5.7540 C.3     1  UNL1        0.0020
     31  C         16.0010  -22.8710   -6.6520 C.3     1  UNL1        0.0250
@<TRIPOS>BOND
     1    12    11    2
     2    11    10    1
     3    11    13    1
     4    14    13    2
     5    14    15    1
     6    10     9    1
     7    13    21    1
     8    15    16    2
     9    15    17    1
    10    21    17    1
    11    16    18    1
    12    17    20    2
    13     9     7    1
    14    18    19    2
    15    20    19    1
    16     8     7    1
    17     7     4    1
    18     4     5    2
    19     4     3    1
    20     5     6    1
    21     3     2    2
    22     6     1    2
    23     2     1    1
    24     1    22    1
    25    25    24    1
    26    31    26    1
    27    31    30    1
    28    24    22   am
    29    24    26    1
    30    22    23    2
    31    26    27    1
    32    30    29    1
    33    29    28    1
    34    27    28    1
