@<TRIPOS>MOLECULE
18167_out_ligand_01.pdbqt
 41 45 0 0 0
SMALL
GASTEIGER

@<TRIPOS>ATOM
      1  C         22.5700  -23.2750   -9.6070 C.2     1  UNL1        0.1400
      2  N         23.7770  -23.7630   -9.2460 N.2     1  UNL1       -0.2240
      3  C         24.8280  -23.5500  -10.0510 C.2     1  UNL1        0.2370
      4  N         24.8500  -22.9050  -11.2230 N.2     1  UNL1       -0.2230
      5  C         23.6360  -22.4440  -11.5940 C.2     1  UNL1        0.1500
      6  C         22.4710  -22.5950  -10.8450 C.2     1  UNL1        0.0690
      7  C         21.4230  -21.9660  -11.5820 C.2     1  UNL1        0.0080
      8  C         21.9810  -21.4350  -12.7240 C.2     1  UNL1        0.1120
      9  N         23.3400  -21.7140  -12.7490 N.pl3   1  UNL1       -0.3050
     10  N         21.4960  -23.4270   -8.7610 N.pl3   1  UNL1       -0.3740
     11  H         20.9270  -24.2560   -8.8450 H       1  UNL1        0.1610
     12  C         21.2940  -22.5790   -7.6010 C.3     1  UNL1        0.1260
     13  C         20.0060  -21.7470   -7.6890 C.3     1  UNL1        0.0580
     14  C         18.9150  -22.2180   -6.7500 C.2     1  UNL1       -0.0570
     15  C         18.2430  -23.4260   -6.9950 C.2     1  UNL1        0.0090
     16  C         17.2160  -23.8520   -6.1520 C.2     1  UNL1        0.0250
     17  C         16.8600  -23.0620   -5.0570 C.2     1  UNL1        0.0740
     18  C         17.5130  -21.8520   -4.8020 C.2     1  UNL1        0.0250
     19  C         18.5390  -21.4330   -5.6500 C.2     1  UNL1        0.0090
     20  S         15.5430  -23.5660   -3.9900 S.O2    1  UNL1        0.2390
     21  O         16.0210  -24.6430   -3.1540 O.2     1  UNL1       -0.2060
     22  O         14.9130  -22.3830   -3.4510 O.2     1  UNL1       -0.2060
     23  N         14.4440  -24.2030   -5.0920 N.3     1  UNL1       -0.2250
     24  H         14.9230  -24.8850   -5.6830 H       1  UNL1        0.1360
     25  H         13.6210  -24.6060   -4.6500 H       1  UNL1        0.1360
     26  C         20.0030  -21.8810  -11.3080 C.2     1  UNL1       -0.0240
     27  C         19.3150  -22.9760  -10.7770 C.2     1  UNL1        0.0120
     28  C         17.9440  -22.8870  -10.5330 C.2     1  UNL1        0.0010
     29  C         17.2610  -21.7070  -10.8150 C.2     1  UNL1        0.0000
     30  C         17.9430  -20.6100  -11.3420 C.2     1  UNL1        0.0010
     31  C         19.3140  -20.6980  -11.5860 C.2     1  UNL1        0.0120
     32  C         24.2390  -21.3090  -13.7960 C.2     1  UNL1        0.0410
     33  C         25.1050  -20.2200  -13.6030 C.2     1  UNL1        0.0300
     34  C         25.9880  -19.8190  -14.6090 C.2     1  UNL1        0.0030
     35  C         26.0130  -20.4910  -15.8290 C.2     1  UNL1        0.0160
     36  C         25.1540  -21.5730  -16.0540 C.2     1  UNL1        0.0500
     37  C         24.2730  -21.9780  -15.0300 C.2     1  UNL1        0.0460
     38  C         25.1640  -22.3150  -17.3700 C.3     1  UNL1        0.4170
     39  F         26.2460  -22.0320  -18.1400 F       1  UNL1       -0.1660
     40  F         25.1650  -23.6620  -17.2110 F       1  UNL1       -0.1660
     41  F         24.0820  -22.0340  -18.1460 F       1  UNL1       -0.1660
@<TRIPOS>BOND
     1    41    38    1
     2    39    38    1
     3    38    40    1
     4    38    36    1
     5    36    35    2
     6    36    37    1
     7    35    34    1
     8    37    32    2
     9    34    33    2
    10    32    33    1
    11    32     9    1
    12     9     8    1
    13     9     5    1
    14     8     7    2
    15     5     4    2
    16     5     6    1
    17    31    30    1
    18    31    26    2
    19     7    26    1
    20     7     6    1
    21    30    29    2
    22    26    27    1
    23     4     3    1
    24     6     1    2
    25    29    28    1
    26    27    28    2
    27     3     2    2
    28     1     2    1
    29     1    10    1
    30    11    10    1
    31    10    12    1
    32    13    12    1
    33    13    14    1
    34    15    14    2
    35    15    16    1
    36    14    19    1
    37    16    17    2
    38    24    23    1
    39    19    18    2
    40    23    25    1
    41    23    20    1
    42    17    18    1
    43    17    20    1
    44    20    22    2
    45    20    21    2
