@<TRIPOS>MOLECULE
18160_out_ligand_01.pdbqt
 34 38 0 0 0
SMALL
GASTEIGER

@<TRIPOS>ATOM
      1  C         21.3150  -23.2780   -9.9430 C.2     1  UNL1       -0.0570
      2  C         21.5100  -22.4980  -11.0940 C.2     1  UNL1        0.0090
      3  C         22.7900  -22.0880  -11.4650 C.2     1  UNL1        0.0260
      4  C         23.8840  -22.4550  -10.6780 C.2     1  UNL1        0.0790
      5  C         23.7080  -23.2370   -9.5340 C.2     1  UNL1        0.0260
      6  C         22.4250  -23.6420   -9.1670 C.2     1  UNL1        0.0090
      7  C         19.9270  -23.7490   -9.5730 C.3     1  UNL1        0.0590
      8  C         18.9230  -22.6080   -9.3240 C.3     1  UNL1        0.1400
      9  N         18.2910  -22.6740   -8.0070 N.am    1  UNL1       -0.2800
     10  C         17.0420  -23.2900   -7.9140 C.2     1  UNL1        0.2610
     11  C         16.3680  -23.2470   -6.5970 C.2     1  UNL1        0.0440
     12  O         16.4910  -23.8670   -8.8480 O.2     1  UNL1       -0.2670
     13  C         15.0920  -23.8050   -6.4560 C.2     1  UNL1        0.0180
     14  C         17.0120  -22.6490   -5.5070 C.2     1  UNL1        0.0050
     15  C         14.4490  -23.7730   -5.2220 C.2     1  UNL1        0.0020
     16  C         15.0800  -23.1860   -4.1250 C.2     1  UNL1        0.0120
     17  C         16.3600  -22.6210   -4.2510 C.2     1  UNL1       -0.0240
     18  C         17.0020  -22.0260   -3.1530 C.2     1  UNL1        0.0120
     19  C         18.2710  -21.4640   -3.2880 C.2     1  UNL1        0.0020
     20  C         18.9120  -21.4880   -4.5240 C.2     1  UNL1        0.0180
     21  C         18.2830  -22.0790   -5.6280 C.2     1  UNL1        0.0440
     22  C         18.9650  -22.0790   -6.9410 C.2     1  UNL1        0.2610
     23  O         20.0730  -21.5560   -7.0440 O.2     1  UNL1       -0.2670
     24  S         25.5200  -21.9540  -11.1410 S.O2    1  UNL1        0.2580
     25  O         25.6740  -20.5630  -10.7740 O.2     1  UNL1       -0.2010
     26  O         26.4600  -22.9660  -10.7110 O.2     1  UNL1       -0.2010
     27  N         25.4260  -22.0050  -12.8110 N.3     1  UNL1       -0.3130
     28  H         25.8330  -21.1940  -13.2790 H       1  UNL1        0.1720
     29  C         25.5870  -23.2980  -13.4910 C.3     1  UNL1        0.1640
     30  C         25.7380  -23.0510  -14.9940 C.3     1  UNL1        0.1400
     31  C         25.0410  -21.7890  -15.4690 C.3     1  UNL1        0.0350
     32  C         24.8020  -22.1070  -16.9230 C.3     1  UNL1        0.0290
     33  C         24.4530  -23.5800  -16.8720 C.3     1  UNL1        0.1680
     34  O         25.1420  -24.1360  -15.7410 O.3     1  UNL1       -0.3840
@<TRIPOS>BOND
     1    32    33    1
     2    32    31    1
     3    33    34    1
     4    34    30    1
     5    31    30    1
     6    30    29    1
     7    29    27    1
     8    28    27    1
     9    27    24    1
    10     3     2    1
    11     3     4    2
    12    24    25    2
    13    24    26    2
    14    24     4    1
    15     2     1    2
    16     4     5    1
    17     1     7    1
    18     1     6    1
    19     7     8    1
    20     5     6    2
    21     8     9    1
    22    12    10    2
    23     9    10   am
    24     9    22   am
    25    10    11    1
    26    23    22    2
    27    22    21    1
    28    11    13    2
    29    11    14    1
    30    13    15    1
    31    21    14    2
    32    21    20    1
    33    14    17    1
    34    15    16    2
    35    20    19    2
    36    17    16    1
    37    17    18    2
    38    19    18    1
