@<TRIPOS>MOLECULE
18169_out_ligand_01.pdbqt
 37 41 0 0 0
SMALL
GASTEIGER

@<TRIPOS>ATOM
      1  C         20.0590  -22.5290   -9.9180 C.2     1  UNL1        0.0800
      2  C         19.0850  -21.7570  -10.5590 C.2     1  UNL1        0.0250
      3  C         19.3800  -21.1470  -11.7790 C.2     1  UNL1        0.0030
      4  C         20.6480  -21.2970  -12.3470 C.2     1  UNL1        0.0170
      5  C         21.6300  -22.0480  -11.6850 C.2     1  UNL1        0.0330
      6  C         21.3350  -22.6680  -10.4670 C.2     1  UNL1        0.0420
      7  S         19.6860  -23.3020   -8.3630 S.O2    1  UNL1        0.2590
      8  O         20.2960  -22.5050   -7.3220 O.2     1  UNL1       -0.2010
      9  O         19.9500  -24.7170   -8.4890 O.2     1  UNL1       -0.2010
     10  N         18.0400  -23.0650   -8.2260 N.3     1  UNL1       -0.3100
     11  H         17.6880  -22.1510   -8.5030 H       1  UNL1        0.1720
     12  C         17.1440  -24.0640   -7.6130 C.3     1  UNL1        0.1010
     13  C         15.9290  -24.1580   -8.5670 C.3     1  UNL1        0.0220
     14  C         15.6840  -22.9600   -9.4660 C.3     1  UNL1        0.0070
     15  C         16.8670  -23.6720   -6.1130 C.3     1  UNL1       -0.0180
     16  C         17.8240  -24.3830   -5.1210 C.3     1  UNL1        0.0160
     17  C         17.5190  -23.9820   -3.6660 C.3     1  UNL1       -0.0130
     18  C         17.6840  -22.4610   -3.5140 C.3     1  UNL1        0.0090
     19  C         16.0750  -24.3720   -3.3180 C.3     1  UNL1        0.0090
     20  C         16.7070  -21.7310   -4.4480 C.3     1  UNL1       -0.0130
     21  C         15.2680  -22.1280   -4.0910 C.3     1  UNL1        0.0090
     22  C         17.0010  -22.1330   -5.9040 C.3     1  UNL1        0.0160
     23  C         15.0960  -23.6420   -4.2510 C.3     1  UNL1       -0.0130
     24  C         15.4000  -24.0370   -5.7060 C.3     1  UNL1        0.0160
     25  C         22.9840  -22.2450  -12.2690 C.2     1  UNL1        0.2560
     26  O         23.7120  -23.0850  -11.7560 O.2     1  UNL1       -0.2670
     27  N         23.2840  -21.4140  -13.3330 N.am    1  UNL1       -0.3230
     28  H         22.6060  -20.6940  -13.5540 H       1  UNL1        0.1690
     29  C         24.4740  -21.3930  -14.0900 C.2     1  UNL1        0.0370
     30  C         25.6280  -20.7000  -13.7120 C.2     1  UNL1        0.0290
     31  C         26.7760  -20.7250  -14.5130 C.2     1  UNL1        0.0050
     32  C         26.7870  -21.4480  -15.7030 C.2     1  UNL1        0.0360
     33  C         25.6380  -22.1490  -16.0840 C.2     1  UNL1        0.1050
     34  C         24.4850  -22.1250  -15.2830 C.2     1  UNL1        0.0650
     35  N         25.6360  -22.9200  -17.3310 N.pl3   1  UNL1       -0.1160
     36  O         26.6130  -22.8030  -18.0850 O.2     1  UNL1       -0.5320
     37  O         24.6570  -23.6460  -17.5560 O.2     1  UNL1       -0.5320
@<TRIPOS>BOND
     1    36    35    2
     2    37    35    2
     3    35    33    1
     4    33    32    2
     5    33    34    1
     6    32    31    1
     7    34    29    2
     8    31    30    2
     9    29    30    1
    10    29    27    1
    11    28    27    1
    12    27    25   am
    13     4     3    2
    14     4     5    1
    15    25    26    2
    16    25     5    1
    17     3     2    1
    18     5     6    2
    19     2     1    2
    20     6     1    1
    21     1     7    1
    22    14    13    1
    23    13    12    1
    24    11    10    1
    25     9     7    2
    26     7    10    1
    27     7     8    2
    28    10    12    1
    29    12    15    1
    30    15    22    1
    31    15    24    1
    32    15    16    1
    33    22    20    1
    34    24    23    1
    35    16    17    1
    36    20    21    1
    37    20    18    1
    38    23    21    1
    39    23    19    1
    40    17    18    1
    41    17    19    1
