@<TRIPOS>MOLECULE
18178_out_ligand_01.pdbqt
 35 39 0 0 0
SMALL
GASTEIGER

@<TRIPOS>ATOM
      1  C         24.1840  -22.7110  -12.8810 C.2     1  UNL1       -0.0570
      2  C         23.6090  -21.6220  -13.5530 C.2     1  UNL1        0.0090
      3  C         23.9510  -21.3480  -14.8770 C.2     1  UNL1        0.0260
      4  C         24.8840  -22.1580  -15.5290 C.2     1  UNL1        0.0790
      5  C         25.4600  -23.2510  -14.8770 C.2     1  UNL1        0.0260
      6  C         25.1110  -23.5220  -13.5530 C.2     1  UNL1        0.0090
      7  C         23.7820  -23.0380  -11.4600 C.3     1  UNL1        0.0590
      8  C         23.1150  -21.8690  -10.7130 C.3     1  UNL1        0.1400
      9  N         21.7040  -22.1090  -10.4090 N.am    1  UNL1       -0.2800
     10  C         21.4040  -22.9810   -9.3610 C.2     1  UNL1        0.2610
     11  C         19.9760  -23.1340   -9.0050 C.2     1  UNL1        0.0440
     12  O         22.2460  -23.6250   -8.7390 O.2     1  UNL1       -0.2670
     13  C         19.6170  -23.9660   -7.9350 C.2     1  UNL1        0.0180
     14  C         18.9990  -22.4520   -9.7400 C.2     1  UNL1        0.0050
     15  C         18.2770  -24.1220   -7.5940 C.2     1  UNL1        0.0020
     16  C         17.2920  -23.4520   -8.3200 C.2     1  UNL1        0.0120
     17  C         17.6360  -22.6160   -9.3940 C.2     1  UNL1       -0.0240
     18  C         16.6520  -21.9380  -10.1310 C.2     1  UNL1        0.0120
     19  C         17.0030  -21.1070  -11.1950 C.2     1  UNL1        0.0020
     20  C         18.3430  -20.9430  -11.5330 C.2     1  UNL1        0.0180
     21  C         19.3360  -21.6130  -10.8070 C.2     1  UNL1        0.0440
     22  C         20.7590  -21.4180  -11.1650 C.2     1  UNL1        0.2610
     23  O         21.0480  -20.6600  -12.0880 O.2     1  UNL1       -0.2670
     24  S         25.3160  -21.8280  -17.2160 S.O2    1  UNL1        0.2630
     25  O         25.6180  -23.1000  -17.8420 O.2     1  UNL1       -0.2000
     26  O         24.3390  -20.9300  -17.7930 O.2     1  UNL1       -0.2000
     27  N         26.7980  -21.0220  -17.0700 N.pl3   1  UNL1       -0.2810
     28  H         27.3690  -21.1790  -17.8990 H       1  UNL1        0.1790
     29  C         26.7900  -19.7150  -16.5150 C.2     1  UNL1        0.0420
     30  C         27.0900  -19.5320  -15.1630 C.2     1  UNL1        0.0330
     31  C         27.1200  -18.2430  -14.6310 C.2     1  UNL1        0.0440
     32  C         26.8560  -17.1530  -15.4540 C.2     1  UNL1        0.1160
     33  F         26.8850  -15.9160  -14.9410 F       1  UNL1       -0.2060
     34  C         26.5660  -17.3280  -16.8030 C.2     1  UNL1        0.0440
     35  C         26.5370  -18.6170  -17.3380 C.2     1  UNL1        0.0330
@<TRIPOS>BOND
     1    28    27    1
     2    25    24    2
     3    26    24    2
     4    35    34    1
     5    35    29    2
     6    24    27    1
     7    24     4    1
     8    27    29    1
     9    34    32    2
    10    29    30    1
    11     4     5    2
    12     4     3    1
    13    32    33    1
    14    32    31    1
    15    30    31    2
    16     5     6    1
    17     3     2    2
    18     6     1    2
    19     2     1    1
    20     1     7    1
    21    23    22    2
    22    20    19    1
    23    20    21    2
    24     7     8    1
    25    19    18    2
    26    22    21    1
    27    22     9   am
    28    21    14    1
    29     8     9    1
    30     9    10   am
    31    18    17    1
    32    14    17    1
    33    14    11    2
    34    17    16    2
    35    10    11    1
    36    10    12    2
    37    11    13    1
    38    16    15    1
    39    13    15    2
