@<TRIPOS>MOLECULE
18186_out_ligand_01.pdbqt
 34 37 0 0 0
SMALL
GASTEIGER

@<TRIPOS>ATOM
      1  C         21.5980  -22.8600  -10.0910 C.2     1  UNL1        0.0750
      2  C         20.9090  -22.0220  -10.9650 C.2     1  UNL1        0.0270
      3  C         19.5190  -22.1340  -11.0690 C.2     1  UNL1        0.0310
      4  C         18.8010  -23.0700  -10.3040 C.2     1  UNL1        0.0310
      5  C         19.5180  -23.8880   -9.4200 C.2     1  UNL1        0.0310
      6  C         20.9090  -23.7890   -9.3110 C.2     1  UNL1        0.0270
      7  N         17.4000  -23.1060  -10.4300 N.pl3   1  UNL1       -0.3660
      8  H         17.0570  -23.7830  -11.1040 H       1  UNL1        0.1650
      9  C         16.4630  -22.3300   -9.8020 C.2     1  UNL1        0.0920
     10  C         15.8480  -22.4870   -8.6210 C.2     1  UNL1        0.0720
     11  C         16.0550  -23.5550   -7.6090 C.2     1  UNL1        0.1840
     12  O         16.1260  -24.7260   -7.9670 O.2     1  UNL1       -0.2880
     13  C         16.1280  -23.2000   -6.1750 C.2     1  UNL1        0.0250
     14  C         15.0960  -23.6580   -5.3400 C.2     1  UNL1        0.0160
     15  C         15.1090  -23.3450   -3.9870 C.2     1  UNL1        0.0020
     16  C         16.1490  -22.5780   -3.4650 C.2     1  UNL1        0.0120
     17  C         17.1920  -22.1090   -4.2830 C.2     1  UNL1       -0.0250
     18  C         18.2230  -21.3300   -3.7370 C.2     1  UNL1        0.0120
     19  C         17.2010  -22.4250   -5.6650 C.2     1  UNL1       -0.0120
     20  C         19.2600  -20.8510   -4.5320 C.2     1  UNL1        0.0010
     21  C         19.2850  -21.1500   -5.8880 C.2     1  UNL1        0.0010
     22  C         18.2690  -21.9280   -6.4480 C.2     1  UNL1        0.0130
     23  S         23.3620  -22.7110   -9.9180 S.O2    1  UNL1        0.2470
     24  O         23.6850  -21.3000   -9.9440 O.2     1  UNL1       -0.2050
     25  O         23.7620  -23.5640   -8.8220 O.2     1  UNL1       -0.2050
     26  N         23.8660  -23.3390  -11.4040 N.pl3   1  UNL1       -0.1570
     27  H         23.0190  -23.5940  -11.9170 H       1  UNL1        0.1480
     28  C         24.5820  -22.3500  -12.1860 C.ar    1  UNL1        0.1830
     29  N         25.8140  -22.0280  -11.8720 N.ar    1  UNL1       -0.1290
     30  N         26.3000  -21.0240  -12.6890 N.ar    1  UNL1       -0.1450
     31  C         25.3990  -20.6120  -13.5600 C.ar    1  UNL1        0.1000
     32  S         23.8800  -21.4120  -13.4280 S.2     1  UNL1       -0.0380
     33  C         25.6170  -19.5330  -14.5690 C.3     1  UNL1        0.0640
     34  C         26.8600  -18.7160  -14.2570 C.3     1  UNL1        0.0120
@<TRIPOS>BOND
     1    33    34    1
     2    33    31    1
     3    31    32   ar
     4    31    30   ar
     5    32    28   ar
     6    30    29   ar
     7    28    29   ar
     8    28    26    1
     9    27    26    1
    10    26    23    1
    11     8     7    1
    12     3     2    1
    13     3     4    2
    14     2     1    2
    15     7     4    1
    16     7     9    1
    17     4     5    1
    18     1    23    1
    19     1     6    1
    20    24    23    2
    21    23    25    2
    22     9    10    2
    23     5     6    2
    24    10    11    1
    25    12    11    2
    26    11    13    1
    27    22    21    2
    28    22    19    1
    29    13    19    2
    30    13    14    1
    31    21    20    1
    32    19    17    1
    33    14    15    2
    34    20    18    2
    35    17    18    1
    36    17    16    2
    37    15    16    1
