@<TRIPOS>MOLECULE
18208_out_ligand_01.pdbqt
 35 39 0 0 0
SMALL
GASTEIGER

@<TRIPOS>ATOM
      1  N         18.3170  -20.7000  -11.9680 N.1     1  UNL1       -0.1910
      2  C         18.5980  -21.4300  -11.1100 C.1     1  UNL1        0.1030
      3  C         18.9450  -22.3400  -10.0570 C.ar    1  UNL1        0.0850
      4  C         20.2130  -22.8700   -9.9210 C.ar    1  UNL1        0.0980
      5  S         20.3050  -23.9120   -8.5880 S.2     1  UNL1       -0.0750
      6  C         18.6600  -23.6820   -8.1710 C.ar    1  UNL1       -0.0070
      7  C         18.0300  -22.8010   -9.0380 C.ar    1  UNL1       -0.0210
      8  C         16.5940  -22.3790   -8.9150 C.3     1  UNL1        0.0410
      9  C         15.6000  -23.5360   -9.0070 C.3     1  UNL1        0.0050
     10  C         15.8010  -24.6990   -8.0260 C.3     1  UNL1        0.0010
     11  C         16.6110  -24.3640   -6.7740 C.3     1  UNL1        0.0050
     12  C         18.1250  -24.4400   -6.9870 C.3     1  UNL1        0.0470
     13  N         21.3170  -22.6270  -10.7200 N.am    1  UNL1       -0.3140
     14  C         22.6270  -23.0130  -10.5050 C.2     1  UNL1        0.2770
     15  O         23.0800  -23.6570   -9.5670 O.2     1  UNL1       -0.2660
     16  H         21.1860  -22.1040  -11.5870 H       1  UNL1        0.1700
     17  C         23.5010  -22.5480  -11.6000 C.2     1  UNL1        0.1480
     18  C         23.3210  -21.3960  -12.4110 C.2     1  UNL1        0.0890
     19  C         24.3950  -21.3850  -13.2600 C.2     1  UNL1        0.1230
     20  N         25.1070  -22.5240  -12.9880 N.pl3   1  UNL1       -0.2400
     21  N         24.7980  -20.5160  -14.2150 N.pl3   1  UNL1       -0.3660
     22  N         24.6320  -23.2100  -11.9320 N.2     1  UNL1       -0.1650
     23  C         26.3600  -22.8710  -13.6360 C.3     1  UNL1        0.2210
     24  C         26.5750  -22.0280  -14.9100 C.3     1  UNL1        0.0670
     25  C         26.1920  -20.5590  -14.6690 C.3     1  UNL1        0.1250
     26  H         24.3860  -19.5830  -14.2390 H       1  UNL1        0.1610
     27  C         26.4190  -24.3420  -13.9850 C.3     1  UNL1        0.4090
     28  F         27.1210  -24.5100  -15.1380 F       1  UNL1       -0.1690
     29  F         25.1930  -24.8720  -14.1960 F       1  UNL1       -0.1690
     30  F         27.0450  -25.0870  -13.0510 F       1  UNL1       -0.1690
     31  C         26.4260  -19.7490  -15.9210 C.2     1  UNL1        0.0050
     32  C         26.4020  -20.1710  -17.2370 C.2     1  UNL1        0.0170
     33  C         26.6770  -19.1160  -18.1530 C.2     1  UNL1        0.0080
     34  C         26.9020  -17.9210  -17.5080 C.2     1  UNL1        0.0500
     35  S         26.7820  -18.0740  -15.8110 S.3     1  UNL1       -0.1040
@<TRIPOS>BOND
     1    33    34    2
     2    33    32    1
     3    34    35    1
     4    32    31    2
     5    31    35    1
     6    31    25    1
     7    28    27    1
     8    24    25    1
     9    24    23    1
    10    25    21    1
    11    26    21    1
    12    21    19    1
    13    29    27    1
    14    27    23    1
    15    27    30    1
    16    23    20    1
    17    19    20    1
    18    19    18    2
    19    20    22    1
    20    18    17    1
    21     1     2    3
    22    22    17    2
    23    17    14    1
    24    16    13    1
    25     2     3    1
    26    13    14   am
    27    13     4    1
    28    14    15    2
    29     3     4   ar
    30     3     7   ar
    31     4     5   ar
    32     7     8    1
    33     7     6   ar
    34     9     8    1
    35     9    10    1
    36     5     6   ar
    37     6    12    1
    38    10    11    1
    39    12    11    1
