@<TRIPOS>MOLECULE
18219_out_ligand_01.pdbqt
 40 43 0 0 0
SMALL
GASTEIGER

@<TRIPOS>ATOM
      1  N         18.3400  -22.3980  -10.8050 N.ar    1  UNL1       -0.2840
      2  C         19.5350  -22.8540  -10.3250 C.ar    1  UNL1        0.1290
      3  C         20.7000  -22.2720  -10.6020 C.ar    1  UNL1        0.1010
      4  C         20.7350  -21.0940  -11.4450 C.ar    1  UNL1        0.2620
      5  O         21.7900  -20.5430  -11.7290 O.2     1  UNL1       -0.2670
      6  N         19.5090  -20.6660  -11.8760 N.ar    1  UNL1       -0.2750
      7  C         18.2930  -21.2470  -11.5950 C.ar    1  UNL1        0.3310
      8  O         17.2550  -20.7430  -12.0180 O.2     1  UNL1       -0.2460
      9  C         21.8640  -22.9480   -9.9510 C.3     1  UNL1        0.2490
     10  C         21.1060  -24.1060   -9.2720 C.2     1  UNL1        0.2660
     11  O         21.5750  -25.0370   -8.6370 O.2     1  UNL1       -0.2700
     12  N         19.7470  -23.9250   -9.5210 N.am    1  UNL1       -0.3090
     13  H         19.4840  -19.8430  -12.4590 H       1  UNL1        0.1730
     14  H         19.0580  -24.5970   -9.2190 H       1  UNL1        0.1700
     15  N         22.8800  -23.4000  -10.9270 N.am    1  UNL1       -0.3270
     16  C         24.0010  -22.6550  -11.2230 C.2     1  UNL1        0.2540
     17  O         24.1900  -21.5310  -10.7760 O.2     1  UNL1       -0.2680
     18  H         22.9600  -24.4060  -11.0300 H       1  UNL1        0.1640
     19  C         25.0170  -23.2930  -12.0930 C.2     1  UNL1        0.0490
     20  C         24.9270  -23.3230  -13.4870 C.2     1  UNL1        0.0200
     21  C         25.9340  -23.9460  -14.2230 C.2     1  UNL1        0.0200
     22  C         26.9980  -24.5150  -13.5380 C.2     1  UNL1        0.1160
     23  N         27.1210  -24.4930  -12.1940 N.2     1  UNL1       -0.2720
     24  C         26.1320  -23.8750  -11.5010 C.2     1  UNL1        0.1330
     25  C         22.4410  -22.1200   -8.7960 C.3     1  UNL1        0.4260
     26  F         21.5910  -22.0360   -7.7470 F       1  UNL1       -0.1670
     27  F         22.7610  -20.8580   -9.1680 F       1  UNL1       -0.1670
     28  F         23.5750  -22.6880   -8.3140 F       1  UNL1       -0.1670
     29  C         17.0770  -23.0500  -10.4610 C.3     1  UNL1        0.1400
     30  C         16.3180  -22.2840   -9.3720 C.3     1  UNL1        0.0590
     31  C         16.6770  -22.7720   -7.9920 C.2     1  UNL1       -0.0540
     32  C         16.4320  -24.1010   -7.6310 C.2     1  UNL1        0.0100
     33  C         16.7830  -24.5670   -6.3620 C.2     1  UNL1        0.0400
     34  C         17.3870  -23.7130   -5.4350 C.2     1  UNL1        0.1010
     35  C         17.6370  -22.3720   -5.7880 C.2     1  UNL1        0.1020
     36  C         17.2830  -21.9140   -7.0630 C.2     1  UNL1        0.0460
     37  O         17.7670  -24.0850   -4.1690 O.2     1  UNL1       -0.3530
     38  C         16.7740  -24.0710   -3.1530 C.3     1  UNL1        0.2100
     39  O         18.2350  -21.5970   -4.8240 O.2     1  UNL1       -0.3530
     40  C         19.3210  -20.7720   -5.2150 C.3     1  UNL1        0.2100
@<TRIPOS>BOND
     1    21    22    2
     2    21    20    1
     3    22    23    1
     4    20    19    2
     5    13     6    1
     6    23    24    2
     7    19    24    1
     8    19    16    1
     9     8     7    2
    10     6     7   ar
    11     6     4   ar
    12     5     4    2
    13     7     1   ar
    14     4     3   ar
    15    16    15   am
    16    16    17    2
    17    18    15    1
    18    15     9    1
    19     1    29    1
    20     1     2   ar
    21     3     2   ar
    22     3     9    1
    23    29    30    1
    24     2    12    1
    25     9    10    1
    26     9    25    1
    27    12    10   am
    28    12    14    1
    29    30    31    1
    30    10    11    2
    31    27    25    1
    32    25    28    1
    33    25    26    1
    34    31    32    2
    35    31    36    1
    36    32    33    1
    37    36    35    2
    38    33    34    2
    39    35    34    1
    40    35    39    1
    41    34    37    1
    42    40    39    1
    43    37    38    1
