@<TRIPOS>MOLECULE
18231_out_ligand_01.pdbqt
 33 36 0 0 0
SMALL
GASTEIGER

@<TRIPOS>ATOM
      1  C         27.1210  -21.6260  -15.6260 C.3     1  UNL1        0.0100
      2  C         26.2790  -21.5990  -14.3510 C.3     1  UNL1       -0.0140
      3  C         26.5960  -22.8170  -13.4590 C.3     1  UNL1        0.0090
      4  C         25.8400  -22.7580  -12.1220 C.3     1  UNL1        0.0420
      5  C         24.3980  -22.3700  -12.3050 C.ar    1  UNL1       -0.0210
      6  C         23.9430  -21.8070  -13.4820 C.ar    1  UNL1       -0.0070
      7  S         22.2780  -21.4860  -13.4450 S.2     1  UNL1       -0.0750
      8  C         22.1480  -22.0130  -11.8250 C.ar    1  UNL1        0.0980
      9  C         23.3400  -22.5080  -11.3340 C.ar    1  UNL1        0.0850
     10  C         23.5410  -23.1480  -10.0640 C.1     1  UNL1        0.1030
     11  N         23.7960  -23.7350   -9.0940 N.1     1  UNL1       -0.1910
     12  C         24.7760  -21.5460  -14.7000 C.3     1  UNL1        0.0510
     13  N         20.8600  -21.8570  -11.3540 N.am    1  UNL1       -0.3160
     14  C         20.1650  -22.8270  -10.6690 C.2     1  UNL1        0.2560
     15  O         20.6100  -23.9010  -10.2910 O.2     1  UNL1       -0.2670
     16  H         20.5180  -20.9040  -11.3340 H       1  UNL1        0.1690
     17  C         18.7640  -22.4650  -10.3120 C.2     1  UNL1        0.0330
     18  C         18.0180  -21.5610  -11.0830 C.2     1  UNL1        0.0170
     19  C         16.6990  -21.2600  -10.7310 C.2     1  UNL1        0.0030
     20  C         16.1130  -21.8720   -9.6230 C.2     1  UNL1        0.0250
     21  C         16.8500  -22.7950   -8.8740 C.2     1  UNL1        0.0800
     22  C         18.1790  -23.0820   -9.2020 C.2     1  UNL1        0.0420
     23  S         16.1040  -23.5780   -7.4590 S.O2    1  UNL1        0.2630
     24  O         15.5570  -24.8420   -7.9070 O.2     1  UNL1       -0.2000
     25  O         15.2700  -22.5980   -6.7980 O.2     1  UNL1       -0.2000
     26  N         17.4260  -23.9630   -6.4840 N.pl3   1  UNL1       -0.2810
     27  H         18.1550  -24.4520   -6.9990 H       1  UNL1        0.1790
     28  C         17.8250  -23.0620   -5.4580 C.2     1  UNL1        0.0420
     29  C         17.4670  -23.2810   -4.1290 C.2     1  UNL1        0.0300
     30  C         17.8050  -22.3430   -3.1530 C.2     1  UNL1        0.0020
     31  C         18.5090  -21.1920   -3.5050 C.2     1  UNL1        0.0000
     32  C         18.8840  -20.9820   -4.8310 C.2     1  UNL1        0.0020
     33  C         18.5430  -21.9170   -5.8090 C.2     1  UNL1        0.0300
@<TRIPOS>BOND
     1     1     2    1
     2    12     2    1
     3    12     6    1
     4     2     3    1
     5     6     7   ar
     6     6     5   ar
     7     3     4    1
     8     7     8   ar
     9     5     4    1
    10     5     9   ar
    11     8    13    1
    12     8     9   ar
    13    13    16    1
    14    13    14   am
    15     9    10    1
    16    18    19    1
    17    18    17    2
    18    19    20    2
    19    14    17    1
    20    14    15    2
    21    17    22    1
    22    10    11    3
    23    20    21    1
    24    22    21    2
    25    21    23    1
    26    24    23    2
    27    23    25    2
    28    23    26    1
    29    27    26    1
    30    26    28    1
    31    33    28    2
    32    33    32    1
    33    28    29    1
    34    32    31    2
    35    29    30    2
    36    31    30    1
