@<TRIPOS>MOLECULE
1823_out_ligand_01.pdbqt
 33 35 0 0 0
SMALL
GASTEIGER

@<TRIPOS>ATOM
      1  C         19.5270  -23.8080   -8.0120 C.2     1  UNL1        0.0340
      2  C         20.2280  -24.7770   -8.7360 C.2     1  UNL1        0.0310
      3  C         21.5270  -24.5220   -9.1900 C.2     1  UNL1        0.0270
      4  C         22.1310  -23.2960   -8.9090 C.2     1  UNL1        0.0750
      5  C         21.4380  -22.3120   -8.2020 C.2     1  UNL1        0.0270
      6  C         20.1400  -22.5730   -7.7540 C.2     1  UNL1        0.0310
      7  N         18.2220  -23.9880   -7.5220 N.am    1  UNL1       -0.3250
      8  C         17.0230  -23.7100   -8.1560 C.2     1  UNL1        0.2460
      9  O         16.8780  -23.2460   -9.2830 O.2     1  UNL1       -0.2710
     10  H         18.1310  -24.4290   -6.6120 H       1  UNL1        0.1690
     11  C         15.8050  -24.0190   -7.2760 C.3     1  UNL1        0.2780
     12  O         15.4420  -22.9820   -6.3720 O.2     1  UNL1       -0.3420
     13  C         16.3730  -22.5560   -5.4590 C.2     1  UNL1        0.0750
     14  C         16.2250  -23.0730   -4.1600 C.2     1  UNL1       -0.0290
     15  C         17.1140  -22.6700   -3.1530 C.2     1  UNL1        0.0100
     16  C         15.1280  -24.0500   -3.8370 C.3     1  UNL1        0.0510
     17  C         18.1380  -21.7660   -3.4310 C.2     1  UNL1        0.0070
     18  C         18.2960  -21.2550   -4.7210 C.2     1  UNL1       -0.0590
     19  C         19.3740  -20.2520   -5.0150 C.3     1  UNL1        0.0480
     20  C         17.4010  -21.6450   -5.7280 C.2     1  UNL1        0.0440
     21  S         23.7690  -22.9510   -9.5020 S.O2    1  UNL1        0.2480
     22  O         23.9970  -21.5210   -9.4900 O.2     1  UNL1       -0.2050
     23  O         24.6590  -23.8310   -8.7690 O.2     1  UNL1       -0.2050
     24  N         23.7580  -23.5170  -11.0640 N.pl3   1  UNL1       -0.1480
     25  H         24.6410  -23.9160  -11.3570 H       1  UNL1        0.1490
     26  C         23.1800  -22.7030  -12.0290 C.cat   1  UNL1        0.2160
     27  N         23.9350  -22.2460  -13.0270 N.2     1  UNL1       -0.2230
     28  C         23.3580  -21.3420  -13.8420 C.2     1  UNL1        0.0360
     29  C         24.1720  -20.8360  -14.9940 C.3     1  UNL1        0.0700
     30  C         22.0730  -20.8770  -13.6340 C.2     1  UNL1        0.0530
     31  C         21.4010  -21.3780  -12.5340 C.2     1  UNL1        0.0360
     32  C         20.0130  -20.9090  -12.2180 C.3     1  UNL1        0.0700
     33  N         21.9550  -22.2820  -11.7000 N.2     1  UNL1       -0.2230
@<TRIPOS>BOND
     1    29    28    1
     2    28    30    2
     3    28    27    1
     4    30    31    1
     5    27    26    2
     6    31    32    1
     7    31    33    2
     8    26    33    1
     9    26    24    1
    10    25    24    1
    11    24    21    1
    12    21    22    2
    13    21     4    1
    14    21    23    2
    15     9     8    2
    16     3     4    2
    17     3     2    1
    18     4     5    1
    19     2     1    2
    20     5     6    2
    21     8     7   am
    22     8    11    1
    23     1     6    1
    24     1     7    1
    25     7    10    1
    26    11    12    1
    27    12    13    1
    28    20    13    2
    29    20    18    1
    30    13    14    1
    31    19    18    1
    32    18    17    2
    33    14    16    1
    34    14    15    2
    35    17    15    1
