@<TRIPOS>MOLECULE
18258_out_ligand_01.pdbqt
 32 35 0 0 0
SMALL
GASTEIGER

@<TRIPOS>ATOM
      1  N         21.2000  -21.8440  -12.0100 N.pl3   1  UNL1       -0.2290
      2  C         20.6280  -22.1090  -10.8700 C.2     1  UNL1        0.1550
      3  N         21.2390  -22.6240   -9.7440 N.pl3   1  UNL1       -0.2600
      4  N         20.6770  -22.8450   -8.5270 N.2     1  UNL1       -0.1720
      5  C         19.4080  -22.5840   -8.4010 C.2     1  UNL1        0.0980
      6  C         18.5530  -22.1020   -9.5220 C.2     1  UNL1        0.0090
      7  C         17.1680  -21.9180   -9.4010 C.2     1  UNL1        0.0150
      8  C         16.4220  -21.4560  -10.4880 C.2     1  UNL1        0.0010
      9  C         17.0470  -21.1820  -11.7040 C.2     1  UNL1        0.0010
     10  C         18.4210  -21.3810  -11.8380 C.3     1  UNL1        0.0160
     11  C         19.1690  -21.8480  -10.7500 C.2     1  UNL1        0.0240
     12  H         22.2430  -22.7690   -9.7990 H       1  UNL1        0.1910
     13  C         22.5690  -22.0760  -12.1690 C.2     1  UNL1        0.0600
     14  C         23.2270  -22.9790  -11.3390 C.2     1  UNL1        0.0340
     15  C         24.5930  -23.2300  -11.5010 C.2     1  UNL1        0.0400
     16  C         25.3250  -22.5850  -12.5080 C.2     1  UNL1        0.0840
     17  C         24.6590  -21.6810  -13.3640 C.2     1  UNL1        0.0670
     18  C         23.2840  -21.4410  -13.1830 C.2     1  UNL1        0.0510
     19  O         26.6690  -22.7890  -12.7060 O.2     1  UNL1       -0.3550
     20  C         27.1200  -24.1250  -12.9010 C.3     1  UNL1        0.2100
     21  C         25.3070  -20.9270  -14.4830 C.2     1  UNL1        0.2520
     22  N         26.0380  -21.6240  -15.3990 N.am    1  UNL1       -0.3660
     23  H         26.1990  -22.6180  -15.2980 H       1  UNL1        0.1590
     24  H         26.5090  -21.1090  -16.1300 H       1  UNL1        0.1590
     25  O         25.1950  -19.7110  -14.5930 O.2     1  UNL1       -0.2680
     26  C         18.8180  -22.7890   -7.0580 C.2     1  UNL1       -0.0050
     27  C         18.8970  -21.7790   -6.0970 C.2     1  UNL1        0.0140
     28  C         18.3440  -21.9890   -4.8320 C.2     1  UNL1        0.0070
     29  C         17.7160  -23.2040   -4.5250 C.2     1  UNL1       -0.0620
     30  C         17.1560  -23.4420   -3.1530 C.3     1  UNL1        0.0480
     31  C         17.6740  -24.2200   -5.4910 C.2     1  UNL1        0.0070
     32  C         18.2270  -24.0160   -6.7560 C.2     1  UNL1        0.0140
@<TRIPOS>BOND
     1    24    22    1
     2    22    23    1
     3    22    21   am
     4    25    21    2
     5    21    17    1
     6    17    18    1
     7    17    16    2
     8    18    13    2
     9    20    19    1
    10    19    16    1
    11    16    15    1
    12    13     1    1
    13    13    14    1
    14     1     2    1
    15    10     9    1
    16    10    11    1
    17     9     8    2
    18    15    14    2
    19     2    11    2
    20     2     3    1
    21    11     6    1
    22     8     7    1
    23    12     3    1
    24     3     4    1
    25     6     7    2
    26     6     5    1
    27     4     5    2
    28     5    26    1
    29    26    32    2
    30    26    27    1
    31    32    31    1
    32    27    28    2
    33    31    29    2
    34    28    29    1
    35    29    30    1
