@<TRIPOS>MOLECULE
18259_out_ligand_01.pdbqt
 32 35 0 0 0
SMALL
GASTEIGER

@<TRIPOS>ATOM
      1  N         27.0750  -20.7920  -12.4000 N.1     1  UNL1       -0.1910
      2  C         26.1260  -21.3170  -11.9800 C.1     1  UNL1        0.1030
      3  C         24.9940  -21.9940  -11.4380 C.2     1  UNL1        0.0950
      4  C         25.1610  -22.8440  -10.4030 C.2     1  UNL1        0.1140
      5  C         23.7200  -21.7520  -12.0250 C.2     1  UNL1        0.1200
      6  N         22.5700  -21.6870  -11.3760 N.2     1  UNL1       -0.2390
      7  C         21.5060  -21.5230  -12.2550 C.2     1  UNL1        0.0750
      8  C         21.8800  -21.3630  -13.5730 C.2     1  UNL1        0.0840
      9  S         23.5830  -21.4710  -13.7280 S.3     1  UNL1       -0.0780
     10  C         20.1280  -21.5410  -11.7660 C.2     1  UNL1       -0.0060
     11  C         19.3320  -20.3990  -11.9300 C.2     1  UNL1        0.0140
     12  C         18.0160  -20.3660  -11.4510 C.2     1  UNL1        0.0130
     13  C         17.4610  -21.4790  -10.7990 C.2     1  UNL1       -0.0260
     14  C         16.1410  -21.4630  -10.3160 C.2     1  UNL1        0.0120
     15  C         18.2470  -22.6400  -10.6260 C.2     1  UNL1       -0.0250
     16  C         15.5980  -22.5830   -9.6760 C.2     1  UNL1        0.0010
     17  C         16.3700  -23.7280   -9.5090 C.2     1  UNL1        0.0010
     18  C         17.6870  -23.7570   -9.9800 C.2     1  UNL1        0.0120
     19  C         19.5730  -22.6540  -11.1090 C.2     1  UNL1        0.0260
     20  N         24.2970  -23.6360   -9.6690 N.pl3   1  UNL1       -0.3640
     21  H         24.7210  -24.4580   -9.2410 H       1  UNL1        0.1650
     22  C         23.0790  -23.2880   -9.0470 C.2     1  UNL1        0.0320
     23  C         21.9670  -24.1340   -8.9990 C.2     1  UNL1        0.0300
     24  C         20.8110  -23.7780   -8.2860 C.2     1  UNL1        0.0190
     25  C         20.7420  -22.5480   -7.6230 C.2     1  UNL1        0.0320
     26  C         21.8400  -21.6850   -7.6850 C.2     1  UNL1        0.0190
     27  C         22.9960  -22.0540   -8.3890 C.2     1  UNL1        0.0300
     28  C         19.5560  -22.1210   -6.8250 C.2     1  UNL1        0.2490
     29  N         19.6900  -21.0400   -6.0000 N.am    1  UNL1       -0.3660
     30  H         18.9000  -20.8340   -5.3990 H       1  UNL1        0.1590
     31  H         20.5730  -20.6020   -5.7740 H       1  UNL1        0.1590
     32  O         18.4960  -22.7310   -6.8790 O.2     1  UNL1       -0.2680
@<TRIPOS>BOND
     1     9     8    1
     2     9     5    1
     3     8     7    2
     4     1     2    3
     5     7    10    1
     6     7     6    1
     7     5     3    1
     8     5     6    2
     9     2     3    1
    10    11    10    2
    11    11    12    1
    12    10    19    1
    13    12    13    2
    14     3     4    2
    15    19    15    2
    16    13    15    1
    17    13    14    1
    18    15    18    1
    19     4    20    1
    20    14    16    2
    21    18    17    2
    22    16    17    1
    23    20    21    1
    24    20    22    1
    25    22    23    2
    26    22    27    1
    27    23    24    1
    28    27    26    2
    29    24    25    2
    30    26    25    1
    31    25    28    1
    32    32    28    2
    33    28    29   am
    34    29    31    1
    35    29    30    1
