@<TRIPOS>MOLECULE
18264_out_ligand_01.pdbqt
 38 42 0 0 0
SMALL
GASTEIGER

@<TRIPOS>ATOM
      1  N         19.9230  -23.2550   -9.5830 N.pl3   1  UNL1       -0.3460
      2  C         21.0160  -23.0540  -10.3900 C.2     1  UNL1        0.1040
      3  C         20.6440  -22.1790  -11.3830 C.2     1  UNL1       -0.0070
      4  C         19.2720  -21.8480  -11.1920 C.2     1  UNL1        0.0020
      5  C         18.3490  -21.0290  -11.8790 C.2     1  UNL1        0.0140
      6  C         17.0390  -20.9110  -11.3990 C.2     1  UNL1        0.0010
      7  C         16.6390  -21.5960  -10.2560 C.2     1  UNL1        0.0020
      8  C         17.5310  -22.4170   -9.5590 C.2     1  UNL1        0.0300
      9  C         18.8440  -22.5280  -10.0450 C.2     1  UNL1        0.0450
     10  C         21.5110  -21.7500  -12.4280 C.2     1  UNL1        0.0350
     11  C         22.8500  -21.5970  -12.3820 C.2     1  UNL1        0.0860
     12  C         23.5400  -21.1920  -13.6360 C.2     1  UNL1        0.2710
     13  C         23.7280  -21.7970  -11.2420 C.2     1  UNL1        0.1830
     14  O         22.8810  -20.7100  -14.5590 O.2     1  UNL1       -0.2660
     15  N         24.9270  -21.3690  -13.6370 N.am    1  UNL1       -0.2280
     16  C         25.6260  -21.8400  -12.5020 C.2     1  UNL1        0.3580
     17  O         26.7740  -22.2710  -12.5670 O.2     1  UNL1       -0.2440
     18  N         25.0010  -21.8700  -11.2800 N.am    1  UNL1       -0.1680
     19  C         25.6650  -21.1480  -14.8670 C.2     1  UNL1        0.0500
     20  C         26.3680  -19.9480  -15.0890 C.2     1  UNL1        0.0300
     21  C         27.0900  -19.7270  -16.2690 C.2     1  UNL1        0.0050
     22  C         27.1210  -20.7050  -17.2560 C.2     1  UNL1        0.0420
     23  C         26.4310  -21.8880  -17.0540 C.2     1  UNL1        0.1180
     24  F         26.4680  -22.8390  -17.9970 F       1  UNL1       -0.2060
     25  C         25.7120  -22.1150  -15.8840 C.2     1  UNL1        0.0720
     26  O         23.1550  -21.8760  -10.0370 O.2     1  UNL1       -0.3440
     27  H         23.8540  -21.9000   -9.3640 H       1  UNL1        0.2190
     28  C         19.9200  -24.1020   -8.3990 C.3     1  UNL1        0.2310
     29  C         19.1810  -23.4910   -7.2210 C.2     1  UNL1        0.2400
     30  O         19.5930  -22.4500   -6.7170 O.2     1  UNL1       -0.2710
     31  N         18.1280  -24.2620   -6.7550 N.am    1  UNL1       -0.3260
     32  H         17.9230  -25.1210   -7.2590 H       1  UNL1        0.1690
     33  C         17.2920  -24.0010   -5.6490 C.2     1  UNL1        0.0340
     34  C         15.9240  -23.8160   -5.9090 C.2     1  UNL1        0.0290
     35  C         15.0290  -23.5660   -4.8660 C.2     1  UNL1        0.0020
     36  C         15.4910  -23.4870   -3.5530 C.2     1  UNL1        0.0000
     37  C         16.8480  -23.6610   -3.2860 C.2     1  UNL1        0.0020
     38  C         17.7430  -23.9190   -4.3280 C.2     1  UNL1        0.0290
@<TRIPOS>BOND
     1    24    23    1
     2    22    23    2
     3    22    21    1
     4    23    25    1
     5    21    20    2
     6    25    19    2
     7    20    19    1
     8    19    15    1
     9    14    12    2
    10    15    12   am
    11    15    16   am
    12    12    11    1
    13    17    16    2
    14    16    18    1
    15    10    11    2
    16    10     3    1
    17    11    13    1
    18     5     6    1
    19     5     4    2
    20     6     7    2
    21     3     4    1
    22     3     2    2
    23    18    13    2
    24    13    26    1
    25     4     9    1
    26     2     1    1
    27     7     8    1
    28     9     1    1
    29     9     8    2
    30    26    27    1
    31     1    28    1
    32    28    29    1
    33    32    31    1
    34    29    31   am
    35    29    30    2
    36    31    33    1
    37    34    33    2
    38    34    35    1
    39    33    38    1
    40    35    36    2
    41    38    37    2
    42    36    37    1
