@<TRIPOS>MOLECULE
18262_out_ligand_01.pdbqt
 35 39 0 0 0
SMALL
GASTEIGER

@<TRIPOS>ATOM
      1  C         23.0700  -22.8770  -10.6380 C.2     1  UNL1        0.2110
      2  N         22.7870  -22.0430  -11.6800 N.2     1  UNL1       -0.1220
      3  N         21.5420  -21.6340  -11.9080 N.pl3   1  UNL1       -0.1430
      4  C         20.5920  -22.0930  -11.0550 C.ar    1  UNL1        0.1370
      5  C         19.2000  -21.8440  -10.9750 C.ar    1  UNL1        0.0250
      6  C         18.3020  -21.0580  -11.7250 C.2     1  UNL1        0.0160
      7  C         16.9500  -21.0300  -11.3700 C.2     1  UNL1        0.0010
      8  C         16.4880  -21.7710  -10.2870 C.2     1  UNL1        0.0020
      9  C         17.3590  -22.5560   -9.5240 C.2     1  UNL1        0.0300
     10  C         18.7180  -22.5760   -9.8800 C.ar    1  UNL1        0.0490
     11  N         19.8000  -23.2390   -9.3230 N.ar    1  UNL1       -0.3290
     12  C         20.9400  -22.9500  -10.0260 C.ar    1  UNL1        0.1650
     13  N         22.1860  -23.3910   -9.7640 N.pl3   1  UNL1       -0.2010
     14  S         24.7890  -23.1830  -10.3050 S.3     1  UNL1       -0.0790
     15  C         25.4480  -21.5240  -10.6740 C.3     1  UNL1        0.1850
     16  C         26.0310  -21.4660  -12.0820 C.2     1  UNL1        0.2310
     17  O         27.1110  -21.9900  -12.3370 O.2     1  UNL1       -0.2720
     18  N         25.2290  -20.7700  -12.9780 N.am    1  UNL1       -0.3260
     19  H         24.3870  -20.3400  -12.5990 H       1  UNL1        0.1690
     20  C         25.5240  -20.4350  -14.3150 C.2     1  UNL1        0.0360
     21  C         25.4070  -21.3220  -15.3890 C.2     1  UNL1        0.0320
     22  C         25.7520  -20.9190  -16.6830 C.2     1  UNL1        0.0460
     23  C         26.2180  -19.6280  -16.9050 C.2     1  UNL1        0.1380
     24  F         26.5510  -19.2660  -18.1510 F       1  UNL1       -0.2040
     25  C         26.3350  -18.7340  -15.8460 C.2     1  UNL1        0.0740
     26 CL         26.9150  -17.1330  -16.1060 Cl      1  UNL1       -0.0810
     27  C         25.9830  -19.1320  -14.5570 C.2     1  UNL1        0.0560
     28  C         19.7770  -24.0780   -8.1340 C.3     1  UNL1        0.1350
     29  C         18.4640  -23.9960   -7.3500 C.3     1  UNL1        0.0580
     30  C         18.5040  -22.9820   -6.2320 C.2     1  UNL1       -0.0570
     31  C         19.2420  -21.7990   -6.3710 C.2     1  UNL1        0.0070
     32  C         19.2540  -20.8500   -5.3490 C.2     1  UNL1        0.0010
     33  C         18.5260  -21.0710   -4.1820 C.2     1  UNL1        0.0000
     34  C         17.7890  -22.2440   -4.0330 C.2     1  UNL1        0.0010
     35  C         17.7770  -23.1960   -5.0530 C.2     1  UNL1        0.0070
@<TRIPOS>BOND
     1    24    23    1
     2    23    22    2
     3    23    25    1
     4    22    21    1
     5    26    25    1
     6    25    27    2
     7    21    20    2
     8    27    20    1
     9    20    18    1
    10    18    19    1
    11    18    16   am
    12    17    16    2
    13    16    15    1
    14     3     2    1
    15     3     4    1
    16     6     7    1
    17     6     5    2
    18     2     1    2
    19     7     8    2
    20     4     5   ar
    21     4    12   ar
    22     5    10   ar
    23    15    14    1
    24     1    14    1
    25     1    13    1
    26     8     9    1
    27    12    13    1
    28    12    11   ar
    29    10     9    2
    30    10    11   ar
    31    11    28    1
    32    28    29    1
    33    29    30    1
    34    31    30    2
    35    31    32    1
    36    30    35    1
    37    32    33    2
    38    35    34    2
    39    33    34    1
