@<TRIPOS>MOLECULE
18278_out_ligand_01.pdbqt
 34 37 0 0 0
SMALL
GASTEIGER

@<TRIPOS>ATOM
      1  C         22.3800  -22.8680  -10.4380 C.ar    1  UNL1        0.1000
      2  N         22.5770  -23.8000   -9.4800 N.ar    1  UNL1       -0.1470
      3  N         21.5140  -24.3230   -8.7980 N.ar    1  UNL1       -0.1310
      4  C         20.2510  -23.9270   -9.0630 C.ar    1  UNL1        0.1610
      5  C         19.9960  -22.9470  -10.0520 C.ar    1  UNL1        0.0240
      6  C         18.6950  -22.4670  -10.3540 C.2     1  UNL1        0.0160
      7  C         18.4720  -21.5170  -11.3510 C.2     1  UNL1        0.0010
      8  C         19.5440  -21.0170  -12.0760 C.2     1  UNL1        0.0010
      9  C         20.8350  -21.4580  -11.7900 C.2     1  UNL1        0.0150
     10  C         21.0910  -22.4120  -10.7710 C.ar    1  UNL1        0.0090
     11  N         19.1590  -24.5050   -8.3590 N.pl3   1  UNL1       -0.3390
     12  H         19.4060  -25.4590   -8.1070 H       1  UNL1        0.1670
     13  C         18.3400  -23.9110   -7.3750 C.2     1  UNL1        0.0340
     14  C         17.0850  -24.4080   -7.0250 C.2     1  UNL1        0.0320
     15  C         16.3300  -23.8250   -5.9980 C.2     1  UNL1        0.0400
     16  C         16.8250  -22.7400   -5.2670 C.2     1  UNL1        0.0840
     17  C         18.1110  -22.2540   -5.5710 C.2     1  UNL1        0.0670
     18  C         18.8510  -22.8530   -6.6120 C.2     1  UNL1        0.0490
     19  O         16.1240  -22.1320   -4.2550 O.2     1  UNL1       -0.3550
     20  C         14.7020  -22.1450   -4.3310 C.3     1  UNL1        0.2100
     21  C         18.7890  -21.1210   -4.8640 C.2     1  UNL1        0.2520
     22  N         18.5590  -20.9520   -3.5310 N.am    1  UNL1       -0.3660
     23  H         19.0020  -20.1800   -3.0560 H       1  UNL1        0.1590
     24  H         17.9270  -21.5620   -3.0250 H       1  UNL1        0.1590
     25  O         19.5400  -20.3520   -5.4560 O.2     1  UNL1       -0.2680
     26  C         23.6180  -22.3890  -11.0660 C.2     1  UNL1       -0.0050
     27  C         24.0240  -22.8830  -12.3120 C.2     1  UNL1        0.0160
     28  C         25.2010  -22.4260  -12.9120 C.2     1  UNL1        0.0370
     29  C         26.0020  -21.4720  -12.2810 C.2     1  UNL1        0.0680
     30  C         25.6190  -20.9860  -11.0320 C.2     1  UNL1        0.0370
     31  C         24.4380  -21.4430  -10.4310 C.2     1  UNL1        0.0160
     32  O         27.1210  -21.1200  -12.9820 O.2     1  UNL1       -0.3520
     33  C         26.9750  -20.6040  -14.3040 C.3     1  UNL1        0.1710
     34  C         26.3990  -19.1990  -14.2750 C.3     1  UNL1        0.0340
@<TRIPOS>BOND
     1    33    34    1
     2    33    32    1
     3    32    29    1
     4    28    27    1
     5    28    29    2
     6    27    26    2
     7    29    30    1
     8     8     9    2
     9     8     7    1
    10     9    10    1
    11     7     6    2
    12    26     1    1
    13    26    31    1
    14    30    31    2
    15    10     1   ar
    16    10     5   ar
    17     1     2   ar
    18     6     5    1
    19     5     4   ar
    20     2     3   ar
    21     4     3   ar
    22     4    11    1
    23    11    12    1
    24    11    13    1
    25    13    14    2
    26    13    18    1
    27    14    15    1
    28    18    17    2
    29    15    16    2
    30    17    16    1
    31    17    21    1
    32    25    21    2
    33    16    19    1
    34    21    22   am
    35    20    19    1
    36    22    23    1
    37    22    24    1
