@<TRIPOS>MOLECULE
18280_out_ligand_01.pdbqt
 38 41 0 0 0
SMALL
GASTEIGER

@<TRIPOS>ATOM
      1  C         20.4300  -22.0410  -10.8550 C.2     1  UNL1        0.0320
      2  C         20.5820  -21.3810  -12.0790 C.2     1  UNL1        0.0190
      3  C         21.7960  -21.4570  -12.7750 C.2     1  UNL1        0.0300
      4  C         22.8710  -22.1810  -12.2560 C.2     1  UNL1        0.0340
      5  C         22.7200  -22.8240  -11.0220 C.2     1  UNL1        0.0300
      6  C         21.5110  -22.7510  -10.3230 C.2     1  UNL1        0.0190
      7  C         19.1610  -21.9950  -10.0770 C.2     1  UNL1        0.2510
      8  N         17.9990  -21.8300  -10.8040 N.am    1  UNL1       -0.3570
      9  H         18.0250  -21.9130  -11.8110 H       1  UNL1        0.1620
     10  O         19.1780  -22.1360   -8.8600 O.2     1  UNL1       -0.2680
     11  C         16.7010  -21.8330  -10.1540 C.3     1  UNL1        0.1270
     12  C         16.3090  -23.2230   -9.6500 C.3     1  UNL1        0.0580
     13  C         16.3370  -23.3020   -8.1420 C.2     1  UNL1       -0.0570
     14  C         15.9990  -22.1860   -7.3630 C.2     1  UNL1        0.0090
     15  C         16.0450  -22.2560   -5.9710 C.2     1  UNL1        0.0250
     16  C         16.4260  -23.4510   -5.3540 C.2     1  UNL1        0.0740
     17  C         16.7830  -24.5670   -6.1160 C.2     1  UNL1        0.0250
     18  C         16.7320  -24.4890   -7.5080 C.2     1  UNL1        0.0090
     19  S         16.4850  -23.5350   -3.5850 S.O2    1  UNL1        0.2390
     20  O         15.7490  -24.7010   -3.1530 O.2     1  UNL1       -0.2060
     21  O         17.8360  -23.2660   -3.1570 O.2     1  UNL1       -0.2060
     22  N         15.5310  -22.2140   -3.1570 N.3     1  UNL1       -0.2250
     23  H         16.0470  -21.3580   -3.3640 H       1  UNL1        0.1360
     24  H         15.2180  -22.2450   -2.1870 H       1  UNL1        0.1360
     25  N         24.1170  -22.3050  -12.8960 N.am    1  UNL1       -0.3250
     26  C         25.2950  -21.6290  -12.6160 C.2     1  UNL1        0.2540
     27  O         25.4610  -20.8100  -11.7170 O.2     1  UNL1       -0.2700
     28  H         24.1570  -22.9170  -13.7060 H       1  UNL1        0.1690
     29  C         26.4580  -22.0850  -13.5210 C.3     1  UNL1        0.2450
     30  C         27.1120  -20.9050  -14.2330 C.3     1  UNL1        0.2180
     31  O         26.2570  -20.3470  -15.2380 O.2     1  UNL1       -0.3450
     32  C         25.6670  -21.3190  -15.9990 C.2     1  UNL1        0.1020
     33  C         25.0930  -20.9090  -17.2010 C.2     1  UNL1        0.0390
     34  C         25.6110  -22.6610  -15.6190 C.2     1  UNL1        0.1030
     35  C         24.4880  -21.8470  -18.0390 C.2     1  UNL1        0.0030
     36  C         24.4570  -23.1930  -17.6720 C.2     1  UNL1        0.0030
     37  C         25.0190  -23.6010  -16.4620 C.2     1  UNL1        0.0400
     38  O         26.1050  -23.1310  -14.4310 O.2     1  UNL1       -0.3310
@<TRIPOS>BOND
     1    35    36    2
     2    35    33    1
     3    36    37    1
     4    33    32    2
     5    37    34    2
     6    32    34    1
     7    32    31    1
     8    34    38    1
     9    31    30    1
    10    38    29    1
    11    30    29    1
    12    28    25    1
    13    29    26    1
    14    25    26   am
    15    25     4    1
    16     3     4    2
    17     3     2    1
    18    26    27    2
    19     4     5    1
    20     2     1    2
    21     9     8    1
    22     5     6    2
    23     1     6    1
    24     1     7    1
    25     8    11    1
    26     8     7   am
    27    11    12    1
    28     7    10    2
    29    12    13    1
    30    13    18    2
    31    13    14    1
    32    18    17    1
    33    14    15    2
    34    17    16    2
    35    15    16    1
    36    16    19    1
    37    19    22    1
    38    19    21    2
    39    19    20    2
    40    23    22    1
    41    22    24    1
