@<TRIPOS>MOLECULE
18285_out_ligand_01.pdbqt
 38 42 0 0 0
SMALL
GASTEIGER

@<TRIPOS>ATOM
      1  C         20.6590  -22.3050  -11.1980 C.2     1  UNL1       -0.0070
      2  C         20.9440  -23.1040  -10.1140 C.2     1  UNL1        0.1040
      3  N         19.8130  -23.1770   -9.3400 N.pl3   1  UNL1       -0.3460
      4  C         18.7840  -22.4640   -9.9240 C.2     1  UNL1        0.0450
      5  C         17.4560  -22.2620   -9.5190 C.2     1  UNL1        0.0300
      6  C         16.6270  -21.4960  -10.3420 C.2     1  UNL1        0.0020
      7  C         17.1040  -20.9460  -11.5280 C.2     1  UNL1        0.0010
      8  C         18.4310  -21.1480  -11.9210 C.2     1  UNL1        0.0140
      9  C         19.2900  -21.9200  -11.1090 C.2     1  UNL1        0.0020
     10  C         21.5630  -21.9870  -12.2530 C.2     1  UNL1        0.0350
     11  C         22.8560  -21.6110  -12.1810 C.2     1  UNL1        0.0860
     12  C         23.6640  -21.3680  -10.9950 C.2     1  UNL1        0.1830
     13  C         23.5680  -21.3890  -13.4680 C.2     1  UNL1        0.2710
     14  N         24.9230  -21.1700  -10.9600 N.am    1  UNL1       -0.1680
     15  C         25.6390  -21.2140  -12.1310 C.2     1  UNL1        0.3580
     16  N         24.9570  -21.3080  -13.3600 N.am    1  UNL1       -0.2270
     17  O         26.8670  -21.1870  -12.0610 O.2     1  UNL1       -0.2440
     18  O         22.9290  -21.2560  -14.5110 O.2     1  UNL1       -0.2660
     19  O         23.0240  -21.2930   -9.8270 O.2     1  UNL1       -0.3440
     20  H         23.2810  -20.4620   -9.3900 H       1  UNL1        0.2190
     21  C         25.7240  -21.2030  -14.5740 C.2     1  UNL1        0.0530
     22  C         26.0200  -19.9210  -15.0790 C.2     1  UNL1        0.0310
     23  C         26.7090  -19.7590  -16.2820 C.2     1  UNL1        0.0020
     24  C         27.1200  -20.8770  -16.9990 C.2     1  UNL1        0.0010
     25  C         26.8580  -22.1540  -16.5030 C.2     1  UNL1        0.0090
     26  C         26.1780  -22.3380  -15.2850 C.2     1  UNL1       -0.0350
     27  C         25.9940  -23.7540  -14.8050 C.3     1  UNL1        0.0500
     28  C         19.7250  -23.9170   -8.0870 C.3     1  UNL1        0.2310
     29  C         19.0050  -23.1990   -6.9550 C.2     1  UNL1        0.2400
     30  O         19.5280  -22.2020   -6.4590 O.2     1  UNL1       -0.2710
     31  N         17.8240  -23.7810   -6.5270 N.am    1  UNL1       -0.3260
     32  H         17.4720  -24.5670   -7.0620 H       1  UNL1        0.1690
     33  C         16.9780  -23.3500   -5.4820 C.2     1  UNL1        0.0340
     34  C         17.2570  -23.5180   -4.1260 C.2     1  UNL1        0.0290
     35  C         16.3590  -23.0600   -3.1560 C.2     1  UNL1        0.0020
     36  C         15.1750  -22.4310   -3.5340 C.2     1  UNL1        0.0000
     37  C         14.8850  -22.2600   -4.8840 C.2     1  UNL1        0.0020
     38  C         15.7810  -22.7180   -5.8530 C.2     1  UNL1        0.0290
@<TRIPOS>BOND
     1    24    25    2
     2    24    23    1
     3    25    26    1
     4    23    22    2
     5    26    27    1
     6    26    21    2
     7    22    21    1
     8    21    16    1
     9    18    13    2
    10    13    16   am
    11    13    11    1
    12    16    15   am
    13    10    11    2
    14    10     1    1
    15    11    12    1
    16    15    17    2
    17    15    14    1
    18     8     7    2
    19     8     9    1
    20     7     6    1
    21     1     9    1
    22     1     2    2
    23     9     4    2
    24    12    14    2
    25    12    19    1
    26     6     5    2
    27     2     3    1
    28     4     5    1
    29     4     3    1
    30    19    20    1
    31     3    28    1
    32    28    29    1
    33    32    31    1
    34    29    31   am
    35    29    30    2
    36    31    33    1
    37    38    33    2
    38    38    37    1
    39    33    34    1
    40    37    36    2
    41    34    35    2
    42    36    35    1
