@<TRIPOS>MOLECULE
18299_out_ligand_01.pdbqt
 33 36 0 0 0
SMALL
GASTEIGER

@<TRIPOS>ATOM
      1  N         20.4080  -19.5110   -5.4060 N.1     1  UNL1       -0.1910
      2  C         19.6430  -20.3820   -5.3360 C.1     1  UNL1        0.1020
      3  C         18.7080  -21.4610   -5.2140 C.2     1  UNL1        0.0740
      4  C         17.7550  -21.4080   -4.1860 C.2     1  UNL1        0.0640
      5  C         16.8570  -22.4480   -4.0850 C.2     1  UNL1        0.1060
      6  C         16.8760  -23.5090   -4.9570 C.2     1  UNL1        0.1070
      7  C         17.7960  -23.5950   -5.9790 C.2     1  UNL1        0.0710
      8  C         18.7340  -22.5620   -6.1040 C.2     1  UNL1        0.0660
      9  O         15.9030  -24.4190   -4.6850 O.2     1  UNL1       -0.3230
     10  C         15.2830  -23.8220   -3.5270 C.3     1  UNL1        0.3520
     11  O         15.8740  -22.5580   -3.1550 O.2     1  UNL1       -0.3230
     12  N         19.6860  -22.6290   -7.1670 N.pl3   1  UNL1       -0.2790
     13  H         20.0180  -21.7420   -7.5520 H       1  UNL1        0.1790
     14  S         19.4490  -23.7510   -8.4130 S.O2    1  UNL1        0.2640
     15  O         18.0960  -24.2340   -8.2210 O.2     1  UNL1       -0.2000
     16  O         20.5420  -24.6910   -8.4550 O.2     1  UNL1       -0.2000
     17  C         19.4420  -22.7290   -9.8660 C.2     1  UNL1        0.0980
     18  C         20.6740  -22.5780  -10.5320 C.2     1  UNL1        0.0430
     19  C         20.7820  -21.7730  -11.6710 C.2     1  UNL1        0.0340
     20  C         19.6460  -21.1250  -12.1630 C.2     1  UNL1        0.0180
     21  C         18.4250  -21.2640  -11.4980 C.2     1  UNL1        0.0220
     22  C         18.3130  -22.0570  -10.3450 C.2     1  UNL1        0.0340
     23 BR         16.5680  -22.1570   -9.6050 Br      1  UNL1       -0.0490
     24  C         22.1080  -21.6640  -12.3450 C.2     1  UNL1        0.2560
     25  O         22.1930  -20.9410  -13.3300 O.2     1  UNL1       -0.2670
     26  N         23.1090  -22.4430  -11.7940 N.am    1  UNL1       -0.3230
     27  H         22.8440  -23.0910  -11.0650 H       1  UNL1        0.1690
     28  C         24.4600  -22.5080  -12.1960 C.2     1  UNL1        0.0350
     29  C         24.8740  -23.6680  -12.8650 C.2     1  UNL1        0.0290
     30  C         26.1970  -23.8130  -13.2910 C.2     1  UNL1        0.0020
     31  C         27.1210  -22.8000  -13.0510 C.2     1  UNL1        0.0000
     32  C         26.7210  -21.6450  -12.3830 C.2     1  UNL1        0.0020
     33  C         25.3960  -21.5000  -11.9570 C.2     1  UNL1        0.0290
@<TRIPOS>BOND
     1    25    24    2
     2    30    31    2
     3    30    29    1
     4    31    32    1
     5    29    28    2
     6    32    33    2
     7    24    26   am
     8    24    19    1
     9    28    33    1
    10    28    26    1
    11    20    19    2
    12    20    21    1
    13    26    27    1
    14    19    18    1
    15    21    22    2
    16    18    17    2
    17    22    17    1
    18    22    23    1
    19    17    14    1
    20    16    14    2
    21    14    15    2
    22    14    12    1
    23    13    12    1
    24    12     8    1
    25     8     7    1
    26     8     3    2
    27     7     6    2
    28     1     2    3
    29     2     3    1
    30     3     4    1
    31     6     9    1
    32     6     5    1
    33     9    10    1
    34     4     5    2
    35     5    11    1
    36    10    11    1
