@<TRIPOS>MOLECULE
182_out_ligand_01.pdbqt
 33 36 0 0 0
SMALL
GASTEIGER

@<TRIPOS>ATOM
      1  C         21.3630  -23.1470   -9.8810 C.2     1  UNL1        0.0320
      2  C         20.6880  -23.9450   -8.9450 C.2     1  UNL1        0.0180
      3  C         19.3100  -23.7960   -8.7590 C.2     1  UNL1        0.0260
      4  C         18.6100  -22.8480   -9.5120 C.2     1  UNL1        0.0790
      5  C         19.2790  -22.0200  -10.4170 C.2     1  UNL1        0.0260
      6  C         20.6550  -22.1740  -10.6010 C.2     1  UNL1        0.0180
      7  C         22.8280  -23.2740  -10.1250 C.2     1  UNL1        0.2510
      8  O         23.5780  -23.5630   -9.2000 O.2     1  UNL1       -0.2680
      9  N         23.2610  -23.0160  -11.4070 N.am    1  UNL1       -0.3530
     10  H         22.6180  -22.6910  -12.1130 H       1  UNL1        0.1630
     11  C         24.6640  -23.0470  -11.7570 C.3     1  UNL1        0.1610
     12  C         24.8280  -23.1750  -13.2490 C.2     1  UNL1       -0.0380
     13  C         25.3010  -24.3750  -13.8030 C.2     1  UNL1        0.0120
     14  C         25.4600  -24.5090  -15.1840 C.2     1  UNL1        0.0400
     15  C         25.1360  -23.4460  -16.0230 C.2     1  UNL1        0.1020
     16  C         24.6920  -22.2360  -15.4830 C.2     1  UNL1        0.1020
     17  O         25.2880  -23.6540  -17.3710 O.2     1  UNL1       -0.3460
     18  C         24.5270  -22.1020  -14.1030 C.2     1  UNL1        0.0480
     19  O         24.3870  -21.1360  -16.2460 O.2     1  UNL1       -0.3460
     20  C         24.8760  -21.2740  -17.5850 C.3     1  UNL1        0.2020
     21  C         24.5850  -22.6630  -18.1280 C.3     1  UNL1        0.2020
     22  S         16.8540  -22.6600   -9.2740 S.O2    1  UNL1        0.2630
     23  O         16.2830  -23.9720   -9.0660 O.2     1  UNL1       -0.2000
     24  O         16.3700  -21.7860  -10.3220 O.2     1  UNL1       -0.2000
     25  N         16.7570  -21.7720   -7.8420 N.pl3   1  UNL1       -0.2810
     26  H         17.4420  -21.0170   -7.8100 H       1  UNL1        0.1790
     27  C         16.4070  -22.4210   -6.6260 C.2     1  UNL1        0.0420
     28  C         17.4210  -23.0180   -5.8690 C.2     1  UNL1        0.0330
     29  C         17.1010  -23.7000   -4.6940 C.2     1  UNL1        0.0440
     30  C         15.7750  -23.7740   -4.2820 C.2     1  UNL1        0.1160
     31  F         15.4710  -24.4350   -3.1560 F       1  UNL1       -0.2060
     32  C         14.7610  -23.1710   -5.0190 C.2     1  UNL1        0.0440
     33  C         15.0780  -22.4900   -6.1960 C.2     1  UNL1        0.0330
@<TRIPOS>BOND
     1    21    20    1
     2    21    17    1
     3    20    19    1
     4    17    15    1
     5    19    16    1
     6    15    16    2
     7    15    14    1
     8    16    18    1
     9    14    13    2
    10    18    12    2
    11    13    12    1
    12    12    11    1
    13    10     9    1
    14    11     9    1
    15     9     7   am
    16     6     5    1
    17     6     1    2
    18     5     4    2
    19    24    22    2
    20     7     1    1
    21     7     8    2
    22     1     2    1
    23     4    22    1
    24     4     3    1
    25    22    23    2
    26    22    25    1
    27     2     3    2
    28    25    26    1
    29    25    27    1
    30    27    33    2
    31    27    28    1
    32    33    32    1
    33    28    29    2
    34    32    30    2
    35    29    30    1
    36    30    31    1
