@<TRIPOS>MOLECULE
18304_out_ligand_01.pdbqt
 31 34 0 0 0
SMALL
GASTEIGER

@<TRIPOS>ATOM
      1  O         20.7530  -25.5420   -8.6850 O.2     1  UNL1       -0.2680
      2  C         20.5300  -24.3510   -8.8630 C.2     1  UNL1        0.2510
      3  N         19.4240  -23.6960   -8.3600 N.am    1  UNL1       -0.3560
      4  H         19.4900  -22.6900   -8.2670 H       1  UNL1        0.1620
      5  C         21.4940  -23.5140   -9.6300 C.2     1  UNL1        0.0320
      6  C         22.8570  -23.6300   -9.3430 C.2     1  UNL1        0.0190
      7  C         23.7980  -22.8620  -10.0400 C.2     1  UNL1        0.0300
      8  C         23.3910  -21.9790  -11.0420 C.2     1  UNL1        0.0350
      9  C         22.0250  -21.8820  -11.3410 C.2     1  UNL1        0.0300
     10  C         21.0790  -22.6420  -10.6410 C.2     1  UNL1        0.0190
     11  N         24.2720  -21.1790  -11.8020 N.am    1  UNL1       -0.3210
     12  C         24.8430  -21.4740  -13.0350 C.2     1  UNL1        0.2790
     13  O         24.6990  -22.5420  -13.6220 O.2     1  UNL1       -0.2650
     14  H         24.5460  -20.3070  -11.3760 H       1  UNL1        0.1690
     15  C         25.6620  -20.3960  -13.5770 C.2     1  UNL1        0.1420
     16  C         26.7800  -19.7170  -13.1180 C.2     1  UNL1        0.0450
     17  C         27.1180  -18.7570  -14.1050 C.2     1  UNL1        0.0270
     18  C         26.1890  -18.8970  -15.1060 C.2     1  UNL1        0.1430
     19  O         25.3070  -19.8790  -14.7970 O.2     1  UNL1       -0.3170
     20  C         18.5280  -24.3660   -7.4290 C.3     1  UNL1        0.1370
     21  C         17.3650  -23.4570   -6.9320 C.3     1  UNL1        0.0030
     22  C         16.8900  -22.4980   -8.0500 C.3     1  UNL1        0.0160
     23  C         16.0490  -23.3510   -8.9950 C.3     1  UNL1        0.0010
     24  C         15.4930  -24.4890   -8.1450 C.3     1  UNL1        0.0010
     25  C         16.0790  -24.3000   -6.7470 C.3     1  UNL1        0.0160
     26  C         17.7740  -22.7610   -5.6280 C.2     1  UNL1       -0.0480
     27  C         17.3910  -23.2540   -4.3680 C.2     1  UNL1        0.0080
     28  C         17.7480  -22.5870   -3.1930 C.2     1  UNL1        0.0010
     29  C         18.4850  -21.4080   -3.2540 C.2     1  UNL1        0.0000
     30  C         18.8670  -20.8960   -4.4900 C.2     1  UNL1        0.0010
     31  C         18.5130  -21.5630   -5.6640 C.2     1  UNL1        0.0080
@<TRIPOS>BOND
     1    18    19    1
     2    18    17    2
     3    19    15    1
     4    17    16    1
     5    13    12    2
     6    15    16    2
     7    15    12    1
     8    12    11   am
     9    11    14    1
    10    11     8    1
    11     9     8    2
    12     9    10    1
    13     8     7    1
    14    10     5    2
    15     7     6    2
    16     5     6    1
    17     5     2    1
    18    23    24    1
    19    23    22    1
    20     2     1    2
    21     2     3   am
    22     3     4    1
    23     3    20    1
    24    24    25    1
    25    22    21    1
    26    20    21    1
    27    21    25    1
    28    21    26    1
    29    31    26    2
    30    31    30    1
    31    26    27    1
    32    30    29    2
    33    27    28    2
    34    29    28    1
