@<TRIPOS>MOLECULE
18303_out_ligand_01.pdbqt
 27 29 0 0 0
SMALL
GASTEIGER

@<TRIPOS>ATOM
      1  C         17.5760  -22.1500   -5.3450 C.2     1  UNL1        0.0720
      2  C         17.5140  -22.2460   -3.9480 C.2     1  UNL1        0.0220
      3  C         16.2880  -22.4740   -3.3380 C.2     1  UNL1        0.0200
      4  C         15.1760  -22.5940   -4.1500 C.2     1  UNL1        0.1180
      5  N         15.2110  -22.4980   -5.4980 N.2     1  UNL1       -0.2480
      6  C         16.4000  -22.2580   -6.1030 C.2     1  UNL1        0.1180
      7  C         18.8730  -21.8720   -6.0050 C.2     1  UNL1        0.2590
      8  O         19.4640  -20.8380   -5.7120 O.2     1  UNL1       -0.2670
      9  N         19.2760  -22.8400   -6.9100 N.am    1  UNL1       -0.3230
     10  H         18.6070  -23.5710   -7.1200 H       1  UNL1        0.1690
     11  C         20.4750  -22.8730   -7.6500 C.2     1  UNL1        0.0350
     12  C         20.7280  -24.0280   -8.4050 C.2     1  UNL1        0.0320
     13  C         21.8970  -24.1420   -9.1620 C.2     1  UNL1        0.0440
     14  C         22.8150  -23.1010   -9.1610 C.2     1  UNL1        0.1160
     15  F         23.9370  -23.2090   -9.8850 F       1  UNL1       -0.2060
     16  C         22.5850  -21.9520   -8.4180 C.2     1  UNL1        0.0440
     17  C         21.4140  -21.8370   -7.6610 C.2     1  UNL1        0.0320
     18  N         16.4540  -22.2300   -7.5050 N.pl3   1  UNL1       -0.2760
     19  H         15.9280  -21.4190   -7.8490 H       1  UNL1        0.1290
     20  C         16.1110  -23.4650   -8.2100 C.3     1  UNL1        0.0980
     21  C         15.8480  -23.2240   -9.7020 C.3     1  UNL1        0.0530
     22  C         16.9570  -22.4270  -10.3450 C.2     1  UNL1       -0.0570
     23  C         18.2480  -22.9610  -10.4580 C.2     1  UNL1        0.0070
     24  C         19.2650  -22.2260  -11.0700 C.2     1  UNL1        0.0010
     25  C         19.0000  -20.9550  -11.5760 C.2     1  UNL1        0.0000
     26  C         17.7180  -20.4170  -11.4720 C.2     1  UNL1        0.0010
     27  C         16.7000  -21.1500  -10.8610 C.2     1  UNL1        0.0070
@<TRIPOS>BOND
     1    25    26    2
     2    25    24    1
     3    26    27    1
     4    24    23    2
     5    27    22    2
     6    23    22    1
     7    22    21    1
     8    15    14    1
     9    21    20    1
    10    13    14    2
    11    13    12    1
    12    14    16    1
    13    16    17    2
    14    12    11    2
    15    20    18    1
    16    19    18    1
    17    17    11    1
    18    11     9    1
    19    18     6    1
    20    10     9    1
    21     9     7   am
    22     6     5    1
    23     6     1    2
    24     7     8    2
    25     7     1    1
    26     5     4    2
    27     1     2    1
    28     4     3    1
    29     2     3    2
