@<TRIPOS>MOLECULE
18332_out_ligand_01.pdbqt
 34 37 0 0 0
SMALL
GASTEIGER

@<TRIPOS>ATOM
      1  C         21.7980  -22.9000   -9.9740 C.2     1  UNL1        0.0800
      2  C         21.2330  -23.9740   -9.2840 C.2     1  UNL1        0.0270
      3  C         19.8500  -24.1750   -9.3270 C.2     1  UNL1        0.0310
      4  C         19.0250  -23.2920  -10.0330 C.2     1  UNL1        0.0340
      5  C         19.6100  -22.2280  -10.7340 C.2     1  UNL1        0.0310
      6  C         20.9910  -22.0200  -10.6960 C.2     1  UNL1        0.0270
      7  N         17.6270  -23.4300  -10.1380 N.am    1  UNL1       -0.3330
      8  H         17.2820  -23.7950  -11.0210 H       1  UNL1        0.1680
      9  C         16.6180  -23.2440   -9.2240 C.2     1  UNL1        0.1760
     10  S         15.4070  -22.1750   -9.6700 S.2     1  UNL1       -0.0410
     11  N         16.7880  -23.8600   -8.0100 N.am    1  UNL1       -0.3320
     12  H         17.3950  -24.6630   -8.0760 H       1  UNL1        0.1680
     13  C         16.4720  -23.4360   -6.6930 C.2     1  UNL1        0.0450
     14  C         15.3380  -23.9330   -6.0370 C.2     1  UNL1        0.0300
     15  C         15.0540  -23.5700   -4.7230 C.2     1  UNL1        0.0030
     16  C         15.9130  -22.7190   -4.0370 C.2     1  UNL1        0.0120
     17  C         17.0700  -22.2210   -4.6510 C.2     1  UNL1       -0.0240
     18  C         17.9230  -21.3730   -3.9250 C.2     1  UNL1        0.0120
     19  C         17.3720  -22.5710   -5.9940 C.2     1  UNL1        0.0010
     20  C         19.0790  -20.8520   -4.5000 C.2     1  UNL1        0.0010
     21  C         19.3930  -21.1680   -5.8120 C.2     1  UNL1        0.0010
     22  C         18.5540  -22.0090   -6.5490 C.2     1  UNL1        0.0140
     23  S         23.5530  -22.6430   -9.9040 S.O2    1  UNL1        0.2630
     24  O         23.8100  -21.2260   -9.7730 O.2     1  UNL1       -0.2000
     25  O         24.0800  -23.5870   -8.9390 O.2     1  UNL1       -0.2000
     26  N         24.0710  -23.1860  -11.4170 N.pl3   1  UNL1       -0.2800
     27  H         24.6840  -23.9960  -11.3250 H       1  UNL1        0.1790
     28  C         24.4080  -22.2150  -12.4040 C.2     1  UNL1        0.0480
     29  C         23.4040  -21.7660  -13.2650 C.2     1  UNL1        0.0300
     30  C         23.6800  -20.7860  -14.2170 C.2     1  UNL1        0.0020
     31  C         24.9600  -20.2470  -14.3040 C.2     1  UNL1        0.0010
     32  C         25.9660  -20.6910  -13.4430 C.2     1  UNL1        0.0090
     33  C         25.7070  -21.6840  -12.4850 C.2     1  UNL1       -0.0350
     34  C         26.8080  -22.1200  -11.5610 C.3     1  UNL1        0.0500
@<TRIPOS>BOND
     1    31    30    2
     2    31    32    1
     3    30    29    1
     4    32    33    2
     5    29    28    2
     6    33    28    1
     7    33    34    1
     8    28    26    1
     9    26    27    1
    10    26    23    1
    11     8     7    1
    12     5     6    1
    13     5     4    2
    14     6     1    2
    15     7     4    1
    16     7     9    1
    17     4     3    1
    18     1    23    1
    19     1     2    1
    20    23    24    2
    21    23    25    2
    22    10     9    2
    23     3     2    2
    24     9    11    1
    25    12    11    1
    26    11    13    1
    27    13    14    2
    28    13    19    1
    29    22    19    1
    30    22    21    2
    31    14    15    1
    32    19    17    2
    33    21    20    1
    34    15    16    2
    35    17    16    1
    36    17    18    1
    37    20    18    2
