@<TRIPOS>MOLECULE
18348_out_ligand_01.pdbqt
 37 41 0 0 0
SMALL
GASTEIGER

@<TRIPOS>ATOM
      1  N         21.9850  -22.2740   -9.8630 N.am    1  UNL1       -0.3050
      2  C         21.9410  -23.3830   -9.0330 C.2     1  UNL1        0.2490
      3  O         22.9450  -23.9970   -8.6800 O.2     1  UNL1       -0.2680
      4  C         20.6210  -23.8300   -8.5620 C.2     1  UNL1        0.0920
      5  C         19.4900  -23.3070   -9.0540 C.2     1  UNL1        0.0490
      6  C         19.5530  -22.3120  -10.1340 C.2     1  UNL1        0.0070
      7  C         18.4040  -21.9080  -10.8320 C.2     1  UNL1        0.0150
      8  C         18.4770  -20.9400  -11.8370 C.2     1  UNL1        0.0010
      9  C         19.7020  -20.3770  -12.1650 C.2     1  UNL1        0.0020
     10  C         20.8600  -20.7950  -11.5050 C.2     1  UNL1        0.0300
     11  C         20.8050  -21.7720  -10.4960 C.2     1  UNL1        0.0490
     12  C         23.3060  -21.7300  -10.1860 C.3     1  UNL1        0.2350
     13  C         23.8280  -22.2120  -11.5420 C.2     1  UNL1        0.2400
     14  O         23.6150  -23.3670  -11.9100 O.2     1  UNL1       -0.2710
     15  N         24.4730  -21.2190  -12.2610 N.am    1  UNL1       -0.3260
     16  H         24.4960  -20.2940  -11.8290 H       1  UNL1        0.1690
     17  C         25.1000  -21.3330  -13.5170 C.2     1  UNL1        0.0370
     18  C         26.3910  -20.8750  -13.7900 C.2     1  UNL1        0.0320
     19  C         26.9440  -21.0200  -15.0690 C.2     1  UNL1        0.0420
     20  C         26.2080  -21.6230  -16.0810 C.2     1  UNL1        0.1020
     21  C         24.9060  -22.0590  -15.8250 C.2     1  UNL1        0.1040
     22  O         26.8190  -21.7430  -17.3030 O.2     1  UNL1       -0.3460
     23  C         24.3620  -21.9320  -14.5460 C.2     1  UNL1        0.0690
     24  O         24.1030  -22.6260  -16.7820 O.2     1  UNL1       -0.3460
     25  C         24.6120  -22.3800  -18.0990 C.3     1  UNL1        0.2020
     26  C         26.1080  -22.6530  -18.1530 C.3     1  UNL1        0.2020
     27  C         18.2480  -23.8050   -8.3900 C.2     1  UNL1        0.2530
     28  O         17.1670  -23.8090   -8.9710 O.2     1  UNL1       -0.2680
     29  N         18.4460  -24.3100   -7.1300 N.am    1  UNL1       -0.3530
     30  H         19.3910  -24.4240   -6.7870 H       1  UNL1        0.1630
     31  C         17.3910  -24.9650   -6.3900 C.3     1  UNL1        0.1610
     32  C         16.6450  -23.9650   -5.5470 C.2     1  UNL1       -0.0410
     33  C         15.4040  -23.4630   -5.9620 C.2     1  UNL1        0.0090
     34  C         14.7310  -22.5170   -5.1890 C.2     1  UNL1        0.0010
     35  C         15.2930  -22.0590   -4.0000 C.2     1  UNL1        0.0000
     36  C         16.5300  -22.5470   -3.5800 C.2     1  UNL1        0.0010
     37  C         17.2050  -23.4930   -4.3520 C.2     1  UNL1        0.0090
@<TRIPOS>BOND
     1    26    25    1
     2    26    22    1
     3    25    24    1
     4    22    20    1
     5    24    21    1
     6    20    21    2
     7    20    19    1
     8    21    23    1
     9    19    18    2
    10    23    17    2
    11    18    17    1
    12    17    15    1
    13    15    16    1
    14    15    13   am
    15     9     8    2
    16     9    10    1
    17    14    13    2
    18     8     7    1
    19    13    12    1
    20    10    11    2
    21     7     6    2
    22    11     6    1
    23    11     1    1
    24    12     1    1
    25     6     5    1
    26     1     2   am
    27     5     4    2
    28     5    27    1
    29     2     3    2
    30     2     4    1
    31    28    27    2
    32    27    29   am
    33    29    30    1
    34    29    31    1
    35    31    32    1
    36    33    32    2
    37    33    34    1
    38    32    37    1
    39    34    35    2
    40    37    36    2
    41    35    36    1
