@<TRIPOS>MOLECULE
18347_out_ligand_01.pdbqt
 34 37 0 0 0
SMALL
GASTEIGER

@<TRIPOS>ATOM
      1  N         20.4200  -23.5680   -9.5310 N.am    1  UNL1       -0.3050
      2  C         21.8030  -23.6140   -9.6220 C.2     1  UNL1        0.2490
      3  O         22.5080  -24.2360   -8.8260 O.2     1  UNL1       -0.2680
      4  C         22.4430  -22.8830  -10.7260 C.2     1  UNL1        0.0920
      5  C         21.7310  -22.1050  -11.5510 C.2     1  UNL1        0.0490
      6  C         20.2900  -21.9140  -11.3310 C.2     1  UNL1        0.0070
      7  C         19.5480  -20.9780  -12.0720 C.2     1  UNL1        0.0150
      8  C         18.1810  -20.8170  -11.8580 C.2     1  UNL1        0.0010
      9  C         17.5420  -21.5760  -10.8870 C.2     1  UNL1        0.0020
     10  C         18.2690  -22.4880  -10.1220 C.2     1  UNL1        0.0300
     11  C         19.6460  -22.6680  -10.3280 C.2     1  UNL1        0.0490
     12  C         19.7950  -24.4000   -8.5030 C.3     1  UNL1        0.2350
     13  C         19.2130  -23.5590   -7.3640 C.2     1  UNL1        0.2400
     14  O         19.7710  -22.5240   -7.0050 O.2     1  UNL1       -0.2710
     15  N         18.0330  -24.0820   -6.8590 N.am    1  UNL1       -0.3260
     16  H         17.7060  -24.9450   -7.2970 H       1  UNL1        0.1690
     17  C         17.2350  -23.5740   -5.8160 C.2     1  UNL1        0.0360
     18  C         17.5510  -23.6930   -4.4600 C.2     1  UNL1        0.0290
     19  C         16.7070  -23.1530   -3.4840 C.2     1  UNL1        0.0040
     20  C         15.5340  -22.4970   -3.8540 C.2     1  UNL1        0.0190
     21  C         15.2130  -22.3830   -5.2050 C.2     1  UNL1        0.0130
     22 BR         13.6210  -21.4970   -5.7160 Br      1  UNL1       -0.0510
     23  C         16.0560  -22.9110   -6.1830 C.2     1  UNL1        0.0480
     24  C         22.5260  -21.5140  -12.6640 C.2     1  UNL1        0.2530
     25  O         21.9980  -20.8390  -13.5410 O.2     1  UNL1       -0.2680
     26  N         23.8750  -21.7350  -12.5610 N.am    1  UNL1       -0.3530
     27  H         24.2400  -22.1540  -11.7170 H       1  UNL1        0.1630
     28  C         24.8220  -21.0920  -13.4450 C.3     1  UNL1        0.1610
     29  C         24.8840  -21.8120  -14.7680 C.2     1  UNL1       -0.0410
     30  C         24.8190  -21.1000  -15.9760 C.2     1  UNL1        0.0090
     31  C         24.8570  -21.7760  -17.1970 C.2     1  UNL1        0.0010
     32  C         24.9550  -23.1690  -17.2230 C.2     1  UNL1        0.0000
     33  C         25.0120  -23.8870  -16.0280 C.2     1  UNL1        0.0010
     34  C         24.9740  -23.2130  -14.8060 C.2     1  UNL1        0.0090
@<TRIPOS>BOND
     1    32    31    2
     2    32    33    1
     3    31    30    1
     4    33    34    2
     5    30    29    2
     6    34    29    1
     7    29    28    1
     8    25    24    2
     9    28    26    1
    10    24    26   am
    11    24     5    1
    12    26    27    1
    13     7     8    1
    14     7     6    2
    15     8     9    2
    16     5     6    1
    17     5     4    2
    18     6    11    1
    19     9    10    1
    20     4     2    1
    21    11    10    2
    22    11     1    1
    23     2     1   am
    24     2     3    2
    25     1    12    1
    26    12    13    1
    27    13    14    2
    28    13    15   am
    29    16    15    1
    30    15    17    1
    31    23    17    2
    32    23    21    1
    33    17    18    1
    34    22    21    1
    35    21    20    2
    36    18    19    2
    37    20    19    1
