@<TRIPOS>MOLECULE
18350_out_ligand_01.pdbqt
 34 37 0 0 0
SMALL
GASTEIGER

@<TRIPOS>ATOM
      1  N         20.0490  -23.7360   -9.3260 N.am    1  UNL1       -0.3050
      2  C         21.3190  -24.2630   -9.1470 C.2     1  UNL1        0.2490
      3  O         21.5320  -25.3040   -8.5260 O.2     1  UNL1       -0.2680
      4  C         22.4530  -23.5300   -9.7300 C.2     1  UNL1        0.0920
      5  C         22.2610  -22.4560  -10.5060 C.2     1  UNL1        0.0490
      6  C         20.9000  -22.0180  -10.8470 C.2     1  UNL1        0.0070
      7  C         20.6690  -21.0020  -11.7890 C.2     1  UNL1        0.0150
      8  C         19.3730  -20.5920  -12.0960 C.2     1  UNL1        0.0010
      9  C         18.2930  -21.2070  -11.4770 C.2     1  UNL1        0.0020
     10  C         18.5040  -22.2370  -10.5570 C.2     1  UNL1        0.0300
     11  C         19.8040  -22.6580  -10.2320 C.2     1  UNL1        0.0490
     12  C         18.9500  -24.4030   -8.6280 C.3     1  UNL1        0.2350
     13  C         18.4460  -23.5850   -7.4360 C.2     1  UNL1        0.2400
     14  O         19.1720  -22.7510   -6.9000 O.2     1  UNL1       -0.2710
     15  N         17.1550  -23.9220   -7.0620 N.am    1  UNL1       -0.3260
     16  H         16.7030  -24.6450   -7.6240 H       1  UNL1        0.1690
     17  C         16.3840  -23.3760   -6.0180 C.2     1  UNL1        0.0370
     18  C         16.6420  -23.5890   -4.6610 C.2     1  UNL1        0.0290
     19  C         15.8270  -23.0090   -3.6800 C.2     1  UNL1        0.0050
     20  C         14.7500  -22.2090   -4.0510 C.2     1  UNL1        0.0420
     21  C         14.4960  -21.9980   -5.4010 C.2     1  UNL1        0.1180
     22  F         13.4610  -21.2280   -5.7630 F       1  UNL1       -0.2060
     23  C         15.2990  -22.5710   -6.3830 C.2     1  UNL1        0.0710
     24  C         23.5120  -21.7810  -10.9390 C.2     1  UNL1        0.2530
     25  O         24.1490  -21.0590  -10.1810 O.2     1  UNL1       -0.2680
     26  N         23.8390  -22.0180  -12.2500 N.am    1  UNL1       -0.3530
     27  H         23.2840  -22.6680  -12.7890 H       1  UNL1        0.1630
     28  C         25.1060  -21.5990  -12.8070 C.3     1  UNL1        0.1610
     29  C         25.1020  -21.7860  -14.3010 C.2     1  UNL1       -0.0410
     30  C         25.1130  -23.0780  -14.8500 C.2     1  UNL1        0.0090
     31  C         25.0690  -23.2620  -16.2310 C.2     1  UNL1        0.0010
     32  C         25.0090  -22.1570  -17.0800 C.2     1  UNL1        0.0000
     33  C         24.9890  -20.8690  -16.5470 C.2     1  UNL1        0.0010
     34  C         25.0320  -20.6830  -15.1640 C.2     1  UNL1        0.0090
@<TRIPOS>BOND
     1    32    33    2
     2    32    31    1
     3    33    34    1
     4    31    30    2
     5    34    29    2
     6    30    29    1
     7    29    28    1
     8    28    26    1
     9    27    26    1
    10    26    24   am
    11     8     7    1
    12     8     9    2
    13     7     6    2
    14     9    10    1
    15    24     5    1
    16    24    25    2
    17     6     5    1
    18     6    11    1
    19    10    11    2
    20     5     4    2
    21    11     1    1
    22     4     2    1
    23     1     2   am
    24     1    12    1
    25     2     3    2
    26    12    13    1
    27    16    15    1
    28    13    15   am
    29    13    14    2
    30    15    17    1
    31    23    17    2
    32    23    21    1
    33    17    18    1
    34    22    21    1
    35    21    20    2
    36    18    19    2
    37    20    19    1
