@<TRIPOS>MOLECULE
18352_out_ligand_01.pdbqt
 35 38 0 0 0
SMALL
GASTEIGER

@<TRIPOS>ATOM
      1  N         21.8570  -23.5140   -9.5760 N.am    1  UNL1       -0.3050
      2  C         23.2340  -23.6290   -9.4520 C.2     1  UNL1        0.2490
      3  O         23.7940  -24.3980   -8.6770 O.2     1  UNL1       -0.2680
      4  C         24.0720  -22.7910  -10.3260 C.2     1  UNL1        0.0920
      5  C         23.5360  -21.9510  -11.2190 C.2     1  UNL1        0.0490
      6  C         22.0780  -21.8620  -11.3720 C.2     1  UNL1        0.0070
      7  C         21.4940  -21.0000  -12.3160 C.2     1  UNL1        0.0150
      8  C         20.1100  -20.9190  -12.4480 C.2     1  UNL1        0.0010
      9  C         19.2920  -21.6950  -11.6360 C.2     1  UNL1        0.0020
     10  C         19.8590  -22.5520  -10.6880 C.2     1  UNL1        0.0300
     11  C         21.2520  -22.6440  -10.5400 C.2     1  UNL1        0.0490
     12  C         21.0240  -24.3160   -8.6690 C.3     1  UNL1        0.2350
     13  C         20.0160  -23.5190   -7.8280 C.2     1  UNL1        0.2400
     14  N         18.7620  -24.0950   -7.7540 N.am    1  UNL1       -0.3260
     15  H         18.6450  -24.9570   -8.2720 H       1  UNL1        0.1690
     16  O         20.3810  -22.4990   -7.2460 O.2     1  UNL1       -0.2710
     17  C         17.6250  -23.6270   -7.0680 C.2     1  UNL1        0.0350
     18  C         16.7360  -22.8240   -7.7870 C.2     1  UNL1        0.0300
     19  C         15.5870  -22.3120   -7.1790 C.2     1  UNL1        0.0090
     20  C         15.3020  -22.5900   -5.8370 C.2     1  UNL1       -0.0560
     21  C         14.0520  -22.0300   -5.2160 C.3     1  UNL1        0.0490
     22  C         16.1850  -23.4080   -5.1070 C.2     1  UNL1       -0.0540
     23  C         17.3430  -23.9130   -5.7320 C.2     1  UNL1        0.0370
     24  C         15.9290  -23.7450   -3.6620 C.3     1  UNL1        0.0490
     25  C         24.5000  -21.2070  -12.0740 C.2     1  UNL1        0.2530
     26  O         25.4700  -20.6360  -11.5940 O.2     1  UNL1       -0.2680
     27  N         24.2070  -21.2680  -13.4150 N.am    1  UNL1       -0.3530
     28  H         23.4950  -21.9130  -13.7290 H       1  UNL1        0.1630
     29  C         25.1370  -20.7800  -14.4080 C.3     1  UNL1        0.1610
     30  C         24.9330  -21.4910  -15.7210 C.2     1  UNL1       -0.0410
     31  C         25.0190  -20.7960  -16.9350 C.2     1  UNL1        0.0090
     32  C         24.8040  -21.4580  -18.1450 C.2     1  UNL1        0.0010
     33  C         24.4940  -22.8160  -18.1530 C.2     1  UNL1        0.0000
     34  C         24.3970  -23.5150  -16.9520 C.2     1  UNL1        0.0010
     35  C         24.6120  -22.8560  -15.7420 C.2     1  UNL1        0.0090
@<TRIPOS>BOND
     1    33    32    2
     2    33    34    1
     3    32    31    1
     4    34    35    2
     5    31    30    2
     6    35    30    1
     7    30    29    1
     8    29    27    1
     9    28    27    1
    10    27    25   am
    11     8     7    1
    12     8     9    2
    13     7     6    2
    14    25    26    2
    15    25     5    1
    16     9    10    1
    17     6     5    1
    18     6    11    1
    19     5     4    2
    20    10    11    2
    21    11     1    1
    22     4     2    1
    23     1     2   am
    24     1    12    1
    25     2     3    2
    26    12    13    1
    27    15    14    1
    28    13    14   am
    29    13    16    2
    30    18    19    1
    31    18    17    2
    32    14    17    1
    33    19    20    2
    34    17    23    1
    35    20    21    1
    36    20    22    1
    37    23    22    2
    38    22    24    1
