@<TRIPOS>MOLECULE
18358_out_ligand_01.pdbqt
 27 29 0 0 0
SMALL
GASTEIGER

@<TRIPOS>ATOM
      1  C         20.1650  -22.5250   -7.8990 C.2     1  UNL1        0.2560
      2  O         21.1910  -22.1080   -7.3770 O.2     1  UNL1       -0.2670
      3  N         19.9650  -22.7800   -9.2450 N.am    1  UNL1       -0.3230
      4  H         19.1090  -23.2550   -9.4990 H       1  UNL1        0.1690
      5  C         19.0050  -22.8430   -7.0180 C.2     1  UNL1        0.0320
      6  C         18.2450  -24.0100   -7.1910 C.2     1  UNL1        0.0180
      7  C         17.1620  -24.2700   -6.3450 C.2     1  UNL1        0.0260
      8  C         16.8420  -23.3610   -5.3310 C.2     1  UNL1        0.0740
      9  C         17.5760  -22.1820   -5.1710 C.2     1  UNL1        0.0260
     10  C         18.6570  -21.9260   -6.0170 C.2     1  UNL1        0.0180
     11  S         15.4510  -23.6710   -4.2800 S.O2    1  UNL1        0.2390
     12  O         14.3100  -24.0180   -5.0930 O.2     1  UNL1       -0.2060
     13  O         15.8760  -24.4680   -3.1540 O.2     1  UNL1       -0.2060
     14  N         15.1380  -22.1400   -3.6660 N.3     1  UNL1       -0.2250
     15  H         14.3290  -21.7370   -4.1410 H       1  UNL1        0.1360
     16  H         15.9780  -21.5650   -3.7340 H       1  UNL1        0.1360
     17  C         20.8680  -22.5380  -10.3020 C.2     1  UNL1        0.0370
     18  C         20.4110  -21.7100  -11.3540 C.2     1  UNL1        0.0320
     19  C         21.2310  -21.4050  -12.4460 C.2     1  UNL1        0.0420
     20  C         22.5000  -21.9370  -12.4590 C.2     1  UNL1        0.1110
     21  C         22.9550  -22.7400  -11.4390 C.2     1  UNL1        0.1130
     22  O         23.4300  -21.7490  -13.4310 O.2     1  UNL1       -0.2560
     23  C         22.1670  -23.0570  -10.3500 C.2     1  UNL1        0.0690
     24  O         24.2340  -23.1590  -11.6400 O.2     1  UNL1       -0.2560
     25  C         24.5110  -22.5260  -12.8960 C.3     1  UNL1        0.4980
     26  F         25.5880  -21.7180  -12.7450 F       1  UNL1       -0.1470
     27  F         24.8400  -23.4840  -13.8000 F       1  UNL1       -0.1470
@<TRIPOS>BOND
     1    27    25    1
     2    22    25    1
     3    22    20    1
     4    25    26    1
     5    25    24    1
     6    20    19    2
     7    20    21    1
     8    19    18    1
     9    24    21    1
    10    21    23    2
    11    18    17    2
    12    23    17    1
    13    17     3    1
    14     4     3    1
    15     3     1   am
    16     1     2    2
    17     1     5    1
    18     6     5    2
    19     6     7    1
    20     5    10    1
    21     7     8    2
    22    10     9    2
    23     8     9    1
    24     8    11    1
    25    12    11    2
    26    11    14    1
    27    11    13    2
    28    15    14    1
    29    16    14    1
