@<TRIPOS>MOLECULE
18363_out_ligand_01.pdbqt
 33 36 0 0 0
SMALL
GASTEIGER

@<TRIPOS>ATOM
      1  C         19.9150  -21.8910  -11.1220 C.2     1  UNL1        0.0320
      2  C         18.7530  -21.6000  -11.8470 C.2     1  UNL1        0.0180
      3  C         17.4980  -21.7990  -11.2620 C.2     1  UNL1        0.0190
      4  C         17.4010  -22.2700   -9.9470 C.2     1  UNL1        0.0450
      5  C         18.5600  -22.5350   -9.2080 C.2     1  UNL1       -0.0380
      6  C         19.8170  -22.3500   -9.8010 C.2     1  UNL1        0.0250
      7  C         18.4250  -23.0540   -7.8050 C.3     1  UNL1        0.0770
      8  C         17.1530  -22.4620   -7.1940 C.3     1  UNL1        0.1690
      9  O         16.0210  -22.7950   -8.0300 O.3     1  UNL1       -0.3070
     10  C         16.0580  -22.5130   -9.3560 C.2     1  UNL1        0.2940
     11  O         15.0490  -22.4860  -10.0480 O.2     1  UNL1       -0.2590
     12  C         21.2740  -21.6950  -11.7030 C.2     1  UNL1        0.2560
     13  N         22.3070  -22.2640  -10.9800 N.am    1  UNL1       -0.3230
     14  H         22.0720  -22.6660  -10.0820 H       1  UNL1        0.1690
     15  O         21.3690  -21.0320  -12.7290 O.2     1  UNL1       -0.2670
     16  C         23.6800  -22.2640  -11.3080 C.2     1  UNL1        0.0360
     17  C         24.6350  -21.4660  -10.6730 C.2     1  UNL1        0.0290
     18  C         25.9830  -21.5250  -11.0490 C.2     1  UNL1        0.0040
     19  C         26.3890  -22.3780  -12.0710 C.2     1  UNL1        0.0250
     20  C         25.4340  -23.1630  -12.7200 C.2     1  UNL1        0.0760
     21  C         24.0880  -23.1170  -12.3400 C.2     1  UNL1        0.0540
     22  S         25.9440  -24.2690  -14.0000 S.O2    1  UNL1        0.2390
     23  O         26.6350  -23.5230  -15.0240 O.2     1  UNL1       -0.2060
     24  O         24.8640  -25.1800  -14.2980 O.2     1  UNL1       -0.2060
     25  N         27.1210  -25.1800  -13.2240 N.3     1  UNL1       -0.2250
     26  H         28.0390  -24.9660  -13.6140 H       1  UNL1        0.1360
     27  H         26.8770  -26.1700  -13.2660 H       1  UNL1        0.1360
     28  C         16.8210  -22.9090   -5.7780 C.2     1  UNL1       -0.0290
     29  C         15.5980  -23.5690   -5.5520 C.2     1  UNL1        0.0100
     30  C         15.2290  -23.9880   -4.2730 C.2     1  UNL1        0.0010
     31  C         16.0730  -23.7510   -3.1920 C.2     1  UNL1        0.0000
     32  C         17.2850  -23.0970   -3.3940 C.2     1  UNL1        0.0010
     33  C         17.6570  -22.6780   -4.6750 C.2     1  UNL1        0.0100
@<TRIPOS>BOND
     1    23    22    2
     2    24    22    2
     3    22    25    1
     4    22    20    1
     5    26    25    1
     6    27    25    1
     7    15    12    2
     8    20    21    1
     9    20    19    2
    10    21    16    2
    11    19    18    1
    12     2     3    1
    13     2     1    2
    14    12     1    1
    15    12    13   am
    16    16    13    1
    17    16    17    1
    18     3     4    2
    19     1     6    1
    20    18    17    2
    21    13    14    1
    22    11    10    2
    23     4    10    1
    24     4     5    1
    25     6     5    2
    26    10     9    1
    27     5     7    1
    28     9     8    1
    29     7     8    1
    30     8    28    1
    31    28    29    2
    32    28    33    1
    33    29    30    1
    34    33    32    2
    35    30    31    2
    36    32    31    1
