@<TRIPOS>MOLECULE
18370_out_ligand_01.pdbqt
 30 33 0 0 0
SMALL
GASTEIGER

@<TRIPOS>ATOM
      1  C         18.4710  -22.9360   -9.4320 C.2     1  UNL1        0.2560
      2  O         17.9110  -23.2320  -10.4800 O.2     1  UNL1       -0.2670
      3  N         19.7840  -22.5260   -9.2800 N.am    1  UNL1       -0.3230
      4  H         20.1390  -22.4510   -8.3380 H       1  UNL1        0.1690
      5  C         20.7260  -22.2840  -10.3050 C.2     1  UNL1        0.0370
      6  C         20.2670  -21.5680  -11.4350 C.2     1  UNL1        0.0320
      7  C         21.1190  -21.2810  -12.5080 C.2     1  UNL1        0.0420
      8  C         22.4180  -21.7250  -12.4250 C.2     1  UNL1        0.1060
      9  C         22.8710  -22.4250  -11.3350 C.2     1  UNL1        0.1080
     10  O         23.3820  -21.5440  -13.3660 O.2     1  UNL1       -0.3110
     11  C         22.0530  -22.7210  -10.2610 C.2     1  UNL1        0.0690
     12  O         24.1810  -22.7730  -11.4530 O.2     1  UNL1       -0.3110
     13  C         24.5170  -22.2080  -12.7490 C.3     1  UNL1        0.1760
     14  C         25.6410  -21.1700  -12.5590 C.3     1  UNL1        0.0690
     15  C         24.9730  -23.3480  -13.6690 C.3     1  UNL1        0.0690
     16  C         27.0520  -21.7530  -12.6910 C.3     1  UNL1        0.0050
     17  C         27.1210  -23.2160  -12.2800 C.3     1  UNL1        0.0000
     18  C         26.1920  -24.0930  -13.1220 C.3     1  UNL1        0.0050
     19  C         17.6970  -23.0640   -8.1630 C.2     1  UNL1        0.0320
     20  C         16.3310  -22.7500   -8.0900 C.2     1  UNL1        0.0180
     21  C         15.6420  -22.8910   -6.8820 C.2     1  UNL1        0.0260
     22  C         16.3210  -23.3530   -5.7500 C.2     1  UNL1        0.0740
     23  C         17.6740  -23.6990   -5.8190 C.2     1  UNL1        0.0260
     24  C         18.3590  -23.5530   -7.0260 C.2     1  UNL1        0.0180
     25  S         15.4530  -23.5570   -4.2140 S.O2    1  UNL1        0.2390
     26  O         15.2540  -22.2520   -3.6270 O.2     1  UNL1       -0.2060
     27  O         14.3760  -24.4920   -4.4240 O.2     1  UNL1       -0.2060
     28  N         16.6210  -24.3040   -3.2620 N.3     1  UNL1       -0.2250
     29  H         17.4950  -24.4900   -3.7510 H       1  UNL1        0.1360
     30  H         16.7620  -23.7530   -2.4140 H       1  UNL1        0.1360
@<TRIPOS>BOND
     1    15    18    1
     2    15    13    1
     3    10    13    1
     4    10     8    1
     5    18    17    1
     6    13    14    1
     7    13    12    1
     8    16    14    1
     9    16    17    1
    10     7     8    2
    11     7     6    1
    12     8     9    1
    13    12     9    1
    14     6     5    2
    15     9    11    2
    16     2     1    2
    17     5    11    1
    18     5     3    1
    19     1     3   am
    20     1    19    1
    21     3     4    1
    22    19    20    2
    23    19    24    1
    24    20    21    1
    25    24    23    2
    26    21    22    2
    27    23    22    1
    28    22    25    1
    29    27    25    2
    30    25    26    2
    31    25    28    1
    32    29    28    1
    33    28    30    1
