@<TRIPOS>MOLECULE
18404_out_ligand_01.pdbqt
 35 38 0 0 0
SMALL
GASTEIGER

@<TRIPOS>ATOM
      1  C         19.3290  -23.1240   -9.2980 C.2     1  UNL1        0.0320
      2  C         20.3560  -23.8850   -8.7220 C.2     1  UNL1        0.0190
      3  C         21.6160  -23.9320   -9.3210 C.2     1  UNL1        0.0310
      4  C         21.8520  -23.2240  -10.4980 C.2     1  UNL1        0.0420
      5  C         20.8300  -22.4790  -11.0900 C.2     1  UNL1        0.0310
      6  C         19.5660  -22.4310  -10.4930 C.2     1  UNL1        0.0190
      7  N         23.1210  -23.3170  -11.1270 N.pl3   1  UNL1       -0.2810
      8  H         23.5250  -24.2460  -11.2410 H       1  UNL1        0.1790
      9  S         24.3140  -22.2090  -10.6640 S.O2    1  UNL1        0.2630
     10  O         25.4470  -23.0000  -10.2330 O.2     1  UNL1       -0.2000
     11  O         23.7320  -21.2070   -9.7980 O.2     1  UNL1       -0.2000
     12  C         24.7540  -21.4490  -12.2090 C.2     1  UNL1        0.0820
     13  C         25.7550  -20.4450  -12.2200 C.2     1  UNL1        0.0280
     14  C         26.1170  -19.8160  -13.4160 C.2     1  UNL1        0.0330
     15  C         25.4540  -20.2190  -14.5510 C.ar    1  UNL1        0.0630
     16  N         25.5970  -19.7850  -15.8630 N.ar    1  UNL1       -0.3070
     17  C         24.4630  -21.2020  -14.5300 C.ar    1  UNL1        0.0640
     18  C         24.6950  -20.4900  -16.6740 C.ar    1  UNL1        0.3250
     19  H         26.2250  -19.0800  -16.2120 H       1  UNL1        0.1700
     20  O         24.5480  -20.3640  -17.8760 O.2     1  UNL1       -0.2470
     21  N         23.9990  -21.3680  -15.8300 N.ar    1  UNL1       -0.3060
     22  H         23.2830  -22.0000  -16.1500 H       1  UNL1        0.1700
     23  C         24.0790  -21.8360  -13.3750 C.2     1  UNL1        0.0570
     24  C         17.9950  -23.1140   -8.6320 C.2     1  UNL1        0.2560
     25  O         16.9990  -23.2420   -9.3330 O.2     1  UNL1       -0.2670
     26  N         18.0270  -22.9970   -7.2540 N.am    1  UNL1       -0.3230
     27  H         18.9370  -23.0350   -6.8110 H       1  UNL1        0.1690
     28  C         16.9210  -22.9230   -6.3800 C.2     1  UNL1        0.0400
     29  C         15.7800  -22.1560   -6.6250 C.2     1  UNL1        0.0720
     30  C         14.7380  -22.1410   -5.6980 C.2     1  UNL1        0.1210
     31  F         13.6480  -21.4000   -5.9450 F       1  UNL1       -0.2060
     32  C         14.8040  -22.8740   -4.5240 C.2     1  UNL1        0.0840
     33  C         15.9390  -23.6310   -4.2830 C.2     1  UNL1        0.1210
     34  F         16.0270  -24.3470   -3.1540 F       1  UNL1       -0.2060
     35  C         16.9930  -23.6620   -5.1940 C.2     1  UNL1        0.0720
@<TRIPOS>BOND
     1    20    18    2
     2    18    16   ar
     3    18    21   ar
     4    19    16    1
     5    22    21    1
     6    16    15   ar
     7    21    17   ar
     8    15    17   ar
     9    15    14    1
    10    17    23    1
    11    14    13    2
    12    23    12    2
    13    13    12    1
    14    12     9    1
    15     8     7    1
    16     7     9    1
    17     7     4    1
    18     5     4    2
    19     5     6    1
    20     9    10    2
    21     9    11    2
    22     4     3    1
    23     6     1    2
    24    25    24    2
    25     3     2    2
    26     1     2    1
    27     1    24    1
    28    24    26   am
    29    26    27    1
    30    26    28    1
    31    29    28    2
    32    29    30    1
    33    28    35    1
    34    31    30    1
    35    30    32    2
    36    35    33    2
    37    32    33    1
    38    33    34    1
