@<TRIPOS>MOLECULE
18402_out_ligand_01.pdbqt
 29 31 0 0 0
SMALL
GASTEIGER

@<TRIPOS>ATOM
      1  C         20.4290  -22.5370  -10.1260 C.2     1  UNL1        0.0390
      2  C         19.0470  -22.3540   -9.9900 C.2     1  UNL1        0.0420
      3  C         18.3440  -23.0990   -9.0410 C.2     1  UNL1        0.0800
      4  C         19.0070  -24.0340   -8.2410 C.2     1  UNL1        0.0260
      5  C         20.3830  -24.2200   -8.3860 C.2     1  UNL1        0.0090
      6  C         21.1100  -23.4940   -9.3450 C.2     1  UNL1       -0.0460
      7  C         22.5810  -23.7740   -9.5030 C.3     1  UNL1        0.0490
      8  S         16.5820  -22.9230   -8.9080 S.O2    1  UNL1        0.2630
      9  O         16.1410  -22.0880  -10.0070 O.2     1  UNL1       -0.2000
     10  O         16.0250  -24.2420   -8.7090 O.2     1  UNL1       -0.2000
     11  N         16.3890  -21.9770   -7.5410 N.pl3   1  UNL1       -0.2800
     12  H         16.1100  -21.0190   -7.7180 H       1  UNL1        0.1790
     13  C         16.2980  -22.5040   -6.2250 C.2     1  UNL1        0.0480
     14  C         15.1240  -23.1300   -5.7910 C.2     1  UNL1        0.0300
     15  C         15.0080  -23.5840   -4.4770 C.2     1  UNL1        0.0020
     16  C         16.0520  -23.3830   -3.5820 C.2     1  UNL1        0.0010
     17  C         17.2090  -22.7280   -3.9990 C.2     1  UNL1        0.0090
     18  C         17.3460  -22.2750   -5.3220 C.2     1  UNL1       -0.0350
     19  C         18.5940  -21.5610   -5.7340 C.3     1  UNL1        0.0500
     20  C         21.1140  -21.7090  -11.1540 C.2     1  UNL1        0.2580
     21  N         22.1990  -22.3240  -11.7300 N.am    1  UNL1       -0.3010
     22  H         22.5180  -23.2230  -11.4030 H       1  UNL1        0.1710
     23  O         20.6920  -20.5780  -11.3570 O.2     1  UNL1       -0.2670
     24  C         22.9250  -21.7420  -12.7310 C.2     1  UNL1        0.1730
     25  N         22.5260  -21.2360  -13.8670 N.2     1  UNL1       -0.2360
     26  C         23.6180  -20.7760  -14.5720 C.2     1  UNL1        0.1330
     27  C         24.8420  -20.9450  -13.9590 C.2     1  UNL1       -0.0000
     28  C         26.1980  -20.5740  -14.4320 C.3     1  UNL1        0.0580
     29  S         24.6070  -21.7060  -12.4360 S.3     1  UNL1       -0.0560
@<TRIPOS>BOND
     1    26    27    2
     2    26    25    1
     3    28    27    1
     4    27    29    1
     5    25    24    2
     6    24    29    1
     7    24    21    1
     8    21    22    1
     9    21    20   am
    10    23    20    2
    11    20     1    1
    12     1     2    2
    13     1     6    1
    14     9     8    2
    15     2     3    1
    16     7     6    1
    17     6     5    2
    18     3     8    1
    19     3     4    2
    20     8    10    2
    21     8    11    1
    22     5     4    1
    23    12    11    1
    24    11    13    1
    25    13    14    2
    26    13    18    1
    27    14    15    1
    28    19    18    1
    29    18    17    2
    30    15    16    2
    31    17    16    1
