@<TRIPOS>MOLECULE
18412_out_ligand_01.pdbqt
 34 37 0 0 0
SMALL
GASTEIGER

@<TRIPOS>ATOM
      1  C         17.9730  -23.5460   -8.5350 C.2     1  UNL1        0.0790
      2  C         19.3110  -23.8090   -8.2230 C.2     1  UNL1        0.0260
      3  C         20.3240  -23.3280   -9.0550 C.2     1  UNL1        0.0180
      4  C         19.9970  -22.5860  -10.2000 C.2     1  UNL1        0.0320
      5  C         18.6510  -22.3650  -10.5270 C.2     1  UNL1        0.0180
      6  C         17.6360  -22.8460   -9.6970 C.2     1  UNL1        0.0260
      7  C         21.0460  -22.0480  -11.1150 C.2     1  UNL1        0.2560
      8  O         20.6870  -21.3470  -12.0540 O.2     1  UNL1       -0.2670
      9  N         22.3450  -22.3780  -10.7720 N.am    1  UNL1       -0.3230
     10  H         22.4790  -22.8710   -9.8980 H       1  UNL1        0.1690
     11  C         23.5310  -22.0450  -11.4640 C.2     1  UNL1        0.0370
     12  C         24.5820  -21.5220  -10.7030 C.2     1  UNL1        0.0290
     13  C         25.7820  -21.1650  -11.3120 C.2     1  UNL1        0.0050
     14  C         25.9450  -21.3380  -12.6860 C.2     1  UNL1        0.0320
     15  C         24.9100  -21.8790  -13.4710 C.2     1  UNL1        0.0600
     16  C         23.7030  -22.2150  -12.8440 C.2     1  UNL1        0.0610
     17  N         25.1320  -22.0420  -14.8790 N.pl3   1  UNL1       -0.2390
     18  N         25.1180  -20.9240  -15.6670 N.2     1  UNL1       -0.1800
     19  C         25.2820  -21.3610  -16.9100 C.2     1  UNL1        0.1410
     20  C         25.4450  -22.7440  -16.9670 C.2     1  UNL1        0.0480
     21  C         25.3820  -23.1750  -15.6550 C.2     1  UNL1        0.0340
     22  C         25.5840  -24.5640  -15.1710 C.3     1  UNL1        0.0700
     23  S         16.6810  -24.1710   -7.4800 S.O2    1  UNL1        0.2630
     24  O         15.5620  -24.5240   -8.3270 O.2     1  UNL1       -0.2000
     25  O         17.2720  -25.1390   -6.5800 O.2     1  UNL1       -0.2000
     26  N         16.1970  -22.8090   -6.6130 N.pl3   1  UNL1       -0.2800
     27  H         15.7000  -22.1350   -7.1920 H       1  UNL1        0.1790
     28  C         16.9810  -22.3280   -5.5260 C.2     1  UNL1        0.0480
     29  C         18.0970  -21.5230   -5.7790 C.2     1  UNL1        0.0300
     30  C         18.8650  -21.0260   -4.7270 C.2     1  UNL1        0.0020
     31  C         18.5260  -21.3390   -3.4140 C.2     1  UNL1        0.0010
     32  C         17.4230  -22.1520   -3.1530 C.2     1  UNL1        0.0090
     33  C         16.6360  -22.6560   -4.2030 C.2     1  UNL1       -0.0350
     34  C         15.4680  -23.5440   -3.8770 C.3     1  UNL1        0.0500
@<TRIPOS>BOND
     1    20    19    1
     2    20    21    2
     3    19    18    2
     4    18    17    1
     5    21    22    1
     6    21    17    1
     7    17    15    1
     8    15    16    1
     9    15    14    2
    10    16    11    2
    11    14    13    1
    12     8     7    2
    13    11     9    1
    14    11    12    1
    15    13    12    2
    16     7     9   am
    17     7     4    1
    18     9    10    1
    19     5     4    2
    20     5     6    1
    21     4     3    1
    22     6     1    2
    23     3     2    2
    24     1     2    1
    25     1    23    1
    26    24    23    2
    27    23    26    1
    28    23    25    2
    29    27    26    1
    30    26    28    1
    31    29    28    2
    32    29    30    1
    33    28    33    1
    34    30    31    2
    35    33    34    1
    36    33    32    2
    37    31    32    1
