@<TRIPOS>MOLECULE
18415_out_ligand_01.pdbqt
 33 36 0 0 0
SMALL
GASTEIGER

@<TRIPOS>ATOM
      1  C         21.6180  -22.2270  -10.0690 C.2     1  UNL1        0.0350
      2  C         22.2410  -22.1260   -8.8230 C.2     1  UNL1        0.0300
      3  C         21.4790  -22.0430   -7.6510 C.2     1  UNL1        0.0170
      4  C         20.0820  -22.0370   -7.7070 C.2     1  UNL1        0.0120
      5  C         19.4570  -22.1570   -8.9510 C.2     1  UNL1        0.0170
      6  C         20.2180  -22.2460  -10.1220 C.2     1  UNL1        0.0300
      7  N         22.3100  -22.3160  -11.2940 N.am    1  UNL1       -0.3230
      8  C         23.6300  -22.6840  -11.4870 C.2     1  UNL1        0.2560
      9  O         24.4270  -23.0420  -10.6300 O.2     1  UNL1       -0.2670
     10  H         21.7510  -22.1490  -12.1210 H       1  UNL1        0.1690
     11  C         24.0870  -22.6640  -12.9070 C.2     1  UNL1        0.0320
     12  C         24.8990  -23.6770  -13.4380 C.2     1  UNL1        0.0180
     13  C         25.3020  -23.6210  -14.7750 C.2     1  UNL1        0.0260
     14  C         24.8890  -22.5530  -15.5790 C.2     1  UNL1        0.0790
     15  C         24.0530  -21.5550  -15.0680 C.2     1  UNL1        0.0260
     16  C         23.6540  -21.6140  -13.7310 C.2     1  UNL1        0.0180
     17  S         25.3810  -22.5070  -17.2850 S.O2    1  UNL1        0.2580
     18  O         24.8910  -23.6940  -17.9490 O.2     1  UNL1       -0.2010
     19  O         26.7750  -22.1270  -17.3250 O.2     1  UNL1       -0.2010
     20  N         24.5170  -21.1850  -17.8580 N.3     1  UNL1       -0.3200
     21  C         25.2400  -19.9530  -18.1410 C.3     1  UNL1        0.1590
     22  H         23.5920  -21.1150  -17.4350 H       1  UNL1        0.1710
     23  C         19.2720  -21.9540   -6.4960 C.ar    1  UNL1        0.1630
     24  N         19.3900  -21.0180   -5.5770 N.ar    1  UNL1       -0.1290
     25  N         18.4890  -21.2720   -4.5840 N.ar    1  UNL1       -0.1340
     26  C         17.8410  -22.3790   -4.8810 C.ar    1  UNL1        0.1300
     27  N         18.3060  -22.8580   -6.0830 N.ar    1  UNL1       -0.3160
     28  C         16.7790  -22.9630   -4.0180 C.3     1  UNL1        0.0810
     29  C         18.0010  -24.0950   -6.7660 C.3     1  UNL1        0.1320
     30  C         16.6520  -24.7750   -6.5380 C.3     1  UNL1        0.0200
     31  C         15.4430  -23.8600   -6.7280 C.3     1  UNL1        0.0020
     32  C         14.6990  -23.5720   -5.4240 C.3     1  UNL1        0.0000
     33  C         15.3770  -22.5740   -4.4840 C.3     1  UNL1        0.0080
@<TRIPOS>BOND
     1    21    20    1
     2    18    17    2
     3    20    22    1
     4    20    17    1
     5    19    17    2
     6    17    14    1
     7    14    15    2
     8    14    13    1
     9    15    16    1
    10    13    12    2
    11    16    11    2
    12    12    11    1
    13    11     8    1
    14    10     7    1
    15     8     7   am
    16     8     9    2
    17     7     1    1
    18     6     1    2
    19     6     5    1
    20     1     2    1
    21     5     4    2
    22     2     3    2
    23     4     3    1
    24     4    23    1
    25    29    30    1
    26    29    27    1
    27    31    30    1
    28    31    32    1
    29    23    27   ar
    30    23    24   ar
    31    27    26   ar
    32    24    25   ar
    33    32    33    1
    34    26    25   ar
    35    26    28    1
    36    33    28    1
