@<TRIPOS>MOLECULE
18423_out_ligand_01.pdbqt
 30 33 0 0 0
SMALL
GASTEIGER

@<TRIPOS>ATOM
      1  N         21.8950  -22.7860  -10.4770 N.am    1  UNL1       -0.3390
      2  C         21.8530  -23.4850   -9.2640 C.2     1  UNL1        0.2540
      3  O         22.7050  -24.3020   -8.9140 O.2     1  UNL1       -0.2670
      4  C         22.8270  -23.2560  -11.4990 C.3     1  UNL1        0.1650
      5  C         23.8610  -22.2030  -11.8430 C.2     1  UNL1       -0.0400
      6  C         23.9710  -21.7270  -13.1620 C.2     1  UNL1        0.0100
      7  C         24.9000  -20.7350  -13.4860 C.2     1  UNL1        0.0170
      8  C         25.7250  -20.2000  -12.4870 C.2     1  UNL1        0.0310
      9  C         25.6110  -20.6560  -11.1680 C.2     1  UNL1        0.0170
     10  C         24.6920  -21.6600  -10.8500 C.2     1  UNL1        0.0100
     11  C         26.7020  -19.1210  -12.7840 C.2     1  UNL1        0.2490
     12  N         27.1180  -18.3520  -11.7310 N.am    1  UNL1       -0.3660
     13  H         27.6510  -17.5320  -11.9940 H       1  UNL1        0.1590
     14  H         26.5290  -18.2620  -10.9120 H       1  UNL1        0.1590
     15  O         27.0980  -18.8990  -13.9220 O.2     1  UNL1       -0.2680
     16  C         21.0110  -21.6980  -10.8240 C.3     1  UNL1        0.0880
     17  C         20.4370  -21.5590  -12.2140 C.3     1  UNL1        0.0270
     18  C         19.5380  -21.9130  -11.0730 C.3     1  UNL1        0.0270
     19  C         20.7180  -23.2340   -8.3460 C.2     1  UNL1        0.0320
     20  C         19.6280  -24.1090   -8.3010 C.2     1  UNL1        0.0170
     21  C         18.5540  -23.8370   -7.4510 C.2     1  UNL1        0.0080
     22  C         18.5660  -22.7050   -6.6200 C.2     1  UNL1       -0.0540
     23  C         19.6950  -21.8690   -6.6360 C.2     1  UNL1        0.0080
     24  C         20.7680  -22.1320   -7.4900 C.2     1  UNL1        0.0170
     25  C         17.3730  -22.4180   -5.7230 C.3     1  UNL1        0.0180
     26  C         16.0410  -22.6800   -6.4490 C.3     1  UNL1        0.0090
     27  C         14.8420  -22.4070   -5.5430 C.3     1  UNL1        0.0010
     28  C         14.9330  -23.1880   -4.2350 C.3     1  UNL1        0.0000
     29  C         16.2440  -22.9080   -3.5060 C.3     1  UNL1        0.0010
     30  C         17.4500  -23.1950   -4.3980 C.3     1  UNL1        0.0090
@<TRIPOS>BOND
     1    15    11    2
     2     7     6    1
     3     7     8    2
     4     6     5    2
     5    11     8    1
     6    11    12   am
     7     8     9    1
     8    17    18    1
     9    17    16    1
    10    13    12    1
    11     5     4    1
    12     5    10    1
    13    12    14    1
    14     4     1    1
    15     9    10    2
    16    18    16    1
    17    16     1    1
    18     1     2   am
    19     2     3    2
    20     2    19    1
    21    19    20    2
    22    19    24    1
    23    20    21    1
    24    24    23    2
    25    21    22    2
    26    23    22    1
    27    22    25    1
    28    26    25    1
    29    26    27    1
    30    25    30    1
    31    27    28    1
    32    30    29    1
    33    28    29    1
