@<TRIPOS>MOLECULE
18426_out_ligand_01.pdbqt
 31 33 0 0 0
SMALL
GASTEIGER

@<TRIPOS>ATOM
      1  N         20.4070  -23.0820   -7.9020 N.am    1  UNL1       -0.3260
      2  C         21.0710  -24.0870   -8.5820 C.2     1  UNL1        0.2350
      3  O         20.7190  -25.2590   -8.6840 O.2     1  UNL1       -0.2720
      4  H         20.8610  -22.1740   -8.0030 H       1  UNL1        0.1690
      5  C         22.3790  -23.5910   -9.2210 C.3     1  UNL1        0.1950
      6  N         22.2790  -22.1870   -9.6790 N.pl3   1  UNL1       -0.2830
      7  H         22.7930  -21.5660   -9.0490 H       1  UNL1        0.1280
      8  C         22.6040  -21.8730  -11.0200 C.2     1  UNL1        0.0190
      9  C         23.9270  -21.9280  -11.4910 C.2     1  UNL1        0.0240
     10  C         24.2330  -21.6890  -12.8340 C.2     1  UNL1        0.0020
     11  C         23.2190  -21.4150  -13.7430 C.2     1  UNL1        0.0010
     12  C         21.8950  -21.3960  -13.3110 C.2     1  UNL1        0.0140
     13  C         21.5660  -21.6380  -11.9620 C.2     1  UNL1       -0.0050
     14  C         20.1430  -21.6270  -11.5780 C.2     1  UNL1       -0.0240
     15  C         19.5050  -22.8000  -11.1460 C.2     1  UNL1        0.0120
     16  C         18.1590  -22.7860  -10.7750 C.2     1  UNL1        0.0010
     17  C         17.4330  -21.5980  -10.8340 C.2     1  UNL1        0.0000
     18  C         18.0490  -20.4250  -11.2640 C.2     1  UNL1        0.0010
     19  C         19.3960  -20.4390  -11.6350 C.2     1  UNL1        0.0120
     20  C         19.2050  -23.1500   -7.1840 C.2     1  UNL1        0.0340
     21  C         18.3000  -24.2120   -7.2840 C.2     1  UNL1        0.0310
     22  C         17.1210  -24.2110   -6.5310 C.2     1  UNL1        0.0270
     23  C         16.8440  -23.1370   -5.6820 C.2     1  UNL1        0.0740
     24  C         17.7430  -22.0770   -5.5620 C.2     1  UNL1        0.0270
     25  C         18.9200  -22.0890   -6.3150 C.2     1  UNL1        0.0310
     26  S         15.3450  -23.1450   -4.7370 S.O2    1  UNL1        0.2390
     27  O         15.1690  -24.4600   -4.1630 O.2     1  UNL1       -0.2060
     28  O         14.3160  -22.4860   -5.5050 O.2     1  UNL1       -0.2060
     29  N         15.7560  -22.1440   -3.4460 N.3     1  UNL1       -0.2250
     30  H         16.1740  -21.2870   -3.8140 H       1  UNL1        0.1360
     31  H         14.9750  -21.9500   -2.8200 H       1  UNL1        0.1360
@<TRIPOS>BOND
     1    11    12    2
     2    11    10    1
     3    12    13    1
     4    10     9    2
     5    13    14    1
     6    13     8    2
     7    19    14    2
     8    19    18    1
     9    14    15    1
    10     9     8    1
    11    18    17    2
    12    15    16    2
    13     8     6    1
    14    17    16    1
    15     6     5    1
    16     6     7    1
    17     5     2    1
    18     3     2    2
    19     2     1   am
    20     4     1    1
    21     1    20    1
    22    21    20    2
    23    21    22    1
    24    20    25    1
    25    22    23    2
    26    25    24    2
    27    23    24    1
    28    23    26    1
    29    28    26    2
    30    26    27    2
    31    26    29    1
    32    30    29    1
    33    29    31    1
