@<TRIPOS>MOLECULE
18422_out_ligand_01.pdbqt
 36 39 0 0 0
SMALL
GASTEIGER

@<TRIPOS>ATOM
      1  C         21.1150  -22.1000   -7.5480 C.3     1  UNL1        0.0310
      2  C         21.9730  -23.0020   -8.4310 C.3     1  UNL1        0.1420
      3  S         20.9930  -24.4220   -9.0790 S.3     1  UNL1       -0.0950
      4  C         19.3380  -23.7440   -8.9610 C.3     1  UNL1        0.1080
      5  N         18.6450  -24.2020   -7.9050 N.2     1  UNL1       -0.2240
      6  C         17.3820  -23.7800   -7.7790 C.2     1  UNL1        0.1560
      7  N         16.7920  -22.9100   -8.6200 N.pl3   1  UNL1       -0.2310
      8  C         17.5110  -22.4280   -9.6360 C.2     1  UNL1        0.0720
      9  C         16.9190  -21.5060  -10.4900 C.2     1  UNL1        0.0320
     10  C         18.8330  -22.8120   -9.8800 C.2     1  UNL1        0.0280
     11  C         17.5980  -20.9580  -11.5790 C.2     1  UNL1        0.0020
     12  C         18.9060  -21.3370  -11.8300 C.2     1  UNL1        0.0010
     13  C         19.5230  -22.2580  -10.9900 C.2     1  UNL1        0.0170
     14  C         16.5790  -24.2990   -6.5890 C.3     1  UNL1        0.3520
     15  N         17.0290  -23.9120   -5.2340 N.3     1  UNL1        0.0990
     16  C         15.9550  -23.9310   -4.2260 C.3     1  UNL1        0.2990
     17  C         15.5600  -22.5370   -3.7160 C.3     1  UNL1        0.1980
     18  O         16.6640  -21.8070   -3.1540 O.3     1  UNL1       -0.3880
     19  C         17.9190  -22.1190   -3.7740 C.3     1  UNL1        0.1980
     20  C         17.7700  -22.6380   -5.2130 C.3     1  UNL1        0.2990
     21  C         22.6910  -22.2220   -9.5450 C.2     1  UNL1        0.2360
     22  O         23.1090  -21.0800   -9.3590 O.2     1  UNL1       -0.2720
     23  N         22.8670  -22.9720  -10.7030 N.am    1  UNL1       -0.3260
     24  H         22.3540  -23.8470  -10.7300 H       1  UNL1        0.1690
     25  C         23.4460  -22.5580  -11.9170 C.2     1  UNL1        0.0340
     26  C         24.7260  -22.9330  -12.3420 C.2     1  UNL1        0.0310
     27  C         25.2450  -22.4470  -13.5470 C.2     1  UNL1        0.0270
     28  C         24.4740  -21.5910  -14.3380 C.2     1  UNL1        0.0740
     29  C         23.1930  -21.2100  -13.9290 C.2     1  UNL1        0.0270
     30  C         22.6840  -21.6980  -12.7230 C.2     1  UNL1        0.0310
     31  S         25.1540  -20.9470  -15.8360 S.O2    1  UNL1        0.2390
     32  O         24.1260  -20.9270  -16.8510 O.2     1  UNL1       -0.2060
     33  O         26.4530  -21.5360  -16.0610 O.2     1  UNL1       -0.2060
     34  N         25.4460  -19.3430  -15.4300 N.3     1  UNL1       -0.2250
     35  H         25.8840  -18.8590  -16.2190 H       1  UNL1        0.1360
     36  H         25.9920  -19.2980  -14.5650 H       1  UNL1        0.1360
@<TRIPOS>BOND
     1    32    31    2
     2    35    34    1
     3    33    31    2
     4    31    34    1
     5    31    28    1
     6    34    36    1
     7    28    29    2
     8    28    27    1
     9    29    30    1
    10    27    26    2
    11    30    25    2
    12    26    25    1
    13    25    23    1
    14    12    11    2
    15    12    13    1
    16    11     9    1
    17    13    10    2
    18    24    23    1
    19    23    21   am
    20     9     8    2
    21    10     8    1
    22    10     4    1
    23     8     7    1
    24    21    22    2
    25    21     2    1
    26     3     4    1
    27     3     2    1
    28     4     5    1
    29     7     6    1
    30     2     1    1
    31     5     6    2
    32     6    14    1
    33    14    15    1
    34    15    20    1
    35    15    16    1
    36    20    19    1
    37    16    17    1
    38    19    18    1
    39    17    18    1
