@<TRIPOS>MOLECULE
18429_out_ligand_01.pdbqt
 32 35 0 0 0
SMALL
GASTEIGER

@<TRIPOS>ATOM
      1  N         23.3350  -22.6500  -11.1140 N.am    1  UNL1       -0.3470
      2  C         22.8550  -21.8470  -10.0970 C.2     1  UNL1        0.2730
      3  O         23.5770  -21.0430   -9.5130 O.2     1  UNL1       -0.2660
      4  H         22.6700  -23.1330  -11.6950 H       1  UNL1        0.1630
      5  C         24.7040  -22.5450  -11.5890 C.3     1  UNL1        0.1140
      6  C         25.5980  -23.6170  -10.9600 C.3     1  UNL1        0.0370
      7  C         24.7120  -22.6010  -13.1090 C.2     1  UNL1       -0.0360
      8  C         24.1300  -21.5530  -13.8420 C.2     1  UNL1        0.0110
      9  C         24.1040  -21.5840  -15.2380 C.2     1  UNL1        0.0250
     10  C         24.6510  -22.6790  -15.9110 C.2     1  UNL1        0.0740
     11  C         25.2350  -23.7310  -15.2030 C.2     1  UNL1        0.0250
     12  C         25.2560  -23.6940  -13.8060 C.2     1  UNL1        0.0110
     13  S         24.6320  -22.7070  -17.6830 S.O2    1  UNL1        0.2390
     14  O         25.9570  -23.0400  -18.1510 O.2     1  UNL1       -0.2060
     15  O         23.4470  -23.4100  -18.1180 O.2     1  UNL1       -0.2060
     16  N         24.3530  -21.0850  -18.0420 N.3     1  UNL1       -0.2250
     17  H         25.2080  -20.5450  -18.1760 H       1  UNL1        0.1360
     18  H         23.7530  -20.6850  -17.3180 H       1  UNL1        0.1360
     19  C         21.4210  -22.0200   -9.7940 C.ar    1  UNL1        0.1530
     20  N         21.0130  -22.4120   -8.5670 N.ar    1  UNL1       -0.1610
     21  N         19.6510  -22.5220   -8.6130 N.ar    1  UNL1       -0.2370
     22  C         19.2120  -22.1590   -9.8530 C.ar    1  UNL1        0.0450
     23  C         20.2980  -21.8460  -10.6180 C.ar    1  UNL1        0.0030
     24  C         17.9210  -22.0510  -10.5550 C.3     1  UNL1        0.0600
     25  C         19.9120  -21.4920  -11.9970 C.3     1  UNL1        0.0430
     26  C         18.3610  -21.3270  -11.8690 C.3     1  UNL1        0.0110
     27  C         18.9280  -22.9620   -7.4680 C.2     1  UNL1        0.0580
     28  C         18.8810  -22.1370   -6.3320 C.2     1  UNL1        0.0310
     29  C         18.1720  -22.5310   -5.1950 C.2     1  UNL1        0.0020
     30  C         17.5030  -23.7500   -5.1800 C.2     1  UNL1        0.0000
     31  C         17.5540  -24.5840   -6.2960 C.2     1  UNL1        0.0020
     32  C         18.2620  -24.1940   -7.4380 C.2     1  UNL1        0.0310
@<TRIPOS>BOND
     1    17    16    1
     2    14    13    2
     3    15    13    2
     4    16    13    1
     5    16    18    1
     6    13    10    1
     7    10     9    2
     8    10    11    1
     9     9     8    1
    10    11    12    2
    11     8     7    2
    12    12     7    1
    13     7     5    1
    14    25    26    1
    15    25    23    1
    16    26    24    1
    17     4     1    1
    18     5     1    1
    19     5     6    1
    20     1     2   am
    21    23    22   ar
    22    23    19   ar
    23    24    22    1
    24     2    19    1
    25     2     3    2
    26    22    21   ar
    27    19    20   ar
    28    21    20   ar
    29    21    27    1
    30    27    32    2
    31    27    28    1
    32    32    31    1
    33    28    29    2
    34    31    30    2
    35    29    30    1
