@<TRIPOS>MOLECULE
18444_out_ligand_01.pdbqt
 34 37 0 0 0
SMALL
GASTEIGER

@<TRIPOS>ATOM
      1  C         21.3410  -23.0120  -10.2820 C.2     1  UNL1        0.0350
      2  C         21.0650  -23.9370   -9.2750 C.2     1  UNL1        0.0300
      3  C         19.8010  -23.9740   -8.6690 C.2     1  UNL1        0.0170
      4  C         18.7900  -23.1010   -9.0760 C.2     1  UNL1        0.0120
      5  C         19.0730  -22.1610  -10.0730 C.2     1  UNL1        0.0170
      6  C         20.3350  -22.1200  -10.6730 C.2     1  UNL1        0.0300
      7  N         22.5850  -22.9080  -10.9430 N.am    1  UNL1       -0.3230
      8  C         23.6560  -22.1060  -10.5930 C.2     1  UNL1        0.2560
      9  O         23.7030  -21.3070   -9.6660 O.2     1  UNL1       -0.2670
     10  H         22.6640  -23.4420  -11.7980 H       1  UNL1        0.1690
     11  C         24.8510  -22.2230  -11.4790 C.2     1  UNL1        0.0330
     12  C         26.0220  -21.4850  -11.2470 C.2     1  UNL1        0.0170
     13  C         27.1210  -21.6220  -12.0990 C.2     1  UNL1        0.0030
     14  C         27.0580  -22.4920  -13.1870 C.2     1  UNL1        0.0250
     15  C         25.8870  -23.2210  -13.4220 C.2     1  UNL1        0.0800
     16  C         24.7760  -23.0770  -12.5870 C.2     1  UNL1        0.0420
     17  S         25.7930  -24.2880  -14.8410 S.O2    1  UNL1        0.2580
     18  O         27.0790  -24.2800  -15.4990 O.2     1  UNL1       -0.2010
     19  O         25.1540  -25.5160  -14.4240 O.2     1  UNL1       -0.2010
     20  N         24.6910  -23.4940  -15.8190 N.3     1  UNL1       -0.3160
     21  H         23.7180  -23.7450  -15.6570 H       1  UNL1        0.1720
     22  C         25.0190  -22.2000  -16.4100 C.3     1  UNL1        0.1280
     23  C         25.1620  -22.3630  -17.9130 C.3     1  UNL1        0.0270
     24  C         17.4670  -23.1260   -8.4660 C.ar    1  UNL1        0.1630
     25  N         16.3290  -22.9540   -9.1120 N.ar    1  UNL1       -0.1290
     26  N         15.2950  -23.0980   -8.2230 N.ar    1  UNL1       -0.1340
     27  C         15.8050  -23.3840   -7.0450 C.ar    1  UNL1        0.1300
     28  N         17.1760  -23.3990   -7.1490 N.ar    1  UNL1       -0.3160
     29  C         15.0310  -23.6900   -5.8120 C.3     1  UNL1        0.0810
     30  C         18.0940  -23.7490   -6.0910 C.3     1  UNL1        0.1320
     31  C         18.5170  -22.5750   -5.2110 C.3     1  UNL1        0.0200
     32  C         17.4000  -21.6440   -4.7340 C.3     1  UNL1        0.0020
     33  C         16.2580  -22.3350   -3.9850 C.3     1  UNL1        0.0000
     34  C         14.9840  -22.5370   -4.8130 C.3     1  UNL1        0.0080
@<TRIPOS>BOND
     1    23    22    1
     2    22    20    1
     3    20    21    1
     4    20    17    1
     5    18    17    2
     6    17    19    2
     7    17    15    1
     8    15    14    2
     9    15    16    1
    10    14    13    1
    11    16    11    2
    12    13    12    2
    13    10     7    1
    14    11    12    1
    15    11     8    1
    16     7     8   am
    17     7     1    1
    18     6     1    2
    19     6     5    1
    20     8     9    2
    21     1     2    1
    22     5     4    2
    23     2     3    2
    24    25    24   ar
    25    25    26   ar
    26     4     3    1
    27     4    24    1
    28    24    28   ar
    29    26    27   ar
    30    28    27   ar
    31    28    30    1
    32    27    29    1
    33    30    31    1
    34    29    34    1
    35    31    32    1
    36    34    33    1
    37    32    33    1
