@<TRIPOS>MOLECULE
18465_out_ligand_01.pdbqt
 36 39 0 0 0
SMALL
GASTEIGER

@<TRIPOS>ATOM
      1  C         22.8910  -22.6030   -9.6870 C.2     1  UNL1        0.0320
      2  C         22.6360  -21.7050   -8.6460 C.2     1  UNL1        0.0190
      3  C         21.5140  -21.8740   -7.8250 C.2     1  UNL1        0.0300
      4  C         20.6300  -22.9340   -8.0370 C.2     1  UNL1        0.0350
      5  C         20.8750  -23.8140   -9.0990 C.2     1  UNL1        0.0300
      6  C         21.9950  -23.6500   -9.9200 C.2     1  UNL1        0.0190
      7  N         19.4790  -23.1670   -7.2610 N.am    1  UNL1       -0.3230
      8  C         18.8310  -22.2750   -6.4210 C.2     1  UNL1        0.2590
      9  O         19.2000  -21.1400   -6.1390 O.2     1  UNL1       -0.2670
     10  H         19.0840  -24.1010   -7.3230 H       1  UNL1        0.1690
     11  C         17.5990  -22.7970   -5.7590 C.2     1  UNL1        0.0650
     12  C         17.3530  -22.3640   -4.4460 C.2     1  UNL1        0.0200
     13  C         16.2270  -22.8120   -3.7550 C.2     1  UNL1        0.0010
     14  C         15.3330  -23.6850   -4.3760 C.2     1  UNL1        0.0030
     15  C         15.5570  -24.1060   -5.6890 C.2     1  UNL1        0.0380
     16  C         16.6930  -23.6730   -6.3880 C.2     1  UNL1        0.0850
     17  O         16.9230  -24.0100   -7.6970 O.2     1  UNL1       -0.3430
     18  C         16.0480  -23.4300   -8.6860 C.3     1  UNL1        0.2580
     19  C         16.7550  -22.5470   -9.6560 C.ar    1  UNL1        0.1800
     20  N         16.1700  -21.4770  -10.2140 N.ar    1  UNL1       -0.1090
     21  O         17.1520  -20.9890  -11.0750 O.2     1  UNL1       -0.1970
     22  C         18.2300  -21.8170  -10.9450 C.ar    1  UNL1        0.1690
     23  C         19.4130  -21.4860  -11.7560 C.3     1  UNL1        0.1020
     24  N         18.0380  -22.7980  -10.0920 N.ar    1  UNL1       -0.2070
     25  C         24.0780  -22.4660  -10.5840 C.2     1  UNL1        0.2560
     26  N         24.0480  -23.2520  -11.7140 N.am    1  UNL1       -0.3210
     27  H         23.2020  -23.7720  -11.9250 H       1  UNL1        0.1690
     28  O         24.9480  -21.6620  -10.2760 O.2     1  UNL1       -0.2670
     29  C         25.0370  -23.3810  -12.7160 C.2     1  UNL1        0.0680
     30  C         26.1940  -24.1510  -12.5630 C.2     1  UNL1        0.0320
     31  C         27.1170  -24.2430  -13.6030 C.2     1  UNL1        0.0020
     32  C         26.8880  -23.5740  -14.8030 C.2     1  UNL1        0.0030
     33  C         25.7350  -22.8010  -14.9700 C.2     1  UNL1        0.0390
     34  C         24.8060  -22.6980  -13.9310 C.2     1  UNL1        0.0950
     35  O         23.6400  -21.9670  -13.9870 O.2     1  UNL1       -0.3540
     36  C         23.7450  -20.6190  -14.4170 C.3     1  UNL1        0.2100
@<TRIPOS>BOND
     1    33    32    2
     2    33    34    1
     3    32    31    1
     4    36    35    1
     5    35    34    1
     6    34    29    2
     7    31    30    2
     8    29    30    1
     9    29    26    1
    10    27    26    1
    11    23    22    1
    12    26    25   am
    13    21    22   ar
    14    21    20   ar
    15    22    24   ar
    16    25    28    2
    17    25     1    1
    18    20    19   ar
    19    24    19   ar
    20     6     1    2
    21     6     5    1
    22     1     2    1
    23    19    18    1
    24     5     4    2
    25    18    17    1
    26     2     3    2
    27     4     3    1
    28     4     7    1
    29    17    16    1
    30    10     7    1
    31     7     8   am
    32     8     9    2
    33     8    11    1
    34    16    11    2
    35    16    15    1
    36    11    12    1
    37    15    14    2
    38    12    13    2
    39    14    13    1
