@<TRIPOS>MOLECULE
18478_out_ligand_01.pdbqt
 35 39 0 0 0
SMALL
GASTEIGER

@<TRIPOS>ATOM
      1  N         23.1710  -22.8510  -10.4150 N.3     1  UNL1       -0.2960
      2  C         23.0370  -23.5820   -9.1450 C.3     1  UNL1        0.1740
      3  C         21.6560  -23.4540   -8.5400 C.2     1  UNL1       -0.0400
      4  C         21.2980  -22.2750   -7.8650 C.2     1  UNL1        0.0100
      5  C         20.0250  -22.1340   -7.3040 C.2     1  UNL1        0.0170
      6  C         19.0980  -23.1780   -7.4060 C.2     1  UNL1        0.0320
      7  C         19.4450  -24.3480   -8.0900 C.2     1  UNL1        0.0170
      8  C         20.7190  -24.4890   -8.6490 C.2     1  UNL1        0.0100
      9  C         17.7300  -23.0770   -6.8270 C.2     1  UNL1        0.2520
     10  O         16.8220  -22.5880   -7.4930 O.2     1  UNL1       -0.2680
     11  N         17.5720  -23.5930   -5.5550 N.am    1  UNL1       -0.3520
     12  H         18.3300  -24.1210   -5.1420 H       1  UNL1        0.1630
     13  C         16.3130  -23.5920   -4.8780 C.3     1  UNL1        0.0840
     14  C         15.8680  -22.3730   -4.1180 C.3     1  UNL1        0.0270
     15  C         16.2530  -23.6190   -3.3740 C.3     1  UNL1        0.0270
     16  C         22.1410  -23.0920  -11.4450 C.3     1  UNL1        0.2000
     17  C         21.0470  -22.0850  -11.4320 C.2     1  UNL1        0.0710
     18  C         20.9750  -20.7330  -11.7070 C.2     1  UNL1        0.0360
     19  C         19.6230  -20.3540  -11.5260 C.2     1  UNL1        0.0270
     20  C         18.9490  -21.5000  -11.1760 C.2     1  UNL1        0.1420
     21  O         19.8010  -22.5560  -11.1330 O.2     1  UNL1       -0.3250
     22  S         24.7040  -22.3510  -10.8940 S.O2    1  UNL1        0.2610
     23  O         24.7960  -20.9170  -10.7150 O.2     1  UNL1       -0.2000
     24  O         25.6720  -23.2260  -10.2620 O.2     1  UNL1       -0.2000
     25  C         24.7800  -22.6940  -12.6370 C.2     1  UNL1        0.0820
     26  C         25.2950  -23.9180  -13.0770 C.2     1  UNL1        0.0280
     27  C         25.3800  -24.1790  -14.4460 C.2     1  UNL1        0.0410
     28  C         24.9940  -23.2030  -15.3670 C.2     1  UNL1        0.1020
     29  C         24.5070  -21.9700  -14.9220 C.2     1  UNL1        0.1030
     30  O         25.0360  -23.5580  -16.6870 O.2     1  UNL1       -0.3480
     31  C         24.4010  -21.7120  -13.5560 C.2     1  UNL1        0.0650
     32  O         24.0200  -21.0100  -15.7670 O.2     1  UNL1       -0.3480
     33  C         25.0230  -20.5070  -16.6500 C.3     1  UNL1        0.1780
     34  C         25.2290  -21.4150  -17.8520 C.3     1  UNL1        0.0530
     35  C         25.9060  -22.7160  -17.4450 C.3     1  UNL1        0.1780
@<TRIPOS>BOND
     1    34    35    1
     2    34    33    1
     3    35    30    1
     4    30    28    1
     5    33    32    1
     6    32    29    1
     7    28    29    2
     8    28    27    1
     9    29    31    1
    10    27    26    2
    11    31    25    2
    12    26    25    1
    13    25    22    1
    14    18    19    1
    15    18    17    2
    16    19    20    2
    17    16    17    1
    18    16     1    1
    19    17    21    1
    20    20    21    1
    21    22    23    2
    22    22     1    1
    23    22    24    2
    24     1     2    1
    25     2     3    1
    26     8     3    2
    27     8     7    1
    28     3     4    1
    29     7     6    2
    30     4     5    2
    31    10     9    2
    32     6     5    1
    33     6     9    1
    34     9    11   am
    35    11    12    1
    36    11    13    1
    37    13    14    1
    38    13    15    1
    39    14    15    1
