@<TRIPOS>MOLECULE
18472_out_ligand_01.pdbqt
 33 36 0 0 0
SMALL
GASTEIGER

@<TRIPOS>ATOM
      1  N         17.9180  -22.3140  -10.6200 N.am    1  UNL1       -0.3550
      2  C         18.7770  -21.4250  -11.2470 C.2     1  UNL1        0.2720
      3  O         18.3690  -20.3860  -11.7600 O.2     1  UNL1       -0.2660
      4  H         18.3410  -22.9750   -9.9840 H       1  UNL1        0.1620
      5  C         20.2020  -21.8190  -11.2230 C.ar    1  UNL1        0.1530
      6  N         21.0290  -21.5100  -12.2460 N.ar    1  UNL1       -0.1610
      7  N         22.2670  -21.9910  -11.9210 N.ar    1  UNL1       -0.2370
      8  C         22.2020  -22.6280  -10.7150 C.ar    1  UNL1        0.0450
      9  C         20.9220  -22.5270  -10.2470 C.ar    1  UNL1        0.0030
     10  C         23.1110  -23.3800   -9.8330 C.3     1  UNL1        0.0600
     11  C         20.7610  -23.1920   -8.9410 C.3     1  UNL1        0.0430
     12  C         22.0910  -24.0080   -8.8250 C.3     1  UNL1        0.0110
     13  C         23.3690  -21.7830  -12.7970 C.2     1  UNL1        0.0580
     14  C         23.2220  -21.1400  -14.0350 C.2     1  UNL1        0.0340
     15  C         24.3330  -20.9560  -14.8660 C.2     1  UNL1        0.0440
     16  C         25.5820  -21.4160  -14.4650 C.2     1  UNL1        0.1160
     17  F         26.6390  -21.2370  -15.2680 F       1  UNL1       -0.2060
     18  C         25.7470  -22.0600  -13.2470 C.2     1  UNL1        0.0440
     19  C         24.6420  -22.2460  -12.4130 C.2     1  UNL1        0.0340
     20  C         16.5320  -21.9660  -10.3690 C.3     1  UNL1        0.1270
     21  C         15.7500  -23.1160   -9.7260 C.3     1  UNL1        0.0580
     22  C         15.9570  -23.2220   -8.2310 C.2     1  UNL1       -0.0570
     23  C         16.7890  -24.2160   -7.6950 C.2     1  UNL1        0.0090
     24  C         16.9480  -24.3360   -6.3130 C.2     1  UNL1        0.0250
     25  C         16.2800  -23.4520   -5.4640 C.2     1  UNL1        0.0740
     26  C         15.4440  -22.4600   -5.9810 C.2     1  UNL1        0.0250
     27  C         15.2900  -22.3430   -7.3630 C.2     1  UNL1        0.0090
     28  S         16.4350  -23.6290   -3.7100 S.O2    1  UNL1        0.2390
     29  O         15.5250  -24.6590   -3.2630 O.2     1  UNL1       -0.2060
     30  O         17.8350  -23.6250   -3.3540 O.2     1  UNL1       -0.2060
     31  N         15.8100  -22.1760   -3.1540 N.3     1  UNL1       -0.2250
     32  H         14.8520  -22.0590   -3.4880 H       1  UNL1        0.1360
     33  H         16.4300  -21.4080   -3.4100 H       1  UNL1        0.1360
@<TRIPOS>BOND
     1    17    16    1
     2    15    16    2
     3    15    14    1
     4    16    18    1
     5    14    13    2
     6    18    19    2
     7    13    19    1
     8    13     7    1
     9     6     7   ar
    10     6     5   ar
    11     7     8   ar
    12     3     2    2
    13     2     5    1
    14     2     1   am
    15     5     9   ar
    16     8     9   ar
    17     8    10    1
    18     1    20    1
    19     1     4    1
    20    20    21    1
    21     9    11    1
    22    10    12    1
    23    21    22    1
    24    11    12    1
    25    22    23    2
    26    22    27    1
    27    23    24    1
    28    27    26    2
    29    24    25    2
    30    26    25    1
    31    25    28    1
    32    28    30    2
    33    28    29    2
    34    28    31    1
    35    32    31    1
    36    33    31    1
