@<TRIPOS>MOLECULE
1847_out_ligand_01.pdbqt
 37 42 0 0 0
SMALL
GASTEIGER

@<TRIPOS>ATOM
      1  C         21.1600  -22.3390   -8.5270 C.2     1  UNL1        0.2560
      2  O         22.1470  -21.7800   -8.0670 O.2     1  UNL1       -0.2670
      3  N         20.8990  -22.6170   -9.8560 N.am    1  UNL1       -0.3230
      4  H         19.9740  -22.9620  -10.0800 H       1  UNL1        0.1690
      5  C         20.0830  -22.7490   -7.5820 C.2     1  UNL1        0.0320
      6  C         19.6300  -21.8940   -6.5690 C.2     1  UNL1        0.0190
      7  C         18.6120  -22.3130   -5.7090 C.2     1  UNL1        0.0250
      8  C         18.0440  -23.5800   -5.8610 C.2     1  UNL1        0.0250
      9  C         18.4820  -24.4280   -6.8820 C.2     1  UNL1        0.0250
     10  C         19.4980  -24.0110   -7.7440 C.2     1  UNL1        0.0190
     11  N         16.9890  -23.9540   -4.9550 N.pl3   1  UNL1       -0.1760
     12  C         17.3240  -23.7650   -3.5230 C.3     1  UNL1        0.1360
     13  S         15.4500  -23.3460   -5.4260 S.O2    1  UNL1        0.2470
     14  O         14.4460  -24.3180   -5.0430 O.2     1  UNL1       -0.2050
     15  O         15.3440  -21.9590   -5.0160 O.2     1  UNL1       -0.2050
     16  C         15.5710  -23.3490   -7.2010 C.2     1  UNL1        0.0750
     17  C         15.8980  -22.1750   -7.8850 C.2     1  UNL1        0.0250
     18  C         15.9870  -22.1990   -9.2770 C.2     1  UNL1        0.0020
     19  C         15.7610  -23.3880   -9.9730 C.2     1  UNL1        0.0000
     20  C         15.4480  -24.5610   -9.2810 C.2     1  UNL1        0.0020
     21  C         15.3540  -24.5460   -7.8900 C.2     1  UNL1        0.0250
     22  C         21.7450  -22.3860  -10.9600 C.2     1  UNL1        0.0350
     23  C         21.4030  -21.5960  -12.0540 C.2     1  UNL1        0.0300
     24  C         22.3050  -21.4100  -13.1130 C.2     1  UNL1        0.0100
     25  C         23.5750  -22.0030  -13.1120 C.2     1  UNL1       -0.0490
     26  C         23.9070  -22.7930  -11.9970 C.2     1  UNL1        0.0100
     27  C         23.0080  -22.9820  -10.9390 C.2     1  UNL1        0.0300
     28  C         24.5840  -21.8170  -14.2580 C.3     1  UNL1       -0.0120
     29  C         25.9860  -22.3390  -13.8280 C.3     1  UNL1        0.0190
     30  C         27.0300  -22.1120  -14.9370 C.3     1  UNL1       -0.0130
     31  C         26.6000  -22.8660  -16.2040 C.3     1  UNL1        0.0090
     32  C         27.1190  -20.6090  -15.2470 C.3     1  UNL1        0.0090
     33  C         25.2350  -22.3500  -16.6790 C.3     1  UNL1       -0.0130
     34  C         24.1950  -22.5710  -15.5670 C.3     1  UNL1        0.0190
     35  C         25.3330  -20.8500  -16.9880 C.3     1  UNL1        0.0090
     36  C         25.7560  -20.0850  -15.7250 C.3     1  UNL1       -0.0130
     37  C         24.7090  -20.3070  -14.6180 C.3     1  UNL1        0.0190
@<TRIPOS>BOND
     1    35    33    1
     2    35    36    1
     3    33    31    1
     4    33    34    1
     5    31    30    1
     6    36    32    1
     7    36    37    1
     8    34    28    1
     9    32    30    1
    10    30    29    1
    11    37    28    1
    12    28    29    1
    13    28    25    1
    14    24    25    2
    15    24    23    1
    16    25    26    1
    17    23    22    2
    18    26    27    2
    19    22    27    1
    20    22     3    1
    21     4     3    1
    22    19    20    2
    23    19    18    1
    24     3     1   am
    25    20    21    1
    26    18    17    2
    27     1     2    2
    28     1     5    1
    29    21    16    2
    30    17    16    1
    31    10     5    2
    32    10     9    1
    33     5     6    1
    34    16    13    1
    35     9     8    2
    36     6     7    2
    37     8     7    1
    38     8    11    1
    39    13    14    2
    40    13    15    2
    41    13    11    1
    42    11    12    1
