@<TRIPOS>MOLECULE
18485_out_ligand_01.pdbqt
 30 33 0 0 0
SMALL
GASTEIGER

@<TRIPOS>ATOM
      1  C         17.6440  -22.7940   -9.5680 C.2     1  UNL1        0.0800
      2  C         17.3280  -21.8460  -10.5490 C.2     1  UNL1        0.0250
      3  C         18.3530  -21.1940  -11.2360 C.2     1  UNL1        0.0030
      4  C         19.6850  -21.5030  -10.9560 C.2     1  UNL1        0.0170
      5  C         19.9880  -22.4820  -10.0030 C.2     1  UNL1        0.0330
      6  C         18.9720  -23.1270   -9.2950 C.2     1  UNL1        0.0420
      7  S         16.3420  -23.6250   -8.6860 S.O2    1  UNL1        0.2630
      8  O         16.9540  -24.6990   -7.9320 O.2     1  UNL1       -0.2000
      9  O         15.2710  -23.8900   -9.6230 O.2     1  UNL1       -0.2000
     10  N         15.8360  -22.4730   -7.5600 N.pl3   1  UNL1       -0.2790
     11  H         14.8240  -22.5070   -7.4260 H       1  UNL1        0.1790
     12  C         16.6140  -22.2740   -6.3730 C.2     1  UNL1        0.0600
     13  C         16.2140  -22.8330   -5.1520 C.2     1  UNL1        0.0380
     14  C         16.9960  -22.6580   -4.0090 C.2     1  UNL1        0.0220
     15 BR         14.6070  -23.8310   -4.9990 Br      1  UNL1       -0.0490
     16  C         18.1800  -21.9230   -4.0810 C.2     1  UNL1        0.0080
     17  C         18.5940  -21.3610   -5.2940 C.2     1  UNL1       -0.0600
     18  C         19.8440  -20.5340   -5.3640 C.3     1  UNL1        0.0480
     19  C         17.7950  -21.5290   -6.4330 C.2     1  UNL1        0.0380
     20  C         21.3940  -22.7960   -9.6750 C.2     1  UNL1        0.2540
     21  O         21.6060  -23.3500   -8.5990 O.2     1  UNL1       -0.2670
     22  N         22.3940  -22.4360  -10.5820 N.am    1  UNL1       -0.3430
     23  C         23.7770  -22.7760  -10.2050 C.3     1  UNL1        0.1310
     24  C         22.1120  -22.3440  -12.0260 C.3     1  UNL1        0.1650
     25  C         24.7960  -21.7640  -10.7470 C.3     1  UNL1        0.0660
     26  C         24.4840  -21.4690  -12.1760 C.2     1  UNL1       -0.0080
     27  S         25.6050  -20.7640  -13.2370 S.3     1  UNL1       -0.1060
     28  C         23.2570  -21.7160  -12.7630 C.2     1  UNL1       -0.0270
     29  C         24.4720  -20.7820  -14.5210 C.2     1  UNL1        0.0510
     30  C         23.2600  -21.3150  -14.1360 C.2     1  UNL1        0.0170
@<TRIPOS>BOND
     1    29    30    2
     2    29    27    1
     3    30    28    1
     4    27    26    1
     5    28    26    2
     6    28    24    1
     7    26    25    1
     8    24    22    1
     9     3     4    2
    10     3     2    1
    11     4     5    1
    12    25    23    1
    13    22    23    1
    14    22    20   am
    15     2     1    2
    16     5    20    1
    17     5     6    2
    18    20    21    2
    19     9     7    2
    20     1     6    1
    21     1     7    1
    22     7     8    2
    23     7    10    1
    24    10    11    1
    25    10    12    1
    26    19    12    2
    27    19    17    1
    28    12    13    1
    29    18    17    1
    30    17    16    2
    31    13    15    1
    32    13    14    2
    33    16    14    1
