@<TRIPOS>MOLECULE
18481_out_ligand_01.pdbqt
 33 36 0 0 0
SMALL
GASTEIGER

@<TRIPOS>ATOM
      1  C         21.2410  -22.3550  -10.5950 C.ar    1  UNL1        0.0820
      2  S         21.1110  -23.5640   -9.3860 S.2     1  UNL1       -0.0630
      3  C         19.4290  -23.3560   -9.2520 C.ar    1  UNL1        0.1160
      4  N         18.6970  -24.0730   -8.3610 N.ar    1  UNL1       -0.2260
      5  C         17.4200  -23.8370   -8.3890 C.ar    1  UNL1        0.1170
      6  N         16.8270  -22.9390   -9.2560 N.ar    1  UNL1       -0.3100
      7  C         17.5350  -22.1370  -10.1190 C.ar    1  UNL1        0.2600
      8  O         16.9930  -21.2630  -10.7870 O.2     1  UNL1       -0.2670
      9  C         18.9610  -22.4060  -10.1350 C.ar    1  UNL1        0.0750
     10  C         20.0010  -21.8280  -10.9470 C.ar    1  UNL1       -0.0210
     11  C         19.7520  -20.8230  -12.0290 C.3     1  UNL1        0.0510
     12  H         15.8440  -22.7130   -9.1760 H       1  UNL1        0.1700
     13  C         22.5750  -22.0380  -11.0990 C.2     1  UNL1        0.2630
     14  N         22.6620  -22.1410  -12.4780 N.am    1  UNL1       -0.3230
     15  H         21.7950  -22.3310  -12.9640 H       1  UNL1        0.1690
     16  O         23.4910  -21.6990  -10.3580 O.2     1  UNL1       -0.2670
     17  C         23.7940  -21.9480  -13.2940 C.2     1  UNL1        0.0350
     18  C         23.7460  -20.8920  -14.2130 C.2     1  UNL1        0.0300
     19  C         24.8230  -20.6340  -15.0660 C.2     1  UNL1        0.0090
     20  C         25.9750  -21.4220  -15.0080 C.2     1  UNL1       -0.0620
     21  C         27.1200  -21.1710  -15.9430 C.3     1  UNL1        0.0480
     22  C         26.0170  -22.4870  -14.1040 C.2     1  UNL1        0.0090
     23  C         24.9380  -22.7450  -13.2500 C.2     1  UNL1        0.0300
     24  C         16.4800  -24.5660   -7.4510 C.3     1  UNL1        0.1580
     25  S         15.4410  -23.3840   -6.5260 S.3     1  UNL1       -0.1220
     26  C         16.6530  -22.7470   -5.3740 C.2     1  UNL1        0.0070
     27  C         17.6810  -21.9500   -5.9010 C.2     1  UNL1        0.0250
     28  C         18.6270  -21.3460   -5.0650 C.2     1  UNL1       -0.0610
     29  C         19.6810  -20.4440   -5.6360 C.3     1  UNL1        0.0480
     30  C         18.5350  -21.5460   -3.6860 C.2     1  UNL1        0.0070
     31  C         17.5370  -22.3670   -3.1570 C.2     1  UNL1        0.0090
     32  C         16.5940  -22.9890   -3.9900 C.2     1  UNL1       -0.0450
     33  C         15.5540  -23.8790   -3.3660 C.3     1  UNL1        0.0490
@<TRIPOS>BOND
     1    21    20    1
     2    19    20    2
     3    19    18    1
     4    20    22    1
     5    18    17    2
     6    22    23    2
     7    17    23    1
     8    17    14    1
     9    15    14    1
    10    14    13   am
    11    11    10    1
    12    13     1    1
    13    13    16    2
    14    10     1   ar
    15    10     9   ar
    16     8     7    2
    17     1     2   ar
    18     9     7   ar
    19     9     3   ar
    20     7     6   ar
    21     2     3   ar
    22     6    12    1
    23     6     5   ar
    24     3     4   ar
    25     5     4   ar
    26     5    24    1
    27    24    25    1
    28    25    26    1
    29    27    26    2
    30    27    28    1
    31    29    28    1
    32    26    32    1
    33    28    30    2
    34    32    33    1
    35    32    31    2
    36    30    31    1
