@<TRIPOS>MOLECULE
18524_out_ligand_01.pdbqt
 37 41 0 0 0
SMALL
GASTEIGER

@<TRIPOS>ATOM
      1  O         21.3480  -24.4020   -8.9300 O.2     1  UNL1       -0.2710
      2  C         21.4840  -23.2000   -8.7110 C.2     1  UNL1        0.2400
      3  N         22.4000  -22.3610   -9.3160 N.am    1  UNL1       -0.3260
      4  H         22.3670  -21.3970   -8.9950 H       1  UNL1        0.1690
      5  C         23.3560  -22.6700  -10.2990 C.2     1  UNL1        0.0340
      6  C         24.6760  -23.0310  -10.0170 C.2     1  UNL1        0.0310
      7  C         25.5680  -23.3240  -11.0550 C.2     1  UNL1        0.0270
      8  C         25.1370  -23.2480  -12.3810 C.2     1  UNL1        0.0800
      9  C         23.8180  -22.9040  -12.6770 C.2     1  UNL1        0.0270
     10  C         22.9340  -22.6110  -11.6350 C.2     1  UNL1        0.0310
     11  S         26.2670  -23.6590  -13.6890 S.O2    1  UNL1        0.2760
     12  O         27.1200  -22.4990  -13.8690 O.2     1  UNL1       -0.2000
     13  O         26.8550  -24.9550  -13.4240 O.2     1  UNL1       -0.2000
     14  N         25.3020  -23.7280  -15.0380 N.pl3   1  UNL1       -0.1090
     15  H         24.3170  -23.8420  -14.8290 H       1  UNL1        0.1980
     16  C         25.5470  -22.8090  -16.0490 C.cat   1  UNL1        0.7350
     17  N         26.3300  -23.1580  -17.0710 N.2     1  UNL1       -0.0740
     18  C         26.3960  -22.2690  -18.0800 C.2     1  UNL1        0.1380
     19  C         25.6810  -21.0940  -18.1020 C.2     1  UNL1        0.0400
     20  C         24.8670  -20.8740  -17.0160 C.2     1  UNL1        0.1380
     21  N         24.7650  -21.7280  -15.9800 N.2     1  UNL1       -0.0740
     22  C         20.5810  -22.5030   -7.6810 C.3     1  UNL1        0.2320
     23  N         19.1600  -22.4160   -8.1130 N.ar    1  UNL1       -0.3360
     24  C         18.1700  -22.9530   -7.2530 C.ar    1  UNL1        0.0490
     25  C         18.3800  -23.1790   -5.8800 C.2     1  UNL1        0.0310
     26  C         16.8890  -23.2460   -7.7550 C.ar    1  UNL1        0.0420
     27  C         17.3720  -23.7050   -5.0620 C.2     1  UNL1        0.0020
     28  C         16.1230  -24.0100   -5.5920 C.2     1  UNL1        0.0010
     29  C         15.8780  -23.7770   -6.9400 C.2     1  UNL1        0.0180
     30  C         16.5930  -22.9850   -9.1800 C.ar    1  UNL1        0.1960
     31  O         15.4980  -23.2770   -9.6540 O.2     1  UNL1       -0.2860
     32  C         17.6280  -22.3420  -10.0160 C.ar    1  UNL1        0.0420
     33  C         17.3170  -22.0110  -11.3440 C.2     1  UNL1        0.0180
     34  C         18.8920  -22.0680   -9.4600 C.ar    1  UNL1        0.0490
     35  C         18.2630  -21.3800  -12.1430 C.2     1  UNL1        0.0010
     36  C         19.5110  -21.0740  -11.6130 C.2     1  UNL1        0.0020
     37  C         19.8190  -21.4100  -10.2880 C.2     1  UNL1        0.0310
@<TRIPOS>BOND
     1    19    18    2
     2    19    20    1
     3    18    17    1
     4    17    16    2
     5    20    21    2
     6    16    21    1
     7    16    14    1
     8    14    15    1
     9    14    11    1
    10    12    11    2
    11    11    13    2
    12    11     8    1
    13     9     8    2
    14     9    10    1
    15     8     7    1
    16    35    36    2
    17    35    33    1
    18    10     5    2
    19    36    37    1
    20    33    32    2
    21     7     6    2
    22     5     6    1
    23     5     3    1
    24    37    34    2
    25    32    34   ar
    26    32    30   ar
    27    31    30    2
    28    34    23   ar
    29     3     4    1
    30     3     2   am
    31    30    26   ar
    32     1     2    2
    33     2    22    1
    34    23    22    1
    35    23    24   ar
    36    26    24   ar
    37    26    29    1
    38    24    25    1
    39    29    28    2
    40    25    27    2
    41    28    27    1
