@<TRIPOS>MOLECULE
18532_out_ligand_01.pdbqt
 36 39 0 0 0
SMALL
GASTEIGER

@<TRIPOS>ATOM
      1  C         22.8650  -22.0100  -11.2460 C.2     1  UNL1        0.0760
      2  C         22.3090  -21.7490  -12.5140 C.2     1  UNL1        0.1580
      3  N         20.9790  -21.8080  -12.5290 N.2     1  UNL1       -0.1780
      4  N         20.6290  -21.9980  -11.2270 N.pl3   1  UNL1       -0.2370
      5  C         21.7520  -22.2570  -10.4550 C.2     1  UNL1        0.0580
      6  C         24.2620  -22.0300  -10.8350 C.2     1  UNL1        0.2550
      7  N         24.8750  -23.2620  -10.9060 N.am    1  UNL1       -0.3560
      8  H         24.3750  -24.0580  -11.2750 H       1  UNL1        0.1620
      9  O         24.8620  -21.0240  -10.4730 O.2     1  UNL1       -0.2680
     10  C         26.2980  -23.4190  -10.6620 C.3     1  UNL1        0.1270
     11  C         27.0510  -24.0010  -11.8660 C.3     1  UNL1        0.0580
     12  C         26.5080  -23.5080  -13.1880 C.2     1  UNL1       -0.0570
     13  C         26.7480  -22.1900  -13.6080 C.2     1  UNL1        0.0090
     14  C         26.2740  -21.7450  -14.8430 C.2     1  UNL1        0.0250
     15  C         25.5550  -22.6200  -15.6580 C.2     1  UNL1        0.0740
     16  C         25.3180  -23.9390  -15.2610 C.2     1  UNL1        0.0250
     17  C         25.7920  -24.3770  -14.0240 C.2     1  UNL1        0.0090
     18  S         24.9600  -22.0740  -17.2360 S.O2    1  UNL1        0.2390
     19  O         23.8210  -22.8830  -17.5960 O.2     1  UNL1       -0.2060
     20  O         26.0910  -21.8880  -18.1160 O.2     1  UNL1       -0.2060
     21  N         24.4080  -20.5260  -16.8740 N.3     1  UNL1       -0.2250
     22  H         24.0830  -20.5100  -15.9060 H       1  UNL1        0.1360
     23  H         23.6950  -20.1910  -17.5230 H       1  UNL1        0.1360
     24  C         21.8250  -22.7760   -8.9850 C.3     1  UNL1        0.0390
     25  C         22.5610  -21.9700   -7.9430 C.3     1  UNL1        0.0110
     26  C         21.0680  -22.0160   -7.9180 C.3     1  UNL1        0.0110
     27  C         19.2540  -21.9020  -10.8560 C.2     1  UNL1        0.0590
     28  C         18.3670  -21.0480  -11.5180 C.2     1  UNL1        0.0310
     29  C         17.0260  -20.9830  -11.1280 C.2     1  UNL1        0.0030
     30  C         16.5550  -21.7800  -10.0850 C.2     1  UNL1        0.0160
     31  C         17.4170  -22.6660   -9.4270 C.2     1  UNL1        0.0500
     32  C         18.7660  -22.7190   -9.8190 C.2     1  UNL1        0.0470
     33  C         16.9230  -23.5310   -8.2930 C.3     1  UNL1        0.4170
     34  F         15.8780  -24.3280   -8.6480 F       1  UNL1       -0.1660
     35  F         16.4940  -22.8140   -7.2170 F       1  UNL1       -0.1660
     36  F         17.8890  -24.3680   -7.8220 F       1  UNL1       -0.1660
@<TRIPOS>BOND
     1    20    18    2
     2    19    18    2
     3    23    21    1
     4    18    21    1
     5    18    15    1
     6    21    22    1
     7    15    16    2
     8    15    14    1
     9    16    17    1
    10    14    13    2
    11    17    12    2
    12    13    12    1
    13    12    11    1
    14     3     2    2
    15     3     4    1
    16     2     1    1
    17    11    10    1
    18    28    29    1
    19    28    27    2
    20     8     7    1
    21     1     6    1
    22     1     5    2
    23     4    27    1
    24     4     5    1
    25    29    30    2
    26     7     6   am
    27     7    10    1
    28    27    32    1
    29     6     9    2
    30     5    24    1
    31    30    31    1
    32    32    31    2
    33    31    33    1
    34    24    25    1
    35    24    26    1
    36    34    33    1
    37    33    36    1
    38    33    35    1
    39    25    26    1
