@<TRIPOS>MOLECULE
18533_out_ligand_01.pdbqt
 33 35 0 0 0
SMALL
GASTEIGER

@<TRIPOS>ATOM
      1  C         17.5790  -22.5250   -9.7790 C.2     1  UNL1        0.0230
      2  C         16.7910  -21.5230  -10.3500 C.2     1  UNL1        0.0240
      3  C         17.3130  -20.7070  -11.3540 C.2     1  UNL1        0.0030
      4  C         18.6330  -20.8810  -11.7730 C.2     1  UNL1        0.0170
      5  C         19.4360  -21.8640  -11.1760 C.2     1  UNL1        0.0330
      6  C         18.9040  -22.6940  -10.1800 C.2     1  UNL1        0.0410
      7  C         20.8520  -22.0660  -11.5870 C.2     1  UNL1        0.2510
      8  O         21.2860  -21.5210  -12.5940 O.2     1  UNL1       -0.2680
      9  N         21.5970  -22.9210  -10.8000 N.am    1  UNL1       -0.3550
     10  H         21.1310  -23.5050  -10.1220 H       1  UNL1        0.1620
     11  C         22.9760  -23.2420  -11.1330 C.3     1  UNL1        0.1580
     12  C         24.0390  -22.3410  -10.4280 C.3     1  UNL1        0.2360
     13  C         23.3120  -21.4510   -9.3990 C.3     1  UNL1        0.0440
     14  N         24.8090  -21.5250  -11.4140 N.3     1  UNL1        0.0940
     15  C         25.9610  -20.8190  -10.8420 C.3     1  UNL1        0.2730
     16  C         26.5170  -19.7920  -11.8420 C.3     1  UNL1        0.0340
     17  C         26.6000  -20.3140  -13.2860 C.3     1  UNL1       -0.0150
     18  C         25.5380  -19.6610  -14.1780 C.3     1  UNL1        0.0100
     19  C         26.4870  -21.8380  -13.3030 C.3     1  UNL1        0.0340
     20  C         25.2340  -22.3450  -12.5750 C.3     1  UNL1        0.2730
     21  N         16.9950  -23.3090   -8.7310 N.pl3   1  UNL1       -0.1810
     22  H         16.0770  -22.9290   -8.4780 H       1  UNL1        0.1460
     23  S         17.8940  -23.3690   -7.2810 S.O2    1  UNL1        0.2460
     24  O         18.8080  -22.2450   -7.3530 O.2     1  UNL1       -0.2060
     25  O         18.3550  -24.7140   -7.0200 O.2     1  UNL1       -0.2060
     26  C         16.6210  -22.9700   -6.0870 C.2     1  UNL1        0.0810
     27  C         16.7650  -23.2670   -4.7170 C.2     1  UNL1       -0.0390
     28  C         15.7240  -22.9030   -3.8470 C.2     1  UNL1        0.0090
     29  C         17.9930  -23.9020   -4.1250 C.3     1  UNL1        0.0500
     30  C         14.5710  -22.2690   -4.3230 C.2     1  UNL1        0.0070
     31  C         14.4380  -21.9610   -5.6790 C.2     1  UNL1       -0.0600
     32  C         13.1940  -21.2870   -6.1830 C.3     1  UNL1        0.0480
     33  C         15.4640  -22.3220   -6.5600 C.2     1  UNL1        0.0320
@<TRIPOS>BOND
     1    18    17    1
     2    19    17    1
     3    19    20    1
     4    17    16    1
     5     8     7    2
     6    20    14    1
     7    16    15    1
     8     4     3    2
     9     4     5    1
    10     7     5    1
    11     7     9   am
    12    14    15    1
    13    14    12    1
    14     3     2    1
    15     5     6    2
    16    11     9    1
    17    11    12    1
    18     9    10    1
    19    12    13    1
    20     2     1    2
    21     6     1    1
    22     1    21    1
    23    21    22    1
    24    21    23    1
    25    24    23    2
    26    23    25    2
    27    23    26    1
    28    33    26    2
    29    33    31    1
    30    32    31    1
    31    26    27    1
    32    31    30    2
    33    27    29    1
    34    27    28    2
    35    30    28    1
