@<TRIPOS>MOLECULE
18537_out_ligand_01.pdbqt
 31 34 0 0 0
SMALL
GASTEIGER

@<TRIPOS>ATOM
      1  C         18.9020  -22.1540  -10.5640 C.2     1  UNL1        0.0860
      2  C         17.8360  -21.4560  -11.0870 C.2     1  UNL1        0.0410
      3  C         16.7120  -21.7870  -10.2910 C.2     1  UNL1        0.0400
      4  C         17.1250  -22.6910   -9.3210 C.2     1  UNL1        0.0770
      5  O         18.4740  -22.8840   -9.4940 O.2     1  UNL1       -0.3100
      6  C         20.3190  -22.2730  -10.8990 C.2     1  UNL1       -0.0020
      7  C         21.1960  -22.9800  -10.0600 C.2     1  UNL1        0.0160
      8  C         22.5560  -23.0870  -10.3670 C.2     1  UNL1        0.0260
      9  C         23.0530  -22.4730  -11.5170 C.2     1  UNL1        0.0790
     10  C         22.2010  -21.7840  -12.3790 C.2     1  UNL1        0.0260
     11  C         20.8420  -21.6840  -12.0650 C.2     1  UNL1        0.0160
     12  S         24.7810  -22.6140  -11.8980 S.O2    1  UNL1        0.2590
     13  O         25.5080  -22.9070  -10.6820 O.2     1  UNL1       -0.2010
     14  O         25.1330  -21.5000  -12.7490 O.2     1  UNL1       -0.2010
     15  N         24.8070  -23.9760  -12.8700 N.3     1  UNL1       -0.3110
     16  H         23.9370  -24.5050  -12.8830 H       1  UNL1        0.1720
     17  C         25.7440  -24.0750  -13.9920 C.3     1  UNL1        0.0850
     18  C         27.1210  -24.4160  -13.4330 C.3     1  UNL1        0.0320
     19  C         25.2630  -25.1530  -14.9550 C.3     1  UNL1        0.0320
     20  C         16.3590  -23.2680   -8.2770 C.2     1  UNL1        0.0550
     21  C         16.5200  -23.0180   -6.9680 C.2     1  UNL1        0.0470
     22  C         15.5280  -23.6290   -6.0100 C.2     1  UNL1        0.2570
     23  C         17.4630  -22.2330   -6.1630 C.2     1  UNL1        0.0060
     24  O         14.6090  -24.3820   -6.2720 O.2     1  UNL1       -0.2670
     25  N         15.8810  -23.1430   -4.7650 N.am    1  UNL1       -0.3220
     26  C         17.0110  -22.3350   -4.8400 C.2     1  UNL1        0.0460
     27  H         15.3870  -23.3900   -3.9220 H       1  UNL1        0.1690
     28  C         17.6490  -21.7250   -3.7770 C.2     1  UNL1        0.0300
     29  C         18.8030  -20.9940   -4.0560 C.2     1  UNL1        0.0020
     30  C         19.2900  -20.9040   -5.3710 C.2     1  UNL1        0.0010
     31  C         18.6250  -21.5330   -6.4330 C.2     1  UNL1        0.0150
@<TRIPOS>BOND
     1    19    17    1
     2    17    18    1
     3    17    15    1
     4    16    15    1
     5    15    12    1
     6    14    12    2
     7    10    11    1
     8    10     9    2
     9    11     6    2
    10    12     9    1
    11    12    13    2
    12     9     8    1
    13     2     1    2
    14     2     3    1
    15     6     1    1
    16     6     7    1
    17     1     5    1
    18     8     7    2
    19     3     4    2
    20     5     4    1
    21     4    20    1
    22    20    21    2
    23    21    23    1
    24    21    22    1
    25    31    23    2
    26    31    30    1
    27    24    22    2
    28    23    26    1
    29    22    25   am
    30    30    29    2
    31    26    25    1
    32    26    28    2
    33    25    27    1
    34    29    28    1
