@<TRIPOS>MOLECULE
18547_out_ligand_01.pdbqt
 37 40 0 0 0
SMALL
GASTEIGER

@<TRIPOS>ATOM
      1  C         21.8830  -22.5350  -10.9910 C.2     1  UNL1        0.0350
      2  C         21.5140  -21.7880  -12.1120 C.2     1  UNL1        0.0290
      3  C         20.2120  -21.2900  -12.2410 C.2     1  UNL1        0.0030
      4  C         19.2710  -21.5170  -11.2390 C.2     1  UNL1        0.0170
      5  C         19.6370  -22.2440  -10.1010 C.2     1  UNL1        0.0340
      6  C         20.9320  -22.7690   -9.9920 C.2     1  UNL1        0.0460
      7  N         23.1680  -23.0780  -10.7940 N.am    1  UNL1       -0.3270
      8  C         24.3440  -22.4090  -10.5070 C.2     1  UNL1        0.2310
      9  O         24.4400  -21.2020  -10.2890 O.2     1  UNL1       -0.2720
     10  H         23.2550  -24.0810  -10.9110 H       1  UNL1        0.1690
     11  C         25.5680  -23.3000  -10.3290 C.3     1  UNL1        0.1850
     12  S         26.9920  -22.8750  -11.3800 S.3     1  UNL1       -0.0810
     13  C         26.5000  -23.5590  -12.8780 C.ar    1  UNL1        0.1890
     14  N         26.1800  -24.7990  -13.1430 N.ar    1  UNL1       -0.1230
     15  N         25.8550  -24.8600  -14.4800 N.ar    1  UNL1       -0.1340
     16  C         25.9770  -23.6500  -14.9910 C.ar    1  UNL1        0.1320
     17  N         26.3930  -22.7990  -13.9990 N.ar    1  UNL1       -0.3200
     18  H         26.5790  -21.8110  -14.0750 H       1  UNL1        0.1690
     19  C         25.7060  -23.2440  -16.3950 C.3     1  UNL1        0.0570
     20  C         25.6430  -21.7350  -16.6110 C.3     1  UNL1        0.0120
     21  C         24.9550  -21.5860  -17.9650 C.3     1  UNL1        0.0010
     22  C         24.1100  -22.8480  -18.1530 C.3     1  UNL1        0.0010
     23  C         24.3490  -23.7090  -16.9150 C.3     1  UNL1        0.0120
     24  C         18.6800  -22.4850   -8.9860 C.2     1  UNL1        0.2560
     25  O         17.6700  -23.1390   -9.2180 O.2     1  UNL1       -0.2670
     26  N         19.0810  -21.9800   -7.7620 N.am    1  UNL1       -0.3230
     27  H         20.0140  -21.5920   -7.7140 H       1  UNL1        0.1690
     28  C         18.3820  -22.0360   -6.5390 C.2     1  UNL1        0.0350
     29  C         18.8360  -21.4610   -5.3520 C.2     1  UNL1        0.0290
     30  C         18.0820  -21.5680   -4.1790 C.2     1  UNL1        0.0030
     31  C         16.8630  -22.2450   -4.1830 C.2     1  UNL1        0.0160
     32  C         16.3880  -22.8300   -5.3630 C.2     1  UNL1        0.0500
     33  C         17.1630  -22.7260   -6.5330 C.2     1  UNL1        0.0450
     34  C         15.0710  -23.5650   -5.4010 C.3     1  UNL1        0.4170
     35  F         14.8280  -24.3190   -4.2930 F       1  UNL1       -0.1660
     36  F         14.0100  -22.7160   -5.5160 F       1  UNL1       -0.1660
     37  F         14.9830  -24.4170   -6.4600 F       1  UNL1       -0.1660
@<TRIPOS>BOND
     1    22    21    1
     2    22    23    1
     3    21    20    1
     4    23    19    1
     5    20    19    1
     6    19    16    1
     7    16    15   ar
     8    16    17   ar
     9    15    14   ar
    10    18    17    1
    11    17    13   ar
    12    14    13   ar
    13    13    12    1
    14     3     2    1
    15     3     4    2
    16     2     1    2
    17    12    11    1
    18     4     5    1
    19     1     7    1
    20     1     6    1
    21    10     7    1
    22     7     8   am
    23     8    11    1
    24     8     9    2
    25     5     6    2
    26     5    24    1
    27    25    24    2
    28    24    26   am
    29    26    27    1
    30    26    28    1
    31    28    33    2
    32    28    29    1
    33    33    32    1
    34    37    34    1
    35    36    34    1
    36    34    32    1
    37    34    35    1
    38    32    31    2
    39    29    30    2
    40    31    30    1
