@<TRIPOS>MOLECULE
18544_out_ligand_01.pdbqt
 32 35 0 0 0
SMALL
GASTEIGER

@<TRIPOS>ATOM
      1  C         21.1990  -22.1260   -9.5880 C.ar    1  UNL1        0.1530
      2  N         20.8320  -22.5180   -8.3540 N.ar    1  UNL1       -0.1610
      3  N         19.4640  -22.5220   -8.3580 N.ar    1  UNL1       -0.2370
      4  C         18.9720  -22.1060   -9.5840 C.ar    1  UNL1        0.0450
      5  C         20.0670  -21.8530  -10.3880 C.ar    1  UNL1        0.0030
      6  C         19.9690  -21.3660  -11.7940 C.3     1  UNL1        0.0430
      7  C         18.5460  -21.5470  -12.3420 C.3     1  UNL1        0.0050
      8  C         17.4880  -21.0960  -11.3230 C.3     1  UNL1        0.0060
      9  C         17.5560  -21.9050  -10.0150 C.3     1  UNL1        0.0600
     10  C         22.6170  -22.0300   -9.9900 C.2     1  UNL1        0.2770
     11  N         23.0090  -23.0990  -10.7770 N.am    1  UNL1       -0.3220
     12  H         22.2600  -23.7620  -10.9560 H       1  UNL1        0.1690
     13  O         23.3140  -21.0730   -9.6730 O.2     1  UNL1       -0.2660
     14  C         24.2350  -23.2700  -11.4470 C.2     1  UNL1        0.0360
     15  C         25.4050  -23.1150  -10.6880 C.2     1  UNL1        0.0290
     16  C         26.6640  -23.3430  -11.2560 C.2     1  UNL1        0.0040
     17  C         26.7670  -23.7130  -12.5970 C.2     1  UNL1        0.0250
     18  C         25.6050  -23.8180  -13.3670 C.2     1  UNL1        0.0760
     19  C         24.3420  -23.6020  -12.7990 C.2     1  UNL1        0.0540
     20  S         25.7190  -24.2550  -15.0850 S.O2    1  UNL1        0.2390
     21  O         24.7470  -23.4690  -15.7990 O.2     1  UNL1       -0.2060
     22  O         27.1210  -24.2890  -15.4430 O.2     1  UNL1       -0.2060
     23  N         25.2510  -25.8760  -15.1150 N.3     1  UNL1       -0.2250
     24  H         24.9610  -26.1040  -16.0690 H       1  UNL1        0.1360
     25  H         25.9880  -26.5140  -14.8260 H       1  UNL1        0.1360
     26  C         18.7720  -22.9350   -7.1770 C.2     1  UNL1        0.0580
     27  C         18.1390  -24.1810   -7.0720 C.2     1  UNL1        0.0340
     28  C         17.4830  -24.5430   -5.8900 C.2     1  UNL1        0.0440
     29  C         17.4540  -23.6630   -4.8160 C.2     1  UNL1        0.1160
     30  F         16.8200  -24.0170   -3.6880 F       1  UNL1       -0.2060
     31  C         18.0750  -22.4240   -4.8970 C.2     1  UNL1        0.0440
     32  C         18.7470  -22.0640   -6.0700 C.2     1  UNL1        0.0340
@<TRIPOS>BOND
     1    24    23    1
     2    21    20    2
     3    22    20    2
     4    23    20    1
     5    23    25    1
     6    20    18    1
     7    18    19    1
     8    18    17    2
     9    19    14    2
    10    17    16    1
    11     7     6    1
    12     7     8    1
    13     6     5    1
    14    14    11    1
    15    14    15    1
    16     8     9    1
    17    16    15    2
    18    12    11    1
    19    11    10   am
    20     5     1   ar
    21     5     4   ar
    22     9     4    1
    23    10    13    2
    24    10     1    1
    25     1     2   ar
    26     4     3   ar
    27     3     2   ar
    28     3    26    1
    29    26    27    2
    30    26    32    1
    31    27    28    1
    32    32    31    2
    33    28    29    2
    34    31    29    1
    35    29    30    1
