@<TRIPOS>MOLECULE
18549_out_ligand_01.pdbqt
 33 35 0 0 0
SMALL
GASTEIGER

@<TRIPOS>ATOM
      1  C         18.8730  -22.9300  -10.0110 C.2     1  UNL1        0.0350
      2  C         17.5940  -22.6200  -10.4760 C.2     1  UNL1        0.0320
      3  C         16.4640  -22.8650   -9.6880 C.2     1  UNL1        0.0400
      4  C         16.5890  -23.4220   -8.4130 C.2     1  UNL1        0.0810
      5  C         17.8730  -23.7370   -7.9310 C.2     1  UNL1       -0.0180
      6  C         19.0020  -23.4830   -8.7380 C.2     1  UNL1        0.0390
      7  N         19.9610  -22.6440  -10.8630 N.am    1  UNL1       -0.3230
      8  C         21.3060  -22.8290  -10.5960 C.2     1  UNL1        0.2560
      9  O         21.7930  -23.3530   -9.6020 O.2     1  UNL1       -0.2670
     10  H         19.7120  -22.3270  -11.7900 H       1  UNL1        0.1690
     11  C         22.2320  -22.3730  -11.6740 C.2     1  UNL1        0.0320
     12  C         23.5640  -22.8090  -11.7400 C.2     1  UNL1        0.0180
     13  C         24.3970  -22.3640  -12.7720 C.2     1  UNL1        0.0260
     14  C         23.8920  -21.4880  -13.7370 C.2     1  UNL1        0.0740
     15  C         22.5590  -21.0710  -13.6980 C.2     1  UNL1        0.0260
     16  C         21.7300  -21.5160  -12.6640 C.2     1  UNL1        0.0180
     17  S         24.9320  -20.9320  -15.0640 S.O2    1  UNL1        0.2390
     18  O         24.2010  -21.0640  -16.3000 O.2     1  UNL1       -0.2060
     19  O         26.2520  -21.4870  -14.8720 O.2     1  UNL1       -0.2060
     20  N         25.0790  -19.2920  -14.7140 N.3     1  UNL1       -0.2250
     21  H         25.0280  -18.6900  -15.5340 H       1  UNL1        0.1360
     22  H         24.3880  -19.0400  -14.0050 H       1  UNL1        0.1360
     23  C         18.0920  -24.3180   -6.5470 C.3     1  UNL1        0.0800
     24  C         18.1620  -23.2740   -5.4540 C.2     1  UNL1       -0.0540
     25  C         17.6840  -23.5590   -4.1660 C.2     1  UNL1        0.0070
     26  C         17.7610  -22.6010   -3.1540 C.2     1  UNL1        0.0010
     27  C         18.3190  -21.3510   -3.4160 C.2     1  UNL1        0.0000
     28  C         18.8030  -21.0590   -4.6900 C.2     1  UNL1        0.0010
     29  C         18.7270  -22.0160   -5.7030 C.2     1  UNL1        0.0070
     30  O         15.5460  -23.6980   -7.5730 O.2     1  UNL1       -0.2900
     31  C         14.9460  -22.6360   -6.8460 C.3     1  UNL1        0.5050
     32  F         15.7780  -21.5690   -6.8050 F       1  UNL1       -0.1840
     33  F         14.6900  -23.0270   -5.5740 F       1  UNL1       -0.1840
@<TRIPOS>BOND
     1    18    17    2
     2    21    20    1
     3    17    19    2
     4    17    20    1
     5    17    14    1
     6    20    22    1
     7    14    15    2
     8    14    13    1
     9    15    16    1
    10    13    12    2
    11    16    11    2
    12    10     7    1
    13    12    11    1
    14    11     8    1
    15     7     8   am
    16     7     1    1
    17     8     9    2
    18     2     1    2
    19     2     3    1
    20     1     6    1
    21     3     4    2
    22     6     5    2
    23     4     5    1
    24     4    30    1
    25     5    23    1
    26    30    31    1
    27    31    32    1
    28    31    33    1
    29    23    24    1
    30    29    24    2
    31    29    28    1
    32    24    25    1
    33    28    27    2
    34    25    26    2
    35    27    26    1
