@<TRIPOS>MOLECULE
18550_out_ligand_01.pdbqt
 34 36 0 0 0
SMALL
GASTEIGER

@<TRIPOS>ATOM
      1  C         22.3140  -23.3030   -8.7150 C.2     1  UNL1        0.0320
      2  C         21.5510  -24.4550   -8.9580 C.2     1  UNL1        0.0180
      3  C         20.2190  -24.5190   -8.5460 C.2     1  UNL1        0.0260
      4  C         19.6580  -23.4300   -7.8740 C.2     1  UNL1        0.0740
      5  C         20.4110  -22.2790   -7.6180 C.2     1  UNL1        0.0260
      6  C         21.7430  -22.2180   -8.0330 C.2     1  UNL1        0.0180
      7  S         17.9620  -23.4840   -7.3390 S.O2    1  UNL1        0.2450
      8  O         17.6050  -22.1700   -6.8490 O.2     1  UNL1       -0.2060
      9  O         17.8080  -24.6770   -6.5370 O.2     1  UNL1       -0.2060
     10  N         17.1740  -23.6770   -8.8420 N.pl3   1  UNL1       -0.1810
     11  H         17.3860  -24.6180   -9.1790 H       1  UNL1        0.1460
     12  C         17.5320  -22.6850   -9.8130 C.2     1  UNL1        0.0230
     13  C         16.5810  -21.7540  -10.2240 C.2     1  UNL1        0.0240
     14  C         16.9280  -20.7610  -11.1380 C.2     1  UNL1        0.0030
     15  C         18.2320  -20.6910  -11.6290 C.2     1  UNL1        0.0160
     16  C         19.2070  -21.6050  -11.1980 C.2     1  UNL1        0.0490
     17  C         18.8430  -22.6070  -10.2840 C.2     1  UNL1        0.0400
     18  C         20.6140  -21.5310  -11.7380 C.3     1  UNL1        0.4170
     19  F         20.6510  -21.0430  -13.0080 F       1  UNL1       -0.1660
     20  F         21.4260  -20.7230  -11.0020 F       1  UNL1       -0.1660
     21  F         21.2350  -22.7420  -11.7850 F       1  UNL1       -0.1660
     22  C         23.7310  -23.2900   -9.1650 C.2     1  UNL1        0.2510
     23  N         24.1020  -22.2550   -9.9950 N.am    1  UNL1       -0.3530
     24  H         23.4240  -21.5680  -10.2940 H       1  UNL1        0.1630
     25  O         24.4960  -24.1780   -8.8080 O.2     1  UNL1       -0.2680
     26  C         25.4710  -22.0790  -10.4230 C.3     1  UNL1        0.1620
     27  C         25.5330  -21.2800  -11.6900 C.2     1  UNL1       -0.0230
     28  C         24.6740  -21.5280  -12.7630 C.2     1  UNL1        0.0140
     29  C         24.7570  -20.7380  -13.9070 C.2     1  UNL1        0.0580
     30  C         25.6940  -19.7190  -13.9390 C.2     1  UNL1        0.1630
     31  N         26.5350  -19.4430  -12.9200 N.2     1  UNL1       -0.2370
     32  C         26.4330  -20.2250  -11.8210 C.2     1  UNL1        0.1280
     33  O         25.7350  -18.9640  -15.0940 O.2     1  UNL1       -0.3390
     34  C         26.7600  -17.9760  -15.0730 C.3     1  UNL1        0.2110
@<TRIPOS>BOND
     1    33    34    1
     2    33    30    1
     3    30    29    1
     4    30    31    2
     5    29    28    2
     6    19    18    1
     7    31    32    1
     8    28    27    1
     9    32    27    2
    10    21    18    1
    11    18    16    1
    12    18    20    1
    13    27    26    1
    14    15    16    2
    15    15    14    1
    16    16    17    1
    17    14    13    2
    18    26    23    1
    19    24    23    1
    20    17    12    2
    21    13    12    1
    22    23    22   am
    23    12    10    1
    24    11    10    1
    25    22    25    2
    26    22     1    1
    27     2     1    2
    28     2     3    1
    29    10     7    1
    30     1     6    1
    31     3     4    2
    32     6     5    2
    33     4     5    1
    34     4     7    1
    35     7     8    2
    36     7     9    2
