@<TRIPOS>MOLECULE
18559_out_ligand_01.pdbqt
 33 36 0 0 0
SMALL
GASTEIGER

@<TRIPOS>ATOM
      1  C         17.2200  -23.7050   -8.4170 C.ar    1  UNL1        0.1170
      2  N         18.4980  -23.9140   -8.3370 N.ar    1  UNL1       -0.2260
      3  C         19.2500  -23.1950   -9.2120 C.ar    1  UNL1        0.1160
      4  S         20.9390  -23.3770   -9.2850 S.2     1  UNL1       -0.0630
      5  C         21.0900  -22.1930  -10.5160 C.ar    1  UNL1        0.0820
      6  C         19.8550  -21.6920  -10.9190 C.ar    1  UNL1       -0.0210
      7  C         19.6280  -20.7120  -12.0290 C.3     1  UNL1        0.0510
      8  C         18.7960  -22.2710  -10.1280 C.ar    1  UNL1        0.0750
      9  C         17.3660  -22.0300  -10.1690 C.ar    1  UNL1        0.2600
     10  O         16.8300  -21.1760  -10.8660 O.2     1  UNL1       -0.2670
     11  N         16.6420  -22.8370   -9.3230 N.ar    1  UNL1       -0.3100
     12  H         15.6480  -22.6660   -9.2960 H       1  UNL1        0.1700
     13  C         22.4340  -21.8750  -10.9880 C.2     1  UNL1        0.2630
     14  O         23.2780  -21.3590  -10.2640 O.2     1  UNL1       -0.2670
     15  N         22.6210  -22.1910  -12.3250 N.am    1  UNL1       -0.3230
     16  H         21.8020  -22.5210  -12.8200 H       1  UNL1        0.1690
     17  C         23.7910  -22.0430  -13.0940 C.2     1  UNL1        0.0350
     18  C         24.8880  -22.9080  -13.0290 C.2     1  UNL1        0.0320
     19  C         26.0130  -22.6890  -13.8320 C.2     1  UNL1        0.0440
     20  C         26.0420  -21.6050  -14.6970 C.2     1  UNL1        0.1160
     21  F         27.1210  -21.3960  -15.4620 F       1  UNL1       -0.2060
     22  C         24.9650  -20.7340  -14.7770 C.2     1  UNL1        0.0440
     23  C         23.8380  -20.9550  -13.9800 C.2     1  UNL1        0.0320
     24  C         16.2610  -24.4470   -7.5130 C.3     1  UNL1        0.1580
     25  S         15.2870  -23.2400   -6.5440 S.3     1  UNL1       -0.1220
     26  C         16.5230  -22.6940   -5.3670 C.2     1  UNL1        0.0070
     27  C         16.5070  -23.1220   -4.0260 C.2     1  UNL1       -0.0450
     28  C         17.5100  -22.6590   -3.1560 C.2     1  UNL1        0.0090
     29  C         15.4540  -24.0510   -3.4820 C.3     1  UNL1        0.0490
     30  C         18.4930  -21.7740   -3.6000 C.2     1  UNL1        0.0070
     31  C         18.4900  -21.3150   -4.9180 C.2     1  UNL1       -0.0610
     32  C         19.5440  -20.3570   -5.3850 C.3     1  UNL1        0.0480
     33  C         17.5060  -21.7850   -5.7950 C.2     1  UNL1        0.0250
@<TRIPOS>BOND
     1    21    20    1
     2    22    20    2
     3    22    23    1
     4    20    19    1
     5    23    17    2
     6    19    18    2
     7    17    18    1
     8    17    15    1
     9    16    15    1
    10    15    13   am
    11     7     6    1
    12    13     5    1
    13    13    14    2
    14     6     5   ar
    15     6     8   ar
    16    10     9    2
    17     5     4   ar
    18     9     8   ar
    19     9    11   ar
    20     8     3   ar
    21    11    12    1
    22    11     1   ar
    23     4     3   ar
    24     3     2   ar
    25     1     2   ar
    26     1    24    1
    27    24    25    1
    28    25    26    1
    29    33    26    2
    30    33    31    1
    31    32    31    1
    32    26    27    1
    33    31    30    2
    34    27    29    1
    35    27    28    2
    36    30    28    1
