@<TRIPOS>MOLECULE
18557_out_ligand_01.pdbqt
 31 34 0 0 0
SMALL
GASTEIGER

@<TRIPOS>ATOM
      1  N         17.5180  -23.5980   -8.0410 N.3     1  UNL1       -0.2960
      2  C         18.6730  -24.4070   -7.6150 C.3     1  UNL1        0.1740
      3  C         19.9860  -23.8700   -8.1460 C.2     1  UNL1       -0.0400
      4  C         20.7340  -24.6010   -9.0800 C.2     1  UNL1        0.0100
      5  C         21.9470  -24.1000   -9.5620 C.2     1  UNL1        0.0170
      6  C         22.4370  -22.8660   -9.1170 C.2     1  UNL1        0.0320
      7  C         21.6840  -22.1270   -8.1950 C.2     1  UNL1        0.0170
      8  C         20.4740  -22.6330   -7.7050 C.2     1  UNL1        0.0100
      9  C         23.7370  -22.3830   -9.6740 C.2     1  UNL1        0.2520
     10  O         23.9240  -21.1800   -9.8370 O.2     1  UNL1       -0.2680
     11  N         24.6680  -23.3490  -10.0110 N.am    1  UNL1       -0.3520
     12  H         24.3990  -24.3240  -10.0190 H       1  UNL1        0.1630
     13  C         25.9330  -23.0110  -10.5780 C.3     1  UNL1        0.0840
     14  C         26.3750  -23.6330  -11.8750 C.3     1  UNL1        0.0270
     15  C         27.0570  -24.0120  -10.5930 C.3     1  UNL1        0.0270
     16  C         17.1380  -23.7030   -9.4620 C.3     1  UNL1        0.2000
     17  C         17.5940  -22.5540  -10.2890 C.2     1  UNL1        0.0710
     18  C         18.7600  -22.2990  -10.9830 C.2     1  UNL1        0.0360
     19  C         18.5930  -21.0360  -11.6040 C.2     1  UNL1        0.0270
     20  C         17.3340  -20.6060  -11.2600 C.2     1  UNL1        0.1420
     21  O         16.7170  -21.5230  -10.4700 O.2     1  UNL1       -0.3250
     22  S         16.3520  -23.1800   -6.9080 S.O2    1  UNL1        0.2610
     23  O         15.5560  -22.0990   -7.4530 O.2     1  UNL1       -0.2000
     24  O         15.7190  -24.4050   -6.4610 O.2     1  UNL1       -0.2000
     25  C         17.2420  -22.5020   -5.5270 C.2     1  UNL1        0.0820
     26  C         17.0580  -23.0410   -4.2450 C.2     1  UNL1        0.0250
     27  C         17.7280  -22.4830   -3.1530 C.2     1  UNL1        0.0050
     28  C         18.5660  -21.3840   -3.3430 C.2     1  UNL1        0.0420
     29  C         18.7140  -20.8410   -4.6170 C.2     1  UNL1        0.1170
     30  F         19.5050  -19.7740   -4.7890 F       1  UNL1       -0.2060
     31  C         18.0510  -21.3790   -5.7120 C.2     1  UNL1        0.0670
@<TRIPOS>BOND
     1    14    15    1
     2    14    13    1
     3    19    20    2
     4    19    18    1
     5    20    21    1
     6    18    17    2
     7    15    13    1
     8    13    11    1
     9    21    17    1
    10    17    16    1
    11    12    11    1
    12    11     9   am
    13    10     9    2
    14     9     6    1
    15     5     6    2
    16     5     4    1
    17    16     1    1
    18     6     7    1
    19     4     3    2
    20     7     8    2
    21     3     8    1
    22     3     2    1
    23     1     2    1
    24     1    22    1
    25    23    22    2
    26    22    24    2
    27    22    25    1
    28    31    25    2
    29    31    29    1
    30    25    26    1
    31    30    29    1
    32    29    28    2
    33    26    27    2
    34    28    27    1
