@<TRIPOS>MOLECULE
18564_out_ligand_01.pdbqt
 33 37 0 0 0
SMALL
GASTEIGER

@<TRIPOS>ATOM
      1  O         22.5830  -23.9480   -9.3080 O.2     1  UNL1       -0.2660
      2  C         21.9710  -23.0460   -9.8710 C.2     1  UNL1        0.2770
      3  N         22.5300  -22.1390  -10.7610 N.am    1  UNL1       -0.3220
      4  H         21.9370  -21.3740  -11.0470 H       1  UNL1        0.1690
      5  C         20.5280  -22.8130   -9.6280 C.ar    1  UNL1        0.1530
      6  N         19.9160  -23.2920   -8.5230 N.ar    1  UNL1       -0.1610
      7  N         18.6040  -22.9180   -8.5990 N.ar    1  UNL1       -0.2370
      8  C         18.3950  -22.2330   -9.7600 C.ar    1  UNL1        0.0450
      9  C         19.5870  -22.1380  -10.4210 C.ar    1  UNL1        0.0030
     10  C         17.2580  -21.6270  -10.4760 C.3     1  UNL1        0.0600
     11  C         19.4510  -21.4310  -11.7070 C.3     1  UNL1        0.0430
     12  C         17.8970  -21.3800  -11.8840 C.3     1  UNL1        0.0110
     13  C         17.7010  -23.2530   -7.5490 C.2     1  UNL1        0.0580
     14  C         18.0090  -22.8550   -6.2340 C.2     1  UNL1        0.0340
     15  C         17.1480  -23.1620   -5.1790 C.2     1  UNL1        0.0440
     16  C         15.9790  -23.8640   -5.4340 C.2     1  UNL1        0.1160
     17  F         15.1490  -24.1590   -4.4260 F       1  UNL1       -0.2060
     18  C         15.6540  -24.2610   -6.7250 C.2     1  UNL1        0.0440
     19  C         16.5140  -23.9550   -7.7870 C.2     1  UNL1        0.0340
     20  C         23.8510  -22.1130  -11.2530 C.2     1  UNL1        0.0360
     21  C         24.9030  -21.4220  -10.6430 C.2     1  UNL1        0.0290
     22  C         26.1940  -21.4590  -11.1840 C.2     1  UNL1        0.0040
     23  C         26.4490  -22.1860  -12.3430 C.2     1  UNL1        0.0250
     24  C         25.4000  -22.8700  -12.9580 C.2     1  UNL1        0.0760
     25  C         24.1090  -22.8450  -12.4170 C.2     1  UNL1        0.0540
     26  S         25.7270  -23.8050  -14.4290 S.O2    1  UNL1        0.2410
     27  O         27.1040  -23.5660  -14.8020 O.2     1  UNL1       -0.2060
     28  O         25.2020  -25.1400  -14.2420 O.2     1  UNL1       -0.2060
     29  N         24.6800  -23.0460  -15.5340 N.3     1  UNL1       -0.2110
     30  H         23.7370  -23.0730  -15.1390 H       1  UNL1        0.1400
     31  C         24.7280  -23.5900  -16.8990 C.3     1  UNL1        0.0710
     32  C         24.7370  -22.6630  -18.0820 C.3     1  UNL1        0.0220
     33  C         23.5380  -23.5260  -17.8120 C.3     1  UNL1        0.0220
@<TRIPOS>BOND
     1    32    33    1
     2    32    31    1
     3    33    31    1
     4    31    29    1
     5    29    30    1
     6    29    26    1
     7    27    26    2
     8    26    28    2
     9    26    24    1
    10    24    25    1
    11    24    23    2
    12    25    20    2
    13    23    22    1
    14    12    11    1
    15    12    10    1
    16    11     9    1
    17    20     3    1
    18    20    21    1
    19    22    21    2
    20     4     3    1
    21     3     2   am
    22    10     8    1
    23     9     8   ar
    24     9     5   ar
    25     2     5    1
    26     2     1    2
    27     8     7   ar
    28     5     6   ar
    29     7     6   ar
    30     7    13    1
    31    19    13    2
    32    19    18    1
    33    13    14    1
    34    18    16    2
    35    14    15    2
    36    16    15    1
    37    16    17    1
