@<TRIPOS>MOLECULE
18567_out_ligand_01.pdbqt
 30 32 0 0 0
SMALL
GASTEIGER

@<TRIPOS>ATOM
      1  N         17.5050  -23.0670   -9.8780 N.am    1  UNL1       -0.3490
      2  C         16.4720  -23.1800   -8.9850 C.2     1  UNL1        0.2410
      3  O         15.6960  -22.2910   -8.6710 O.2     1  UNL1       -0.2690
      4  H         18.1750  -23.8250   -9.9170 H       1  UNL1        0.1630
      5  C         17.9260  -21.7790  -10.3990 C.3     1  UNL1        0.1140
      6  C         16.9960  -21.2710  -11.5020 C.3     1  UNL1        0.0370
      7  C         19.3700  -21.8950  -10.8660 C.2     1  UNL1       -0.0360
      8  C         20.2810  -22.7530  -10.2260 C.2     1  UNL1        0.0110
      9  C         21.6160  -22.8080  -10.6320 C.2     1  UNL1        0.0250
     10  C         22.0500  -21.9950  -11.6840 C.2     1  UNL1        0.0740
     11  C         21.1670  -21.1190  -12.3210 C.2     1  UNL1        0.0250
     12  C         19.8320  -21.0710  -11.9110 C.2     1  UNL1        0.0110
     13  S         23.7540  -22.0300  -12.1790 S.O2    1  UNL1        0.2390
     14  O         24.5390  -21.3410  -11.1750 O.2     1  UNL1       -0.2060
     15  O         23.8340  -21.6960  -13.5850 O.2     1  UNL1       -0.2060
     16  N         24.1200  -23.6650  -12.0030 N.3     1  UNL1       -0.2250
     17  H         23.3750  -24.2030  -11.5580 H       1  UNL1        0.1360
     18  H         25.0110  -23.7560  -11.5060 H       1  UNL1        0.1360
     19  C         16.3810  -24.5430   -8.4190 C.2     1  UNL1        0.0750
     20  C         16.4230  -24.7860   -7.1020 C.2     1  UNL1        0.0180
     21  C         16.5420  -23.7620   -6.0500 C.2     1  UNL1       -0.0250
     22  C         15.5150  -23.6900   -5.0960 C.2     1  UNL1        0.0120
     23  C         15.5720  -22.7630   -4.0600 C.2     1  UNL1        0.0020
     24  C         16.6630  -21.8990   -3.9610 C.2     1  UNL1        0.0120
     25  C         17.7060  -21.9450   -4.9010 C.2     1  UNL1       -0.0250
     26  C         18.7980  -21.0670   -4.7850 C.2     1  UNL1        0.0120
     27  C         17.6570  -22.8800   -5.9680 C.2     1  UNL1       -0.0160
     28  C         19.8400  -21.0910   -5.7110 C.2     1  UNL1        0.0010
     29  C         19.8070  -21.9950   -6.7670 C.2     1  UNL1        0.0010
     30  C         18.7300  -22.8790   -6.8950 C.2     1  UNL1        0.0130
@<TRIPOS>BOND
     1    15    13    2
     2    11    12    1
     3    11    10    2
     4    13    16    1
     5    13    10    1
     6    13    14    2
     7    16    17    1
     8    16    18    1
     9    12     7    2
    10    10     9    1
    11     6     5    1
    12     7     5    1
    13     7     8    1
    14     9     8    2
    15     5     1    1
    16     4     1    1
    17     1     2   am
    18     2     3    2
    19     2    19    1
    20    19    20    2
    21    20    21    1
    22    30    29    2
    23    30    27    1
    24    29    28    1
    25    21    27    2
    26    21    22    1
    27    27    25    1
    28    28    26    2
    29    22    23    2
    30    25    26    1
    31    25    24    2
    32    23    24    1
