@<TRIPOS>MOLECULE
18569_out_ligand_01.pdbqt
 34 36 0 0 0
SMALL
GASTEIGER

@<TRIPOS>ATOM
      1  C         21.7850  -22.5480  -11.2760 C.2     1  UNL1        0.0390
      2  C         21.3710  -21.6890  -12.3050 C.2     1  UNL1        0.0250
      3  C         20.1620  -20.9960  -12.2090 C.2     1  UNL1        0.0020
      4  C         19.3530  -21.1550  -11.0870 C.2     1  UNL1        0.0010
      5  C         19.7500  -22.0120  -10.0610 C.2     1  UNL1        0.0190
      6  C         20.9650  -22.7120  -10.1490 C.2     1  UNL1        0.0610
      7  C         21.3330  -23.6360   -9.0540 C.2     1  UNL1        0.2950
      8  O         22.2550  -24.4310   -9.0760 O.2     1  UNL1       -0.2590
      9  O         20.4420  -23.4710   -8.0420 O.3     1  UNL1       -0.3130
     10  C         19.3700  -24.4200   -8.0060 C.3     1  UNL1        0.2170
     11  C         18.2490  -23.8770   -7.1550 C.2     1  UNL1       -0.0340
     12  C         18.4420  -22.7340   -6.3670 C.2     1  UNL1        0.0100
     13  C         17.3950  -22.2240   -5.5950 C.2     1  UNL1        0.0170
     14  C         16.1410  -22.8460   -5.6040 C.2     1  UNL1        0.0310
     15  C         15.9330  -23.9700   -6.4110 C.2     1  UNL1        0.0170
     16  C         16.9840  -24.4800   -7.1810 C.2     1  UNL1        0.0100
     17  C         15.0590  -22.2680   -4.7640 C.2     1  UNL1        0.2490
     18  N         13.9740  -21.7390   -5.4080 N.am    1  UNL1       -0.3660
     19  H         13.1950  -21.4870   -4.8110 H       1  UNL1        0.1590
     20  H         13.7590  -21.9780   -6.3650 H       1  UNL1        0.1590
     21  O         15.1110  -22.2960   -3.5390 O.2     1  UNL1       -0.2680
     22  N         23.0460  -23.2380  -11.4140 N.pl3   1  UNL1       -0.1800
     23  H         23.2200  -23.4660  -12.3960 H       1  UNL1        0.1460
     24  S         24.3920  -22.3040  -10.8980 S.O2    1  UNL1        0.2460
     25  O         25.3990  -23.1660  -10.3190 O.2     1  UNL1       -0.2060
     26  O         23.8120  -21.2120  -10.1420 O.2     1  UNL1       -0.2060
     27  C         25.0230  -21.6900  -12.4540 C.2     1  UNL1        0.0810
     28  C         25.9320  -20.6190  -12.5620 C.2     1  UNL1       -0.0390
     29  C         26.3400  -20.2220  -13.8490 C.2     1  UNL1        0.0090
     30  C         26.5040  -19.8750  -11.3890 C.3     1  UNL1        0.0500
     31  C         25.8760  -20.8770  -14.9940 C.2     1  UNL1        0.0070
     32  C         24.9880  -21.9470  -14.8840 C.2     1  UNL1       -0.0600
     33  C         24.5250  -22.6920  -16.1000 C.3     1  UNL1        0.0480
     34  C         24.5760  -22.3540  -13.6100 C.2     1  UNL1        0.0320
@<TRIPOS>BOND
     1    33    32    1
     2    31    32    2
     3    31    29    1
     4    32    34    1
     5    29    28    2
     6    34    27    2
     7    28    27    1
     8    28    30    1
     9    27    24    1
    10    23    22    1
    11     2     3    1
    12     2     1    2
    13     3     4    2
    14    22     1    1
    15    22    24    1
    16     1     6    1
    17     4     5    1
    18    24    25    2
    19    24    26    2
    20     6     5    2
    21     6     7    1
    22     8     7    2
    23     7     9    1
    24     9    10    1
    25    10    11    1
    26    16    11    2
    27    16    15    1
    28    11    12    1
    29    15    14    2
    30    12    13    2
    31    20    18    1
    32    14    13    1
    33    14    17    1
    34    18    19    1
    35    18    17   am
    36    17    21    2
