@<TRIPOS>MOLECULE
1856_out_ligand_01.pdbqt
 37 40 0 0 0
SMALL
GASTEIGER

@<TRIPOS>ATOM
      1  N         22.2070  -22.6880  -10.5670 N.am    1  UNL1       -0.3210
      2  C         23.1910  -21.8520  -10.0540 C.2     1  UNL1        0.2790
      3  O         22.9990  -21.0310   -9.1610 O.2     1  UNL1       -0.2650
      4  H         22.4330  -23.1740  -11.4220 H       1  UNL1        0.1690
      5  C         20.8870  -22.8490  -10.0960 C.2     1  UNL1        0.0350
      6  C         20.6940  -23.7370   -9.0260 C.2     1  UNL1        0.0310
      7  C         19.4170  -23.9540   -8.5000 C.2     1  UNL1        0.0270
      8  C         18.3260  -23.2730   -9.0430 C.2     1  UNL1        0.0800
      9  C         18.5080  -22.3570  -10.0820 C.2     1  UNL1        0.0270
     10  C         19.7870  -22.1560  -10.6130 C.2     1  UNL1        0.0310
     11  S         16.6990  -23.5260   -8.3700 S.O2    1  UNL1        0.2630
     12  O         16.7780  -24.6520   -7.4620 O.2     1  UNL1       -0.2000
     13  O         15.7550  -23.5190   -9.4670 O.2     1  UNL1       -0.2000
     14  N         16.4540  -22.1660   -7.4060 N.pl3   1  UNL1       -0.2800
     15  H         15.8560  -21.4770   -7.8550 H       1  UNL1        0.1790
     16  C         16.3950  -22.2880   -5.9860 C.2     1  UNL1        0.0480
     17  C         15.1990  -22.6690   -5.3700 C.2     1  UNL1        0.0300
     18  C         15.1250  -22.7890   -3.9830 C.2     1  UNL1        0.0020
     19  C         16.2520  -22.5360   -3.2040 C.2     1  UNL1        0.0010
     20  C         17.4500  -22.1640   -3.8130 C.2     1  UNL1        0.0090
     21  C         17.5390  -22.0320   -5.2080 C.2     1  UNL1       -0.0350
     22  C         18.8610  -21.6570   -5.8140 C.3     1  UNL1        0.0500
     23  C         24.4860  -22.0070  -10.7020 C.2     1  UNL1        0.1430
     24  C         25.4760  -22.9770  -10.6430 C.2     1  UNL1        0.0450
     25  C         26.5310  -22.5430  -11.4850 C.2     1  UNL1        0.0380
     26  C         26.1320  -21.3360  -12.0160 C.2     1  UNL1        0.0780
     27  O         24.8920  -21.0150  -11.5530 O.2     1  UNL1       -0.3070
     28  C         26.7660  -20.3680  -12.9470 C.3     1  UNL1        0.2400
     29  O         25.7340  -19.7780  -13.7370 O.2     1  UNL1       -0.3430
     30  C         25.5880  -20.2140  -15.0290 C.2     1  UNL1        0.0920
     31  C         25.0010  -21.4380  -15.3760 C.2     1  UNL1        0.0620
     32  C         24.8700  -21.7950  -16.7210 C.2     1  UNL1        0.0360
     33 CL         24.1720  -23.3120  -17.1340 Cl      1  UNL1       -0.0840
     34  C         25.2970  -20.9380  -17.7320 C.2     1  UNL1        0.0260
     35  C         25.8590  -19.7030  -17.3960 C.2     1  UNL1        0.0280
     36  C         25.9990  -19.3410  -16.0530 C.2     1  UNL1        0.0670
     37 CL         26.6960  -17.8030  -15.6980 Cl      1  UNL1       -0.0810
@<TRIPOS>BOND
     1    34    35    2
     2    34    32    1
     3    35    36    1
     4    33    32    1
     5    32    31    2
     6    36    37    1
     7    36    30    2
     8    31    30    1
     9    30    29    1
    10    29    28    1
    11    28    26    1
    12    26    27    1
    13    26    25    2
    14    27    23    1
    15    25    24    1
    16     4     1    1
    17    23    24    2
    18    23     2    1
    19    10     5    2
    20    10     9    1
    21     1     5    1
    22     1     2   am
    23     5     6    1
    24     9     8    2
    25     2     3    2
    26    13    11    2
    27     8     7    1
    28     8    11    1
    29     6     7    2
    30    11    12    2
    31    11    14    1
    32    15    14    1
    33    14    16    1
    34    16    17    2
    35    16    21    1
    36    22    21    1
    37    17    18    1
    38    21    20    2
    39    18    19    2
    40    20    19    1
