@<TRIPOS>MOLECULE
18576_out_ligand_01.pdbqt
 34 37 0 0 0
SMALL
GASTEIGER

@<TRIPOS>ATOM
      1  N         22.8440  -23.3260   -9.7320 N.am    1  UNL1       -0.3550
      2  C         22.2820  -22.4710   -8.8090 C.2     1  UNL1        0.2720
      3  O         22.9350  -21.7890   -8.0270 O.2     1  UNL1       -0.2660
      4  H         22.1730  -23.6540  -10.4280 H       1  UNL1        0.1620
      5  C         20.8110  -22.4390   -8.8940 C.ar    1  UNL1        0.1530
      6  N         20.0510  -22.9440   -7.9050 N.ar    1  UNL1       -0.1610
      7  N         18.7550  -22.7680   -8.2910 N.ar    1  UNL1       -0.2370
      8  C         18.7020  -22.2160   -9.5610 C.ar    1  UNL1        0.0450
      9  C         20.0060  -21.9620   -9.9460 C.ar    1  UNL1        0.0030
     10  C         17.5150  -21.9410  -10.4200 C.3     1  UNL1        0.0600
     11  C         20.3940  -21.3700  -11.2590 C.3     1  UNL1        0.0430
     12  C         19.1730  -20.7730  -11.9760 C.3     1  UNL1        0.0050
     13  C         17.9470  -21.6950  -11.8800 C.3     1  UNL1        0.0060
     14  C         17.7180  -23.1600   -7.3830 C.2     1  UNL1        0.0580
     15  C         16.6870  -24.0380   -7.7380 C.2     1  UNL1        0.0340
     16  C         15.7050  -24.3920   -6.8040 C.2     1  UNL1        0.0440
     17  C         15.7440  -23.8650   -5.5180 C.2     1  UNL1        0.1160
     18  F         14.7930  -24.2040   -4.6380 F       1  UNL1       -0.2060
     19  C         16.7430  -22.9800   -5.1470 C.2     1  UNL1        0.0440
     20  C         17.7300  -22.6300   -6.0730 C.2     1  UNL1        0.0340
     21  C         24.2460  -23.2690  -10.0740 C.3     1  UNL1        0.1270
     22  C         24.6040  -22.0120  -10.8700 C.3     1  UNL1        0.0580
     23  C         24.5900  -22.2310  -12.3680 C.2     1  UNL1       -0.0570
     24  C         23.7400  -21.4690  -13.1890 C.2     1  UNL1        0.0090
     25  C         23.7470  -21.6430  -14.5720 C.2     1  UNL1        0.0250
     26  C         24.6050  -22.5870  -15.1400 C.2     1  UNL1        0.0740
     27  C         25.4650  -23.3460  -14.3420 C.2     1  UNL1        0.0250
     28  C         25.4520  -23.1660  -12.9560 C.2     1  UNL1        0.0090
     29  S         24.6040  -22.8010  -16.9010 S.O2    1  UNL1        0.2390
     30  O         23.3550  -23.4170  -17.2920 O.2     1  UNL1       -0.2060
     31  O         25.8910  -23.3250  -17.2950 O.2     1  UNL1       -0.2060
     32  N         24.4990  -21.2030  -17.4320 N.3     1  UNL1       -0.2250
     33  H         23.5940  -21.0740  -17.8960 H       1  UNL1        0.1360
     34  H         24.6370  -20.5260  -16.6820 H       1  UNL1        0.1360
@<TRIPOS>BOND
     1    33    32    1
     2    32    29    1
     3    32    34    1
     4    31    29    2
     5    30    29    2
     6    29    26    1
     7    26    25    2
     8    26    27    1
     9    25    24    1
    10    27    28    2
    11    24    23    2
    12    28    23    1
    13    23    22    1
    14    12    13    1
    15    12    11    1
    16    13    10    1
    17    11     9    1
    18    22    21    1
    19     4     1    1
    20    10     8    1
    21    21     1    1
    22     9     8   ar
    23     9     5   ar
    24     1     2   am
    25     8     7   ar
    26     5     2    1
    27     5     6   ar
    28     2     3    2
    29     7     6   ar
    30     7    14    1
    31    15    14    2
    32    15    16    1
    33    14    20    1
    34    16    17    2
    35    20    19    2
    36    17    19    1
    37    17    18    1
