@<TRIPOS>MOLECULE
18580_out_ligand_01.pdbqt
 31 33 0 0 0
SMALL
GASTEIGER

@<TRIPOS>ATOM
      1  N         21.4060  -22.2820   -9.8850 N.am    1  UNL1       -0.3230
      2  C         21.0320  -23.3990   -9.1610 C.2     1  UNL1        0.2560
      3  O         21.4470  -24.5420   -9.3090 O.2     1  UNL1       -0.2670
      4  H         21.0790  -21.3860   -9.5470 H       1  UNL1        0.1690
      5  C         22.2710  -22.2350  -10.9970 C.2     1  UNL1        0.0360
      6  C         21.9140  -21.7310  -12.2440 C.2     1  UNL1        0.0300
      7  C         22.8390  -21.7120  -13.2940 C.2     1  UNL1        0.0110
      8  C         24.1520  -22.1940  -13.1340 C.2     1  UNL1       -0.0350
      9  C         24.5070  -22.7000  -11.8710 C.2     1  UNL1        0.0820
     10  C         23.5730  -22.7130  -10.8170 C.2     1  UNL1        0.0540
     11  C         25.0620  -22.1390  -14.3370 C.3     1  UNL1        0.0350
     12  C         24.5590  -21.1700  -15.4000 C.3     1  UNL1        0.0100
     13  S         26.1300  -23.3240  -11.5000 S.O2    1  UNL1        0.2390
     14  O         27.0460  -22.2110  -11.3760 O.2     1  UNL1       -0.2060
     15  O         26.4140  -24.4500  -12.3560 O.2     1  UNL1       -0.2060
     16  N         25.9730  -23.9170   -9.9390 N.3     1  UNL1       -0.2250
     17  H         25.3400  -23.3200   -9.4060 H       1  UNL1        0.1360
     18  H         26.8940  -24.0210   -9.5120 H       1  UNL1        0.1360
     19  C         20.0540  -23.1390   -8.0650 C.2     1  UNL1        0.0330
     20  C         18.9040  -23.9500   -7.9900 C.2     1  UNL1        0.0190
     21  C         17.9450  -23.7450   -6.9920 C.2     1  UNL1        0.0320
     22  C         18.1630  -22.7420   -6.0650 C.2     1  UNL1        0.0510
     23  C         19.2740  -21.9020   -6.1680 C.2     1  UNL1       -0.0280
     24  N         17.3230  -22.2960   -5.0040 N.pl3   1  UNL1       -0.2750
     25  C         20.2310  -22.0850   -7.1580 C.2     1  UNL1        0.0260
     26  C         19.2110  -20.7970   -5.1590 C.3     1  UNL1        0.0620
     27  C         18.0490  -21.2340   -4.2500 C.3     1  UNL1        0.1460
     28  S         16.3290  -23.3460   -4.1460 S.O2    1  UNL1        0.2290
     29  C         15.1780  -23.9020   -5.3910 C.3     1  UNL1        0.1860
     30  O         15.5780  -22.6070   -3.1540 O.2     1  UNL1       -0.2060
     31  O         17.1330  -24.4890   -3.7630 O.2     1  UNL1       -0.2060
@<TRIPOS>BOND
     1    12    11    1
     2    11     8    1
     3     7     8    2
     4     7     6    1
     5     8     9    1
     6    15    13    2
     7     6     5    2
     8     9    13    1
     9     9    10    2
    10    13    14    2
    11    13    16    1
    12     5    10    1
    13     5     1    1
    14    16    18    1
    15    16    17    1
    16     1     4    1
    17     1     2   am
    18     3     2    2
    19     2    19    1
    20    19    20    2
    21    19    25    1
    22    20    21    1
    23    25    23    2
    24    21    22    2
    25    23    22    1
    26    23    26    1
    27    22    24    1
    28    29    28    1
    29    26    27    1
    30    24    27    1
    31    24    28    1
    32    28    31    2
    33    28    30    2
