@<TRIPOS>MOLECULE
18581_out_ligand_01.pdbqt
 33 36 0 0 0
SMALL
GASTEIGER

@<TRIPOS>ATOM
      1  N         23.3650  -22.6770  -11.0970 N.am    1  UNL1       -0.3470
      2  C         22.8900  -21.8430  -10.1020 C.2     1  UNL1        0.2730
      3  O         23.6140  -21.0240   -9.5410 O.2     1  UNL1       -0.2660
      4  H         22.6990  -23.1790  -11.6620 H       1  UNL1        0.1630
      5  C         21.4540  -22.0040   -9.7930 C.ar    1  UNL1        0.1530
      6  N         21.0450  -22.4680   -8.5910 N.ar    1  UNL1       -0.1610
      7  N         19.6800  -22.4980   -8.6150 N.ar    1  UNL1       -0.2370
      8  C         19.2400  -22.0840   -9.8390 C.ar    1  UNL1        0.0450
      9  C         20.3290  -21.7550  -10.5950 C.ar    1  UNL1        0.0030
     10  C         17.9510  -21.9320  -10.5360 C.3     1  UNL1        0.0600
     11  C         19.9460  -21.3050  -11.9450 C.3     1  UNL1        0.0430
     12  C         18.4390  -21.7200  -12.0090 C.3     1  UNL1        0.0110
     13  C         18.9520  -22.9130   -7.4640 C.2     1  UNL1        0.0580
     14  C         18.8560  -22.0360   -6.3660 C.2     1  UNL1        0.0340
     15  C         18.1510  -22.4100   -5.2190 C.2     1  UNL1        0.0440
     16  C         17.5380  -23.6540   -5.1690 C.2     1  UNL1        0.1160
     17  F         16.8610  -24.0130   -4.0710 F       1  UNL1       -0.2060
     18  C         17.6160  -24.5300   -6.2440 C.2     1  UNL1        0.0440
     19  C         18.3210  -24.1630   -7.3950 C.2     1  UNL1        0.0340
     20  C         24.7300  -22.5840  -11.5820 C.3     1  UNL1        0.1140
     21  C         25.6230  -23.6710  -10.9740 C.3     1  UNL1        0.0370
     22  C         24.7280  -22.6330  -13.1020 C.2     1  UNL1       -0.0360
     23  C         24.1470  -21.5810  -13.8310 C.2     1  UNL1        0.0110
     24  C         24.1120  -21.6130  -15.2260 C.2     1  UNL1        0.0250
     25  C         24.6480  -22.7100  -15.9040 C.2     1  UNL1        0.0740
     26  C         25.2320  -23.7650  -15.2010 C.2     1  UNL1        0.0250
     27  C         25.2640  -23.7270  -13.8050 C.2     1  UNL1        0.0110
     28  S         24.6350  -22.7340  -17.6720 S.O2    1  UNL1        0.2390
     29  O         25.9580  -23.0550  -18.1530 O.2     1  UNL1       -0.2060
     30  O         23.4520  -23.4230  -18.1320 O.2     1  UNL1       -0.2060
     31  N         24.3910  -21.1130  -18.0380 N.3     1  UNL1       -0.2250
     32  H         24.0190  -20.6290  -17.2200 H       1  UNL1        0.1360
     33  H         25.2580  -20.7080  -18.3940 H       1  UNL1        0.1360
@<TRIPOS>BOND
     1    33    31    1
     2    29    28    2
     3    30    28    2
     4    31    28    1
     5    31    32    1
     6    28    25    1
     7    25    24    2
     8    25    26    1
     9    24    23    1
    10    26    27    2
    11    23    22    2
    12    27    22    1
    13    22    20    1
    14    12    11    1
    15    12    10    1
    16    11     9    1
    17     4     1    1
    18    20     1    1
    19    20    21    1
    20     1     2   am
    21     9     8   ar
    22     9     5   ar
    23    10     8    1
    24     2     5    1
    25     2     3    2
    26     8     7   ar
    27     5     6   ar
    28     7     6   ar
    29     7    13    1
    30    13    19    2
    31    13    14    1
    32    19    18    1
    33    14    15    2
    34    18    16    2
    35    15    16    1
    36    16    17    1
