@<TRIPOS>MOLECULE
18583_out_ligand_01.pdbqt
 31 33 0 0 0
SMALL
GASTEIGER

@<TRIPOS>ATOM
      1  C         19.9000  -22.3220  -10.6700 C.2     1  UNL1        0.0850
      2  C         18.6800  -21.7570  -11.0970 C.3     1  UNL1        0.1580
      3  N         17.6570  -22.0960  -10.3250 N.3     1  UNL1       -0.1780
      4  N         18.2160  -22.7360   -9.2660 N.pl3   1  UNL1       -0.2280
      5  C         19.5420  -23.0500   -9.5330 C.2     1  UNL1        0.1590
      6  C         21.1730  -22.1030  -11.3620 C.2     1  UNL1        0.2600
      7  N         22.3100  -22.5030  -10.6940 N.am    1  UNL1       -0.3230
      8  H         22.1910  -23.0350   -9.8400 H       1  UNL1        0.1690
      9  O         21.1570  -21.6070  -12.4820 O.2     1  UNL1       -0.2670
     10  C         23.6520  -22.3560  -11.1090 C.2     1  UNL1        0.0350
     11  C         24.5500  -21.4380  -10.5630 C.2     1  UNL1        0.0290
     12  C         25.8630  -21.3540  -11.0400 C.2     1  UNL1        0.0030
     13  C         26.2960  -22.1980  -12.0620 C.2     1  UNL1        0.0170
     14  C         25.4160  -23.1370  -12.6040 C.2     1  UNL1        0.0340
     15  C         24.0960  -23.2050  -12.1320 C.2     1  UNL1        0.0460
     16  C         25.8150  -24.0670  -13.6940 C.2     1  UNL1        0.2490
     17  N         26.9550  -23.7760  -14.3910 N.am    1  UNL1       -0.3660
     18  H         27.6490  -23.1280  -14.0490 H       1  UNL1        0.1590
     19  H         27.2670  -24.4870  -15.0400 H       1  UNL1        0.1590
     20  O         25.1720  -25.0790  -13.9410 O.2     1  UNL1       -0.2680
     21  C         20.3020  -23.9910   -8.7040 C.3     1  UNL1        0.4350
     22  F         21.1010  -24.7850   -9.4670 F       1  UNL1       -0.1650
     23  F         21.1220  -23.3510   -7.8370 F       1  UNL1       -0.1650
     24  F         19.5280  -24.8400   -7.9920 F       1  UNL1       -0.1650
     25  C         17.4040  -22.9310   -8.1030 C.2     1  UNL1        0.0590
     26  C         16.3530  -23.8560   -8.0600 C.2     1  UNL1        0.0330
     27  C         15.6010  -24.0170   -6.8890 C.2     1  UNL1        0.0260
     28  C         15.9040  -23.2710   -5.7520 C.2     1  UNL1        0.0340
     29 CL         14.9770  -23.4800   -4.3190 Cl      1  UNL1       -0.0840
     30  C         16.9630  -22.3700   -5.7690 C.2     1  UNL1        0.0260
     31  C         17.7150  -22.2060   -6.9360 C.2     1  UNL1        0.0330
@<TRIPOS>BOND
     1    19    17    1
     2    17    18    1
     3    17    16   am
     4    20    16    2
     5    16    14    1
     6    14    15    1
     7    14    13    2
     8     9     6    2
     9    15    10    2
    10    13    12    1
    11     6     7   am
    12     6     1    1
    13    10     7    1
    14    10    11    1
    15     2     1    1
    16     2     3    1
    17    12    11    2
    18     7     8    1
    19     1     5    2
    20     3     4    1
    21     5     4    1
    22     5    21    1
    23    22    21    1
    24     4    25    1
    25    21    24    1
    26    21    23    1
    27    25    26    2
    28    25    31    1
    29    26    27    1
    30    31    30    2
    31    27    28    2
    32    30    28    1
    33    28    29    1
