@<TRIPOS>MOLECULE
18597_out_ligand_01.pdbqt
 33 36 0 0 0
SMALL
GASTEIGER

@<TRIPOS>ATOM
      1  C         21.6960  -21.2690  -13.1160 C.3     1  UNL1        0.0500
      2  C         20.9920  -21.7780  -11.8830 C.2     1  UNL1       -0.0350
      3  C         19.6320  -21.4600  -11.7190 C.2     1  UNL1        0.0100
      4  C         18.9280  -21.8920  -10.5970 C.2     1  UNL1        0.0180
      5  C         19.5820  -22.6520   -9.6260 C.2     1  UNL1        0.0340
      6  C         20.9410  -22.9610   -9.7670 C.2     1  UNL1        0.0470
      7  C         21.6570  -22.5370  -10.8930 C.2     1  UNL1        0.0410
      8  N         23.0230  -22.8390  -11.0830 N.am    1  UNL1       -0.3240
      9  C         24.1360  -22.1330  -10.6440 C.2     1  UNL1        0.2570
     10  O         24.1310  -21.1210   -9.9520 O.2     1  UNL1       -0.2700
     11  H         23.2360  -23.6400  -11.6700 H       1  UNL1        0.1690
     12  C         25.4640  -22.8210  -11.0630 C.3     1  UNL1        0.1520
     13  C         25.7460  -23.9250  -10.0370 C.3     1  UNL1        0.0570
     14  C         26.6370  -21.8390  -11.1030 C.3     1  UNL1        0.0880
     15  C         26.4850  -20.9240  -12.2850 C.2     1  UNL1       -0.0380
     16  C         27.0230  -19.6320  -12.2710 C.2     1  UNL1        0.0080
     17  C         25.8230  -21.3830  -13.4310 C.2     1  UNL1        0.0450
     18  C         26.8840  -18.8020  -13.3850 C.2     1  UNL1        0.0010
     19  C         26.2180  -19.2600  -14.5210 C.2     1  UNL1        0.0010
     20  C         25.6910  -20.5510  -14.5480 C.2     1  UNL1        0.0180
     21  C         25.2760  -22.7630  -13.4870 C.2     1  UNL1        0.2950
     22  O         24.8180  -23.2410  -14.5160 O.2     1  UNL1       -0.2590
     23  O         25.3180  -23.4860  -12.3360 O.3     1  UNL1       -0.2960
     24  C         18.8600  -23.1240   -8.4120 C.2     1  UNL1        0.2560
     25  O         19.0790  -24.2580   -8.0100 O.2     1  UNL1       -0.2670
     26  N         17.9780  -22.2010   -7.8800 N.am    1  UNL1       -0.3230
     27  H         17.8340  -21.3500   -8.4080 H       1  UNL1        0.1690
     28  C         17.1860  -22.3420   -6.7220 C.2     1  UNL1        0.0350
     29  C         17.6810  -22.2410   -5.4200 C.2     1  UNL1        0.0290
     30  C         16.8270  -22.3880   -4.3230 C.2     1  UNL1        0.0020
     31  C         15.4690  -22.6320   -4.5170 C.2     1  UNL1        0.0000
     32  C         14.9640  -22.7320   -5.8100 C.2     1  UNL1        0.0020
     33  C         15.8180  -22.5850   -6.9060 C.2     1  UNL1        0.0290
@<TRIPOS>BOND
     1    20    19    2
     2    20    17    1
     3    19    18    1
     4    22    21    2
     5    21    17    1
     6    21    23    1
     7    17    15    2
     8    18    16    2
     9     1     2    1
    10    23    12    1
    11    15    16    1
    12    15    14    1
    13     2     3    2
    14     2     7    1
    15     3     4    1
    16    11     8    1
    17    14    12    1
    18     8     7    1
    19     8     9   am
    20    12     9    1
    21    12    13    1
    22     7     6    2
    23     9    10    2
    24     4     5    2
    25     6     5    1
    26     5    24    1
    27    24    25    2
    28    24    26   am
    29    27    26    1
    30    26    28    1
    31    33    28    2
    32    33    32    1
    33    28    29    1
    34    32    31    2
    35    29    30    2
    36    31    30    1
