@<TRIPOS>MOLECULE
18603_out_ligand_01.pdbqt
 35 38 0 0 0
SMALL
GASTEIGER

@<TRIPOS>ATOM
      1  C         19.6840  -22.8350   -9.0700 C.2     1  UNL1        0.0320
      2  C         20.7200  -23.5870   -8.5010 C.2     1  UNL1        0.0190
      3  C         21.9190  -23.7700   -9.1950 C.2     1  UNL1        0.0310
      4  C         22.0830  -23.1980  -10.4550 C.2     1  UNL1        0.0420
      5  C         21.0640  -22.4320  -11.0210 C.2     1  UNL1        0.0310
      6  C         19.8630  -22.2450  -10.3280 C.2     1  UNL1        0.0190
      7  N         23.3220  -23.3500  -11.1320 N.pl3   1  UNL1       -0.2810
      8  H         23.2930  -23.5350  -12.1340 H       1  UNL1        0.1790
      9  S         24.5610  -22.2560  -10.7680 S.O2    1  UNL1        0.2630
     10  O         23.9660  -21.2560   -9.9060 O.2     1  UNL1       -0.2000
     11  O         25.7440  -22.9800  -10.3630 O.2     1  UNL1       -0.2000
     12  C         24.8680  -21.4860  -12.3390 C.2     1  UNL1        0.0820
     13  C         25.7850  -20.4070  -12.4090 C.2     1  UNL1        0.0280
     14  C         26.0610  -19.7850  -13.6310 C.2     1  UNL1        0.0330
     15  C         25.4090  -20.2810  -14.7360 C.ar    1  UNL1        0.0630
     16  N         25.4790  -19.8750  -16.0630 N.ar    1  UNL1       -0.3070
     17  C         24.5170  -21.3510  -14.6630 C.ar    1  UNL1        0.0640
     18  C         24.6320  -20.6880  -16.8300 C.ar    1  UNL1        0.3250
     19  H         26.0360  -19.1300  -16.4490 H       1  UNL1        0.1700
     20  O         24.4460  -20.6150  -18.0310 O.2     1  UNL1       -0.2470
     21  N         24.0390  -21.5990  -15.9440 N.ar    1  UNL1       -0.3060
     22  H         23.3810  -22.3080  -16.2260 H       1  UNL1        0.1700
     23  C         24.2250  -21.9860  -13.4800 C.2     1  UNL1        0.0570
     24  C         18.4270  -22.6520   -8.2880 C.2     1  UNL1        0.2560
     25  N         18.5390  -22.9310   -6.9390 N.am    1  UNL1       -0.3220
     26  H         19.4700  -23.1170   -6.5950 H       1  UNL1        0.1690
     27  O         17.4380  -22.2460   -8.8850 O.2     1  UNL1       -0.2670
     28  C         17.5180  -22.8990   -5.9560 C.2     1  UNL1        0.0410
     29  C         17.6650  -22.0300   -4.8530 C.2     1  UNL1       -0.0350
     30  C         16.6590  -21.9870   -3.8710 C.2     1  UNL1        0.0090
     31  C         18.8600  -21.1310   -4.6830 C.3     1  UNL1        0.0500
     32  C         15.5260  -22.7930   -3.9690 C.2     1  UNL1        0.0070
     33  C         15.3820  -23.6690   -5.0440 C.2     1  UNL1       -0.0600
     34  C         14.1550  -24.5210   -5.1750 C.3     1  UNL1        0.0480
     35  C         16.3760  -23.7060   -6.0340 C.2     1  UNL1        0.0370
@<TRIPOS>BOND
     1    20    18    2
     2    18    16   ar
     3    18    21   ar
     4    19    16    1
     5    22    21    1
     6    16    15   ar
     7    21    17   ar
     8    15    17   ar
     9    15    14    1
    10    17    23    1
    11    14    13    2
    12    23    12    2
    13    13    12    1
    14    12     9    1
    15     8     7    1
    16     7     9    1
    17     7     4    1
    18     5     4    2
    19     5     6    1
    20     9    11    2
    21     9    10    2
    22     4     3    1
    23     6     1    2
    24     3     2    2
    25     1     2    1
    26     1    24    1
    27    27    24    2
    28    24    25   am
    29    25    26    1
    30    25    28    1
    31    35    28    2
    32    35    33    1
    33    28    29    1
    34    34    33    1
    35    33    32    2
    36    29    31    1
    37    29    30    2
    38    32    30    1
