@<TRIPOS>MOLECULE
18623_out_ligand_01.pdbqt
 33 35 0 0 0
SMALL
GASTEIGER

@<TRIPOS>ATOM
      1  N         22.9250  -23.8320   -9.9000 N.pl3   1  UNL1       -0.2890
      2  H         23.3180  -24.7350   -9.6400 H       1  UNL1        0.1280
      3  C         23.9490  -22.8190  -10.1250 C.3     1  UNL1        0.1330
      4  C         24.0340  -22.5240  -11.6070 C.2     1  UNL1       -0.0120
      5  C         22.9330  -21.9410  -12.2570 C.2     1  UNL1        0.0120
      6  C         22.9770  -21.6430  -13.6260 C.2     1  UNL1        0.0180
      7  C         24.1300  -21.9120  -14.3740 C.2     1  UNL1        0.0340
      8  C         25.2340  -22.5020  -13.7540 C.2     1  UNL1        0.0530
      9  C         25.1710  -22.7940  -12.3870 C.2     1  UNL1        0.1110
     10  C         24.2200  -21.6110  -15.8270 C.2     1  UNL1        0.2490
     11  N         24.4210  -20.3110  -16.1950 N.am    1  UNL1       -0.3660
     12  H         24.7420  -19.6030  -15.5510 H       1  UNL1        0.1590
     13  H         24.5990  -20.1540  -17.1800 H       1  UNL1        0.1590
     14  O         24.1480  -22.5020  -16.6630 O.2     1  UNL1       -0.2680
     15  N         26.3460  -23.3790  -11.7800 N.pl3   1  UNL1       -0.1150
     16  O         26.5630  -24.5720  -12.0250 O.2     1  UNL1       -0.5320
     17  O         27.0520  -22.6310  -11.0900 O.2     1  UNL1       -0.5320
     18  C         21.8140  -23.5240   -9.1050 C.2     1  UNL1        0.0080
     19  C         20.7190  -24.3830   -8.9310 C.2     1  UNL1        0.0250
     20  C         19.6670  -24.0530   -8.0670 C.2     1  UNL1        0.0270
     21  C         19.7170  -22.8610   -7.3470 C.2     1  UNL1        0.0790
     22  C         20.8170  -22.0130   -7.4610 C.2     1  UNL1        0.0270
     23  C         21.8590  -22.3550   -8.3270 C.2     1  UNL1        0.0250
     24  S         18.3990  -22.4260   -6.2390 S.O2    1  UNL1        0.2600
     25  O         18.7860  -21.1930   -5.5840 O.2     1  UNL1       -0.2000
     26  O         18.0430  -23.6010   -5.4710 O.2     1  UNL1       -0.2000
     27  N         17.1120  -22.0940   -7.3160 N.3     1  UNL1       -0.3070
     28  C         17.4020  -22.3240   -8.7610 C.3     1  UNL1        0.1350
     29  C         16.1630  -22.5280   -9.6290 C.3     1  UNL1        0.0210
     30  C         15.4350  -23.8670   -9.4410 C.3     1  UNL1        0.0020
     31  C         15.7880  -24.6620   -8.1870 C.3     1  UNL1        0.0020
     32  C         15.4830  -23.9620   -6.8650 C.3     1  UNL1        0.0210
     33  C         15.7670  -22.4660   -6.8200 C.3     1  UNL1        0.1350
@<TRIPOS>BOND
     1    13    11    1
     2    14    10    2
     3    11    10   am
     4    11    12    1
     5    10     7    1
     6     7     8    2
     7     7     6    1
     8     8     9    1
     9     6     5    2
    10     9    15    1
    11     9     4    2
    12     5     4    1
    13    16    15    2
    14    15    17    2
    15     4     3    1
    16     3     1    1
    17     1     2    1
    18     1    18    1
    19    29    30    1
    20    29    28    1
    21    30    31    1
    22    18    19    2
    23    18    23    1
    24    19    20    1
    25    28    27    1
    26    23    22    2
    27    31    32    1
    28    20    21    2
    29    22    21    1
    30    21    24    1
    31    27    33    1
    32    27    24    1
    33    32    33    1
    34    24    25    2
    35    24    26    2
