@<TRIPOS>MOLECULE
18626_out_ligand_01.pdbqt
 33 37 0 0 0
SMALL
GASTEIGER

@<TRIPOS>ATOM
      1  O         22.6150  -24.0510   -9.1620 O.2     1  UNL1       -0.2670
      2  C         21.8960  -23.0620   -9.2260 C.2     1  UNL1        0.2570
      3  N         22.0160  -22.0100  -10.1170 N.am    1  UNL1       -0.3230
      4  H         21.2750  -21.3200  -10.1350 H       1  UNL1        0.1690
      5  C         20.7520  -22.9820   -8.2830 C.2     1  UNL1        0.0510
      6  C         19.7840  -23.9770   -8.3230 C.2     1  UNL1        0.1360
      7  N         18.6950  -24.0120   -7.5090 N.2     1  UNL1       -0.2410
      8  C         18.5480  -23.0230   -6.5910 C.ar    1  UNL1        0.1490
      9  C         19.4900  -22.0100   -6.4790 C.ar    1  UNL1        0.0790
     10  N         17.4170  -23.0400   -5.7340 N.ar    1  UNL1       -0.2780
     11  C         20.6070  -21.9820   -7.3250 C.2     1  UNL1        0.0390
     12  C         19.3070  -20.9780   -5.4580 C.ar    1  UNL1        0.2630
     13  O         20.0990  -20.0490   -5.3510 O.2     1  UNL1       -0.2670
     14  N         18.2170  -21.1210   -4.6490 N.ar    1  UNL1       -0.2740
     15  C         17.2750  -22.1120   -4.7130 C.ar    1  UNL1        0.3310
     16  H         18.0890  -20.4370   -3.9170 H       1  UNL1        0.1730
     17  O         16.3710  -22.1210   -3.8770 O.2     1  UNL1       -0.2460
     18  C         16.4720  -24.1300   -5.8600 C.3     1  UNL1        0.0960
     19  C         15.5360  -24.2410   -7.0420 C.3     1  UNL1        0.0280
     20  C         14.9840  -23.9310   -5.6890 C.3     1  UNL1        0.0280
     21  C         23.0300  -21.8180  -11.0840 C.2     1  UNL1        0.0370
     22  C         24.3870  -21.6500  -10.7680 C.2     1  UNL1        0.0320
     23  C         25.3660  -21.4590  -11.7570 C.2     1  UNL1        0.0420
     24  C         24.9050  -21.4440  -13.0640 C.ar    1  UNL1        0.1060
     25  O         25.6380  -21.2760  -14.2010 O.2     1  UNL1       -0.2860
     26  C         23.5810  -21.6000  -13.4300 C.ar    1  UNL1        0.0950
     27  C         24.7080  -21.3410  -15.2180 C.ar    1  UNL1        0.2560
     28  N         23.4620  -21.5330  -14.7950 N.ar    1  UNL1       -0.2180
     29  C         22.6170  -21.7890  -12.4300 C.2     1  UNL1        0.0640
     30  C         25.2400  -21.1850  -16.6060 C.3     1  UNL1        0.4580
     31  F         25.2430  -22.3630  -17.2900 F       1  UNL1       -0.1630
     32  F         26.5230  -20.7300  -16.6160 F       1  UNL1       -0.1630
     33  F         24.5160  -20.3090  -17.3540 F       1  UNL1       -0.1630
@<TRIPOS>BOND
     1    33    30    1
     2    31    30    1
     3    32    30    1
     4    30    27    1
     5    27    28   ar
     6    27    25   ar
     7    28    26   ar
     8    25    24   ar
     9    26    24   ar
    10    26    29    1
    11    24    23    1
    12    29    21    2
    13    23    22    2
    14    21    22    1
    15    21     3    1
    16     4     3    1
    17     3     2   am
    18     2     1    2
    19     2     5    1
    20     6     5    2
    21     6     7    1
    22     5    11    1
    23     7     8    2
    24    11     9    2
    25    19    18    1
    26    19    20    1
    27     8     9   ar
    28     8    10   ar
    29     9    12   ar
    30    18    10    1
    31    18    20    1
    32    10    15   ar
    33    12    13    2
    34    12    14   ar
    35    15    14   ar
    36    15    17    2
    37    14    16    1
