@<TRIPOS>MOLECULE
18647_out_ligand_01.pdbqt
 27 30 0 0 0
SMALL
GASTEIGER

@<TRIPOS>ATOM
      1  N         15.7650  -22.8840   -9.2900 N.1     1  UNL1       -0.1910
      2  C         15.9450  -22.7860   -8.1480 C.1     1  UNL1        0.1000
      3  C         16.1240  -22.6670   -6.7280 C.2     1  UNL1        0.0550
      4  C         14.9890  -22.4400   -5.9320 C.2     1  UNL1        0.0230
      5  C         15.1090  -22.3060   -4.5490 C.2     1  UNL1        0.0020
      6  C         16.3630  -22.3970   -3.9510 C.2     1  UNL1        0.0010
      7  C         17.4960  -22.6220   -4.7350 C.2     1  UNL1        0.0140
      8  C         17.3990  -22.7630   -6.1320 C.2     1  UNL1       -0.0050
      9  C         18.6230  -23.0010   -6.9130 C.2     1  UNL1       -0.0240
     10  C         19.6600  -22.0570   -6.9360 C.2     1  UNL1        0.0130
     11  C         20.8190  -22.2860   -7.6820 C.2     1  UNL1        0.0090
     12  C         20.9700  -23.4660   -8.4230 C.2     1  UNL1       -0.0480
     13  C         19.9300  -24.4050   -8.4130 C.2     1  UNL1        0.0090
     14  C         18.7720  -24.1750   -7.6660 C.2     1  UNL1        0.0130
     15  C         22.2160  -23.7080   -9.2370 C.3     1  UNL1        0.1210
     16  S         23.1990  -22.1890   -9.4040 S.3     1  UNL1       -0.0780
     17  C         23.0300  -21.9030  -11.1070 C.ar    1  UNL1        0.2310
     18  N         21.8990  -21.6360  -11.7240 N.ar    1  UNL1       -0.1140
     19  N         22.2060  -21.4780  -13.0590 N.ar    1  UNL1       -0.1190
     20  C         23.5080  -21.6590  -13.1740 C.ar    1  UNL1        0.2200
     21  O         24.0960  -21.9330  -11.9650 O.2     1  UNL1       -0.2620
     22  C         24.2300  -21.5810  -14.4000 C.2     1  UNL1        0.0870
     23  C         25.3130  -22.3140  -14.8460 C.2     1  UNL1        0.0350
     24  C         25.6520  -21.8400  -16.1370 C.2     1  UNL1        0.0190
     25  C         24.7690  -20.8300  -16.4460 C.2     1  UNL1        0.0880
     26  N         23.9100  -20.6790  -15.3870 N.pl3   1  UNL1       -0.3620
     27  H         23.1550  -20.0080  -15.3340 H       1  UNL1        0.1650
@<TRIPOS>BOND
     1    25    24    2
     2    25    26    1
     3    24    23    1
     4    26    27    1
     5    26    22    1
     6    23    22    2
     7    22    20    1
     8    20    19   ar
     9    20    21   ar
    10    19    18   ar
    11    21    17   ar
    12    18    17   ar
    13    17    16    1
    14    16    15    1
    15     1     2    3
    16    15    12    1
    17    12    13    2
    18    12    11    1
    19    13    14    1
    20     2     3    1
    21    11    10    2
    22    14     9    2
    23    10     9    1
    24     9     8    1
    25     3     8    2
    26     3     4    1
    27     8     7    1
    28     4     5    2
    29     7     6    2
    30     5     6    1
