@<TRIPOS>MOLECULE
18645_out_ligand_01.pdbqt
 31 33 0 0 0
SMALL
GASTEIGER

@<TRIPOS>ATOM
      1  N         21.8820  -23.2670  -10.5670 N.pl3   1  UNL1       -0.1790
      2  H         22.1910  -23.8030  -11.3790 H       1  UNL1        0.1460
      3  C         20.7020  -22.4850  -10.7820 C.2     1  UNL1        0.0560
      4  C         20.6520  -21.5660  -11.8280 C.2     1  UNL1        0.0270
      5  C         19.4700  -20.8690  -12.0850 C.2     1  UNL1        0.0020
      6  C         18.3370  -21.0970  -11.3030 C.2     1  UNL1        0.0030
      7  C         18.3810  -22.0170  -10.2540 C.2     1  UNL1        0.0390
      8  C         19.5700  -22.7000   -9.9820 C.2     1  UNL1        0.0980
      9  O         19.6550  -23.6670   -9.0020 O.2     1  UNL1       -0.3090
     10  C         19.1300  -23.3630   -7.7680 C.2     1  UNL1        0.0760
     11  C         19.5520  -22.1730   -7.1760 C.2     1  UNL1        0.0380
     12  C         19.0300  -21.7890   -5.9400 C.2     1  UNL1        0.0090
     13  C         18.0790  -22.5890   -5.2920 C.2     1  UNL1       -0.0620
     14  C         17.4930  -22.1580   -3.9800 C.3     1  UNL1        0.0480
     15  C         17.6350  -23.7630   -5.9150 C.2     1  UNL1        0.0090
     16  C         18.1570  -24.1490   -7.1510 C.2     1  UNL1        0.0380
     17  S         23.2000  -22.5120   -9.8200 S.O2    1  UNL1        0.2460
     18  O         23.7550  -23.4750   -8.8930 O.2     1  UNL1       -0.2060
     19  O         22.8200  -21.1860   -9.3810 O.2     1  UNL1       -0.2060
     20  C         24.3720  -22.3180  -11.1480 C.2     1  UNL1        0.0760
     21  C         25.7070  -22.6900  -10.9500 C.2     1  UNL1        0.0250
     22  C         26.6260  -22.5440  -11.9910 C.2     1  UNL1        0.0030
     23  C         26.2170  -22.0200  -13.2180 C.2     1  UNL1        0.0250
     24  C         24.8850  -21.6270  -13.3940 C.2     1  UNL1        0.0750
     25  C         23.9540  -21.7680  -12.3630 C.2     1  UNL1        0.0490
     26  S         24.3600  -20.9860  -14.9630 S.O2    1  UNL1        0.2390
     27  O         23.9610  -22.0960  -15.7960 O.2     1  UNL1       -0.2060
     28  O         25.3160  -19.9960  -15.3950 O.2     1  UNL1       -0.2060
     29  N         22.9410  -20.1870  -14.5420 N.3     1  UNL1       -0.2250
     30  H         22.2560  -20.3090  -15.2910 H       1  UNL1        0.1360
     31  H         22.5670  -20.4650  -13.6360 H       1  UNL1        0.1360
@<TRIPOS>BOND
     1    27    26    2
     2    28    26    2
     3    30    29    1
     4    26    29    1
     5    26    24    1
     6    29    31    1
     7    24    23    2
     8    24    25    1
     9    23    22    1
    10    25    20    2
    11     5     4    1
    12     5     6    2
    13    22    21    2
    14     4     3    2
    15     2     1    1
    16     6     7    1
    17    20    21    1
    18    20    17    1
    19     3     1    1
    20     3     8    1
    21     1    17    1
    22     7     8    2
    23     8     9    1
    24    17    19    2
    25    17    18    2
    26     9    10    1
    27    10    11    2
    28    10    16    1
    29    11    12    1
    30    16    15    2
    31    12    13    2
    32    15    13    1
    33    13    14    1
