@<TRIPOS>MOLECULE
18672_out_ligand_01.pdbqt
 31 33 0 0 0
SMALL
GASTEIGER

@<TRIPOS>ATOM
      1  S         26.0830  -22.0480  -12.8410 S.3     1  UNL1       -0.0760
      2  C         25.7300  -23.0610  -11.3630 C.3     1  UNL1        0.1430
      3  C         26.9660  -23.6400  -10.6860 C.3     1  UNL1        0.0310
      4  C         24.7410  -22.3570  -10.4240 C.2     1  UNL1        0.2360
      5  O         24.8020  -21.1350  -10.2810 O.2     1  UNL1       -0.2720
      6  N         23.8390  -23.1790   -9.7800 N.am    1  UNL1       -0.3230
      7  H         24.0160  -24.1880   -9.8110 H       1  UNL1        0.1690
      8  C         22.7830  -22.8010   -8.9180 C.2     1  UNL1        0.0770
      9  C         22.7460  -21.6010   -8.2000 C.2     1  UNL1        0.0360
     10  C         21.6580  -21.3070   -7.3680 C.2     1  UNL1        0.0480
     11  C         20.6050  -22.2090   -7.2600 C.2     1  UNL1        0.1580
     12  F         19.5690  -21.9150   -6.4620 F       1  UNL1       -0.2030
     13  C         20.6220  -23.3970   -7.9730 C.2     1  UNL1        0.1950
     14  F         19.5980  -24.2580   -7.8730 F       1  UNL1       -0.1990
     15  C         21.7020  -23.6870   -8.7970 C.2     1  UNL1        0.1840
     16  F         21.7030  -24.8290   -9.5010 F       1  UNL1       -0.2000
     17  C         24.5310  -21.5500  -13.3730 C.ar    1  UNL1        0.1900
     18  N         24.2080  -20.8660  -14.4370 N.ar    1  UNL1       -0.1220
     19  N         22.8430  -20.7010  -14.4150 N.ar    1  UNL1       -0.1300
     20  C         22.3640  -21.2910  -13.3350 C.ar    1  UNL1        0.1510
     21  N         23.4160  -21.8540  -12.6570 N.ar    1  UNL1       -0.3170
     22  H         23.3920  -22.3870  -11.8030 H       1  UNL1        0.1690
     23  C         21.0250  -21.3970  -12.8910 C.2     1  UNL1        0.0530
     24  C         20.6490  -21.5760  -11.6140 C.2     1  UNL1        0.0150
     25  C         19.2400  -21.6690  -11.2020 C.2     1  UNL1       -0.0360
     26  C         18.7810  -22.8600  -10.6200 C.2     1  UNL1        0.0140
     27  C         17.4420  -22.9940  -10.2440 C.2     1  UNL1        0.0430
     28  C         16.5600  -21.9430  -10.4600 C.2     1  UNL1        0.1160
     29  F         15.2770  -22.0730  -10.1020 F       1  UNL1       -0.2060
     30  C         16.9910  -20.7600  -11.0480 C.2     1  UNL1        0.0430
     31  C         18.3300  -20.6230  -11.4240 C.2     1  UNL1        0.0140
@<TRIPOS>BOND
     1    18    19   ar
     2    18    17   ar
     3    19    20   ar
     4    17     1    1
     5    17    21   ar
     6    20    23    1
     7    20    21   ar
     8    23    24    2
     9     1     2    1
    10    21    22    1
    11    24    25    1
    12    31    25    2
    13    31    30    1
    14     2     3    1
    15     2     4    1
    16    25    26    1
    17    30    28    2
    18    26    27    2
    19    28    27    1
    20    28    29    1
    21     4     5    2
    22     4     6   am
    23     7     6    1
    24     6     8    1
    25    16    15    1
    26     8    15    2
    27     8     9    1
    28    15    13    1
    29     9    10    2
    30    13    14    1
    31    13    11    2
    32    10    11    1
    33    11    12    1
