@<TRIPOS>MOLECULE
18684_out_ligand_01.pdbqt
 36 39 0 0 0
SMALL
GASTEIGER

@<TRIPOS>ATOM
      1  C         17.0140  -21.0100  -11.0350 C.3     1  UNL1        0.0500
      2  C         18.4130  -21.5420  -10.9160 C.2     1  UNL1       -0.0390
      3  C         19.3850  -21.0520  -11.8050 C.2     1  UNL1        0.0100
      4  C         20.7110  -21.5000  -11.7610 C.2     1  UNL1        0.0300
      5  C         21.1090  -22.4480  -10.8220 C.2     1  UNL1        0.0360
      6  C         20.1570  -22.9340   -9.9220 C.2     1  UNL1        0.0540
      7  C         18.8180  -22.4950   -9.9690 C.2     1  UNL1        0.0830
      8  N         22.4180  -22.9590  -10.7150 N.am    1  UNL1       -0.3270
      9  C         23.5270  -22.3320  -10.1710 C.2     1  UNL1        0.2230
     10  O         23.5620  -21.1980   -9.7020 O.2     1  UNL1       -0.2730
     11  H         22.5580  -23.8960  -11.0740 H       1  UNL1        0.1690
     12  C         24.7800  -23.1790  -10.2790 C.3     1  UNL1        0.1230
     13  C         25.9910  -22.3550  -10.7020 C.3     1  UNL1        0.1430
     14  N         25.8820  -21.8800  -12.0600 N.ar    1  UNL1       -0.2970
     15  C         25.9250  -20.5180  -12.4380 C.ar    1  UNL1        0.3290
     16  O         26.0640  -19.5650  -11.6900 O.2     1  UNL1       -0.2460
     17  N         25.7560  -20.4900  -13.8350 N.ar    1  UNL1       -0.3020
     18  C         25.7330  -19.3110  -14.6520 C.3     1  UNL1        0.1610
     19  C         25.5950  -21.8010  -14.3020 C.ar    1  UNL1        0.0650
     20  C         25.3910  -22.2670  -15.5830 C.2     1  UNL1        0.0320
     21  C         25.6660  -22.6620  -13.2030 C.ar    1  UNL1        0.0660
     22  C         25.2510  -23.6480  -15.7450 C.2     1  UNL1        0.0020
     23  C         25.3180  -24.5180  -14.6380 C.2     1  UNL1        0.0020
     24  C         25.5290  -24.0260  -13.3460 C.2     1  UNL1        0.0320
     25  S         17.7210  -23.2250   -8.7620 S.O2    1  UNL1        0.2460
     26  O         16.5080  -23.5850   -9.4700 O.2     1  UNL1       -0.2060
     27  O         18.4180  -24.1930   -7.9490 O.2     1  UNL1       -0.2060
     28  N         17.3110  -21.8830   -7.8030 N.pl3   1  UNL1       -0.1780
     29  H         16.7470  -21.2440   -8.3690 H       1  UNL1        0.1460
     30  C         16.7750  -22.1660   -6.5080 C.2     1  UNL1        0.0610
     31  C         15.4190  -22.4470   -6.3510 C.2     1  UNL1        0.0270
     32  C         14.8990  -22.6590   -5.0720 C.2     1  UNL1        0.0020
     33  C         15.7320  -22.5860   -3.9510 C.2     1  UNL1        0.0030
     34  C         17.0900  -22.3010   -4.1070 C.2     1  UNL1        0.0440
     35  C         17.6010  -22.0890   -5.3820 C.2     1  UNL1        0.1380
     36  F         18.9080  -21.8210   -5.5310 F       1  UNL1       -0.2040
@<TRIPOS>BOND
     1    22    20    1
     2    22    23    2
     3    20    19    2
     4    18    17    1
     5    23    24    1
     6    19    17   ar
     7    19    21   ar
     8    17    15   ar
     9    24    21    2
    10    21    14   ar
    11    15    14   ar
    12    15    16    2
    13    14    13    1
    14     3     4    1
    15     3     2    2
    16     4     5    2
    17    11     8    1
    18     1     2    1
    19     2     7    1
    20     5     8    1
    21     5     6    1
    22     8     9   am
    23    13    12    1
    24    12     9    1
    25     9    10    2
    26     7     6    2
    27     7    25    1
    28    26    25    2
    29    25    27    2
    30    25    28    1
    31    29    28    1
    32    28    30    1
    33    30    31    2
    34    30    35    1
    35    31    32    1
    36    36    35    1
    37    35    34    2
    38    32    33    2
    39    34    33    1
