@<TRIPOS>MOLECULE
18687_out_ligand_01.pdbqt
 35 37 0 0 0
SMALL
GASTEIGER

@<TRIPOS>ATOM
      1  O         24.9800  -20.9730  -10.3220 O.2     1  UNL1       -0.2730
      2  C         24.8330  -22.1870  -10.4310 C.2     1  UNL1        0.2270
      3  N         23.9500  -22.9040   -9.6430 N.am    1  UNL1       -0.3520
      4  H         23.6180  -23.7740  -10.0620 H       1  UNL1        0.1620
      5  C         25.6280  -23.0230  -11.4210 C.3     1  UNL1        0.1850
      6  S         26.0620  -22.0380  -12.8850 S.3     1  UNL1       -0.0810
      7  C         24.5090  -21.5060  -13.3890 C.ar    1  UNL1        0.1900
      8  N         24.1910  -20.8310  -14.4640 N.ar    1  UNL1       -0.1220
      9  N         22.8230  -20.6910  -14.4640 N.ar    1  UNL1       -0.1300
     10  C         22.3420  -21.2580  -13.3710 C.ar    1  UNL1        0.1510
     11  N         23.3930  -21.7960  -12.6710 N.ar    1  UNL1       -0.3170
     12  H         23.3640  -22.3270  -11.8160 H       1  UNL1        0.1690
     13  C         21.0000  -21.3740  -12.9360 C.2     1  UNL1        0.0530
     14  C         20.6240  -21.5750  -11.6630 C.2     1  UNL1        0.0150
     15  C         19.2140  -21.6710  -11.2580 C.2     1  UNL1       -0.0360
     16  C         18.3040  -20.6260  -11.4850 C.2     1  UNL1        0.0140
     17  C         16.9650  -20.7610  -11.1120 C.2     1  UNL1        0.0430
     18  C         16.5330  -21.9430  -10.5230 C.2     1  UNL1        0.1160
     19  F         15.2470  -22.0720  -10.1680 F       1  UNL1       -0.2060
     20  C         17.4130  -22.9950  -10.3030 C.2     1  UNL1        0.0430
     21  C         18.7520  -22.8610  -10.6760 C.2     1  UNL1        0.0140
     22  C         22.9540  -22.1880   -8.8470 C.3     1  UNL1        0.2250
     23  C         21.7140  -23.0110   -8.4610 C.2     1  UNL1        0.2390
     24  O         21.5980  -24.1800   -8.8210 O.2     1  UNL1       -0.2710
     25  N         20.8430  -22.3300   -7.6330 N.am    1  UNL1       -0.3230
     26  H         21.1030  -21.3670   -7.4360 H       1  UNL1        0.1690
     27  C         19.6240  -22.7730   -7.0870 C.2     1  UNL1        0.0770
     28  C         18.9820  -23.9590   -7.4550 C.2     1  UNL1        0.0360
     29  C         17.7670  -24.3160   -6.8570 C.2     1  UNL1        0.0480
     30  C         17.1960  -23.4900   -5.8950 C.2     1  UNL1        0.1580
     31  F         16.0330  -23.8430   -5.3310 F       1  UNL1       -0.2030
     32  C         17.8230  -22.3100   -5.5220 C.2     1  UNL1        0.1950
     33  F         17.2710  -21.5150   -4.5940 F       1  UNL1       -0.1990
     34  C         19.0280  -21.9560   -6.1150 C.2     1  UNL1        0.1840
     35  F         19.6350  -20.8130   -5.7520 F       1  UNL1       -0.2000
@<TRIPOS>BOND
     1     8     9   ar
     2     8     7   ar
     3     9    10   ar
     4     7     6    1
     5     7    11   ar
     6    10    13    1
     7    10    11   ar
     8    13    14    2
     9     6     5    1
    10    11    12    1
    11    14    15    1
    12    16    15    2
    13    16    17    1
    14     5     2    1
    15    15    21    1
    16    17    18    2
    17    21    20    2
    18    18    20    1
    19    18    19    1
    20     2     1    2
    21     2     3   am
    22     4     3    1
    23     3    22    1
    24    22    23    1
    25    24    23    2
    26    23    25   am
    27    25    26    1
    28    25    27    1
    29    28    27    2
    30    28    29    1
    31    27    34    1
    32    29    30    2
    33    34    35    1
    34    34    32    2
    35    30    32    1
    36    30    31    1
    37    32    33    1
