@<TRIPOS>MOLECULE
18695_out_ligand_01.pdbqt
 31 34 0 0 0
SMALL
GASTEIGER

@<TRIPOS>ATOM
      1  S         26.2990  -22.1560  -12.9830 S.3     1  UNL1       -0.0760
      2  C         25.9000  -23.2730  -11.5930 C.3     1  UNL1        0.1430
      3  C         27.1140  -23.8970  -10.9150 C.3     1  UNL1        0.0310
      4  C         24.8860  -22.6400  -10.6310 C.2     1  UNL1        0.2360
      5  O         25.0050  -21.4560  -10.3170 O.2     1  UNL1       -0.2720
      6  N         23.8970  -23.4940  -10.1800 N.am    1  UNL1       -0.3260
      7  H         24.0240  -24.4860  -10.3780 H       1  UNL1        0.1690
      8  C         22.8060  -23.1910   -9.3390 C.2     1  UNL1        0.0350
      9  C         22.8460  -21.9470   -8.6750 C.2     1  UNL1        0.0300
     10  C         21.8250  -21.5540   -7.8020 C.2     1  UNL1        0.0100
     11  C         20.7590  -22.4110   -7.6150 C.2     1  UNL1       -0.0520
     12  C         20.7080  -23.6440   -8.2720 C.2     1  UNL1       -0.0500
     13  C         19.5760  -22.2360   -6.7150 C.3     1  UNL1        0.0390
     14  C         21.7240  -24.0500   -9.1260 C.2     1  UNL1        0.0370
     15  C         19.4830  -24.4070   -7.8750 C.3     1  UNL1        0.0390
     16  C         18.6130  -23.2860   -7.2870 C.3     1  UNL1        0.0090
     17  C         24.7720  -21.6260  -13.5530 C.ar    1  UNL1        0.1900
     18  N         24.4780  -20.9670  -14.6440 N.ar    1  UNL1       -0.1220
     19  N         23.1220  -20.7400  -14.6330 N.ar    1  UNL1       -0.1300
     20  C         22.6150  -21.2930  -13.5460 C.ar    1  UNL1        0.1510
     21  N         23.6420  -21.8580  -12.8340 N.ar    1  UNL1       -0.3170
     22  H         23.5980  -22.3190  -11.9410 H       1  UNL1        0.1690
     23  C         21.2710  -21.3220  -13.0960 C.2     1  UNL1        0.0530
     24  C         20.8980  -21.5320  -11.8230 C.2     1  UNL1        0.0150
     25  C         19.4920  -21.5900  -11.3790 C.2     1  UNL1       -0.0360
     26  C         18.9500  -22.8330  -11.0170 C.2     1  UNL1        0.0140
     27  C         17.6090  -22.9410  -10.6410 C.2     1  UNL1        0.0430
     28  C         16.8060  -21.8080  -10.6330 C.2     1  UNL1        0.1160
     29  F         15.5190  -21.9140  -10.2760 F       1  UNL1       -0.2060
     30  C         17.3170  -20.5700  -10.9970 C.2     1  UNL1        0.0430
     31  C         18.6580  -20.4610  -11.3760 C.2     1  UNL1        0.0140
@<TRIPOS>BOND
     1    18    19   ar
     2    18    17   ar
     3    19    20   ar
     4    17     1    1
     5    17    21   ar
     6    20    23    1
     7    20    21   ar
     8    23    24    2
     9     1     2    1
    10    21    22    1
    11    24    25    1
    12     2     3    1
    13     2     4    1
    14    25    31    2
    15    25    26    1
    16    31    30    1
    17    26    27    2
    18    30    28    2
    19    27    28    1
    20    28    29    1
    21     4     5    2
    22     4     6   am
    23     7     6    1
    24     6     8    1
    25     8    14    2
    26     8     9    1
    27    14    12    1
    28     9    10    2
    29    12    15    1
    30    12    11    2
    31    15    16    1
    32    10    11    1
    33    11    13    1
    34    16    13    1
