@<TRIPOS>MOLECULE
18714_out_ligand_01.pdbqt
 30 33 0 0 0
SMALL
GASTEIGER

@<TRIPOS>ATOM
      1  N         17.3990  -22.5380  -10.8300 N.am    1  UNL1       -0.3570
      2  C         18.1470  -21.4710  -11.2800 C.2     1  UNL1        0.2520
      3  O         17.6810  -20.3680  -11.5390 O.2     1  UNL1       -0.2680
      4  H         17.9050  -23.2890  -10.3720 H       1  UNL1        0.1620
      5  C         15.9970  -22.3770  -10.4920 C.3     1  UNL1        0.1270
      6  C         15.4720  -23.5120   -9.6090 C.3     1  UNL1        0.0580
      7  C         15.9070  -23.3960   -8.1650 C.2     1  UNL1       -0.0570
      8  C         16.7030  -24.3940   -7.5840 C.2     1  UNL1        0.0090
      9  C         17.0860  -24.3050   -6.2440 C.2     1  UNL1        0.0250
     10  C         16.6770  -23.2070   -5.4850 C.2     1  UNL1        0.0740
     11  C         15.8750  -22.2100   -6.0450 C.2     1  UNL1        0.0250
     12  C         15.4950  -22.3050   -7.3850 C.2     1  UNL1        0.0090
     13  S         17.1490  -23.0850   -3.7810 S.O2    1  UNL1        0.2390
     14  O         17.0630  -24.3970   -3.1860 O.2     1  UNL1       -0.2060
     15  O         18.3350  -22.2640   -3.6910 O.2     1  UNL1       -0.2060
     16  N         15.8980  -22.1470   -3.1530 N.3     1  UNL1       -0.2250
     17  H         15.7170  -22.4430   -2.1930 H       1  UNL1        0.1360
     18  H         16.0750  -21.1460   -3.2170 H       1  UNL1        0.1360
     19  C         19.6110  -21.7020  -11.3570 C.2     1  UNL1        0.0430
     20  C         20.3100  -21.0120  -12.3760 C.2     1  UNL1        0.0180
     21  C         21.7010  -21.1210  -12.5010 C.2     1  UNL1        0.0090
     22  C         22.3830  -21.9270  -11.6070 C.2     1  UNL1       -0.0460
     23  C         21.6890  -22.6080  -10.6370 C.2     1  UNL1       -0.0120
     24  C         23.8560  -22.2090  -11.5310 C.2     1  UNL1        0.0440
     25  C         22.5560  -23.3580   -9.8810 C.2     1  UNL1       -0.0460
     26  C         20.3040  -22.5590  -10.4550 C.2     1  UNL1       -0.0090
     27  C         22.0640  -24.1450   -8.8540 C.2     1  UNL1        0.0080
     28  C         23.9760  -23.1850  -10.3330 C.2     1  UNL1        0.0440
     29  C         20.6830  -24.1640   -8.6270 C.2     1  UNL1        0.0010
     30  C         19.8090  -23.3900   -9.4160 C.2     1  UNL1        0.0130
@<TRIPOS>BOND
     1    21    20    1
     2    21    22    2
     3    20    19    2
     4    22    24    1
     5    22    23    1
     6     3     2    2
     7    24    28    2
     8    19     2    1
     9    19    26    1
    10     2     1   am
    11     1     5    1
    12     1     4    1
    13    23    26    2
    14    23    25    1
    15     5     6    1
    16    26    30    1
    17    28    25    1
    18    25    27    2
    19     6     7    1
    20    30    29    2
    21    27    29    1
    22     7     8    2
    23     7    12    1
    24     8     9    1
    25    12    11    2
    26     9    10    2
    27    11    10    1
    28    10    13    1
    29    13    15    2
    30    13    14    2
    31    13    16    1
    32    18    16    1
    33    16    17    1
