@<TRIPOS>MOLECULE
18728_out_ligand_01.pdbqt
 27 29 0 0 0
SMALL
GASTEIGER

@<TRIPOS>ATOM
      1  C         20.2090  -22.3920   -7.8370 C.2     1  UNL1        0.2560
      2  O         21.2660  -22.0360   -7.3290 O.2     1  UNL1       -0.2670
      3  N         19.9400  -22.5260   -9.1870 N.am    1  UNL1       -0.3230
      4  H         18.9770  -22.6940   -9.4480 H       1  UNL1        0.1690
      5  C         19.0570  -22.6780   -6.9350 C.2     1  UNL1        0.0320
      6  C         18.6820  -21.7950   -5.9110 C.2     1  UNL1        0.0180
      7  C         17.5930  -22.0970   -5.0890 C.2     1  UNL1        0.0260
      8  C         16.8790  -23.2830   -5.2940 C.2     1  UNL1        0.0740
      9  C         17.2260  -24.1540   -6.3300 C.2     1  UNL1        0.0260
     10  C         18.3150  -23.8480   -7.1500 C.2     1  UNL1        0.0180
     11  S         15.4790  -23.6530   -4.2770 S.O2    1  UNL1        0.2390
     12  O         15.9070  -24.4520   -3.1530 O.2     1  UNL1       -0.2060
     13  O         14.3670  -24.0270   -5.1200 O.2     1  UNL1       -0.2060
     14  N         15.0960  -22.1410   -3.6560 N.3     1  UNL1       -0.2250
     15  H         15.6790  -21.9480   -2.8410 H       1  UNL1        0.1360
     16  H         14.0950  -22.0930   -3.4620 H       1  UNL1        0.1360
     17  C         20.8430  -22.3610  -10.2580 C.2     1  UNL1        0.0350
     18  C         22.0810  -22.9940  -10.3400 C.2     1  UNL1        0.0320
     19  C         22.9200  -22.7810  -11.4420 C.2     1  UNL1        0.0330
     20  C         22.5260  -21.9300  -12.4830 C.2     1  UNL1        0.0540
     21  C         21.2810  -21.2940  -12.4080 C.2     1  UNL1        0.0330
     22  C         20.4490  -21.5130  -11.3020 C.2     1  UNL1        0.0320
     23  N         23.3890  -21.7280  -13.5900 N.pl3   1  UNL1       -0.2480
     24  C         24.6170  -22.2990  -13.8460 C.2     1  UNL1        0.1350
     25  C         25.0130  -21.7570  -15.0430 C.2     1  UNL1        0.1540
     26  N         24.0600  -20.8940  -15.4890 N.2     1  UNL1       -0.1710
     27  N         23.0750  -20.8810  -14.6020 N.2     1  UNL1        0.0090
@<TRIPOS>BOND
     1    26    25    1
     2    26    27    2
     3    25    24    2
     4    27    23    1
     5    24    23    1
     6    23    20    1
     7    20    21    2
     8    20    19    1
     9    21    22    1
    10    19    18    2
    11    22    17    2
    12    18    17    1
    13    17     3    1
    14     4     3    1
    15     3     1   am
    16     1     2    2
    17     1     5    1
    18    10     5    2
    19    10     9    1
    20     5     6    1
    21     9     8    2
    22     6     7    2
    23     8     7    1
    24     8    11    1
    25    13    11    2
    26    11    14    1
    27    11    12    2
    28    14    16    1
    29    14    15    1
