@<TRIPOS>MOLECULE
18725_out_ligand_01.pdbqt
 34 37 0 0 0
SMALL
GASTEIGER

@<TRIPOS>ATOM
      1  C         20.5410  -22.5560   -7.6350 C.2     1  UNL1        0.0320
      2  C         21.7550  -21.8610   -7.7110 C.2     1  UNL1        0.0190
      3  C         22.7090  -22.2230   -8.6670 C.2     1  UNL1        0.0310
      4  C         22.4470  -23.2700   -9.5500 C.2     1  UNL1        0.0420
      5  C         21.2320  -23.9520   -9.4940 C.2     1  UNL1        0.0310
      6  C         20.2790  -23.5950   -8.5380 C.2     1  UNL1        0.0190
      7  N         23.3900  -23.6090  -10.5560 N.pl3   1  UNL1       -0.2810
      8  H         23.7460  -24.5650  -10.5670 H       1  UNL1        0.1790
      9  S         24.6400  -22.5110  -10.8680 S.O2    1  UNL1        0.2630
     10  O         25.8440  -23.1170  -10.3390 O.2     1  UNL1       -0.2000
     11  O         24.2320  -21.1860  -10.4580 O.2     1  UNL1       -0.2000
     12  C         24.7580  -22.5540  -12.6400 C.2     1  UNL1        0.0820
     13  C         25.2590  -23.7230  -13.2660 C.2     1  UNL1        0.0280
     14  C         25.3790  -23.7880  -14.6590 C.2     1  UNL1        0.0330
     15  C         24.9920  -22.6720  -15.3630 C.ar    1  UNL1        0.0630
     16  N         24.9940  -22.4440  -16.7340 N.ar    1  UNL1       -0.3070
     17  C         24.5100  -21.5210  -14.7380 C.ar    1  UNL1        0.0640
     18  C         24.5150  -21.1480  -16.9790 C.ar    1  UNL1        0.3250
     19  H         25.2900  -23.0750  -17.4620 H       1  UNL1        0.1700
     20  O         24.3820  -20.6160  -18.0650 O.2     1  UNL1       -0.2470
     21  N         24.2160  -20.5880  -15.7270 N.ar    1  UNL1       -0.3060
     22  H         23.8530  -19.6570  -15.6050 H       1  UNL1        0.1700
     23  C         24.3850  -21.4210  -13.3750 C.2     1  UNL1        0.0570
     24  C         19.4880  -22.1970   -6.6420 C.2     1  UNL1        0.2560
     25  O         19.5790  -21.1170   -6.0730 O.2     1  UNL1       -0.2670
     26  N         18.4770  -23.1310   -6.4990 N.am    1  UNL1       -0.3230
     27  H         18.4780  -23.9130   -7.1410 H       1  UNL1        0.1690
     28  C         17.3810  -23.0750   -5.6110 C.2     1  UNL1        0.0360
     29  C         17.3890  -23.6210   -4.3250 C.2     1  UNL1        0.0290
     30  C         16.2600  -23.5300   -3.5040 C.2     1  UNL1        0.0040
     31  C         15.1100  -22.8930   -3.9620 C.2     1  UNL1        0.0240
     32  C         15.0960  -22.3500   -5.2440 C.2     1  UNL1        0.0360
     33 CL         13.6780  -21.5620   -5.8200 Cl      1  UNL1       -0.0840
     34  C         16.2190  -22.4380   -6.0670 C.2     1  UNL1        0.0530
@<TRIPOS>BOND
     1    20    18    2
     2    19    16    1
     3    18    16   ar
     4    18    21   ar
     5    16    15   ar
     6    21    22    1
     7    21    17   ar
     8    15    17   ar
     9    15    14    1
    10    17    23    1
    11    14    13    2
    12    23    12    2
    13    13    12    1
    14    12     9    1
    15     9     7    1
    16     9    11    2
    17     9    10    2
    18     8     7    1
    19     7     4    1
    20     4     5    2
    21     4     3    1
    22     5     6    1
    23     3     2    2
    24     6     1    2
    25     2     1    1
    26     1    24    1
    27    27    26    1
    28    24    26   am
    29    24    25    2
    30    26    28    1
    31    34    28    2
    32    34    32    1
    33    33    32    1
    34    28    29    1
    35    32    31    2
    36    29    30    2
    37    31    30    1
