@<TRIPOS>MOLECULE
1872_out_ligand_01.pdbqt
 32 35 0 0 0
SMALL
GASTEIGER

@<TRIPOS>ATOM
      1  C         19.3320  -22.7300   -9.5220 C.2     1  UNL1        0.1030
      2  C         19.8980  -22.3250  -10.7310 C.2     1  UNL1        0.0510
      3  C         21.2160  -21.8510  -10.7630 C.2     1  UNL1       -0.0320
      4  C         21.9670  -21.7960   -9.5800 C.2     1  UNL1        0.0140
      5  C         21.4100  -22.2250   -8.3740 C.2     1  UNL1        0.0410
      6  C         20.0920  -22.6830   -8.3520 C.2     1  UNL1        0.1120
      7  C         21.8060  -21.4020  -12.0270 C.3     1  UNL1        0.0320
      8  C         22.9280  -21.8590  -12.6180 C.ar    1  UNL1        0.0820
      9  C         23.8200  -22.9410  -12.0780 C.ar    1  UNL1        0.1620
     10  C         23.3010  -21.2270  -13.9460 C.ar    1  UNL1        0.2830
     11  N         23.6290  -23.5120  -10.9240 N.pl3   1  UNL1       -0.2810
     12  N         24.8810  -23.2940  -12.8890 N.ar    1  UNL1       -0.1900
     13  H         24.3790  -24.2090  -10.8130 H       1  UNL1        0.1880
     14  N         25.7870  -24.2860  -12.5440 N.2     1  UNL1       -0.1690
     15  C         25.0850  -22.6630  -14.0890 C.ar    1  UNL1        0.2000
     16  C         26.6600  -24.3950  -13.4960 C.2     1  UNL1        0.1920
     17  S         26.4910  -23.3310  -14.8820 S.3     1  UNL1       -0.0410
     18  N         24.4000  -21.7160  -14.6230 N.ar    1  UNL1       -0.1820
     19  O         22.6370  -20.3030  -14.4060 O.2     1  UNL1       -0.2650
     20  O         18.0660  -23.2500   -9.5110 O.2     1  UNL1       -0.3490
     21  C         17.1230  -22.3090  -10.0350 C.3     1  UNL1        0.1710
     22  C         15.7340  -22.7680   -9.6320 C.3     1  UNL1        0.0340
     23  O         19.5710  -23.1620   -7.1480 O.3     1  UNL1       -0.2720
     24  C         19.1020  -22.1460   -6.3440 C.2     1  UNL1        0.3000
     25  O         19.6150  -21.0640   -6.1000 O.2     1  UNL1       -0.2590
     26  C         17.8840  -22.6180   -5.6620 C.2     1  UNL1        0.0610
     27  C         17.0640  -23.5030   -6.3780 C.2     1  UNL1        0.0190
     28  C         15.8910  -23.9940   -5.8040 C.2     1  UNL1        0.0010
     29  C         15.5360  -23.6070   -4.5130 C.2     1  UNL1        0.0020
     30  C         16.3610  -22.7400   -3.7910 C.2     1  UNL1        0.0250
     31  C         17.5420  -22.2480   -4.3580 C.2     1  UNL1        0.0500
     32 CL         18.5420  -21.2460   -3.3720 Cl      1  UNL1       -0.0830
@<TRIPOS>BOND
     1    17    15    1
     2    17    16    1
     3    18    15   ar
     4    18    10   ar
     5    19    10    2
     6    15    12   ar
     7    10     8   ar
     8    16    14    2
     9    12    14    1
    10    12     9   ar
    11     8     9   ar
    12     8     7    1
    13     9    11    1
    14     7     3    1
    15    11    13    1
    16     3     2    1
    17     3     4    2
    18     2     1    2
    19    21    22    1
    20    21    20    1
    21     4     5    1
    22     1    20    1
    23     1     6    1
    24     5     6    2
    25     6    23    1
    26    23    24    1
    27    27    28    1
    28    27    26    2
    29    24    25    2
    30    24    26    1
    31    28    29    2
    32    26    31    1
    33    29    30    1
    34    31    30    2
    35    31    32    1
