@<TRIPOS>MOLECULE
18726_out_ligand_01.pdbqt
 28 30 0 0 0
SMALL
GASTEIGER

@<TRIPOS>ATOM
      1  C         24.6100  -21.9560  -13.2930 C.ar    1  UNL1        0.1900
      2  N         24.4610  -20.9090  -14.0640 N.ar    1  UNL1       -0.1220
      3  N         23.1320  -20.5580  -14.0150 N.ar    1  UNL1       -0.1300
      4  C         22.5120  -21.3780  -13.1830 C.ar    1  UNL1        0.1510
      5  N         23.4270  -22.2840  -12.7120 N.ar    1  UNL1       -0.3170
      6  H         23.2660  -23.0720  -12.1050 H       1  UNL1        0.1690
      7  S         26.0260  -22.8970  -13.0420 S.3     1  UNL1       -0.0810
      8  C         26.3890  -22.5100  -11.3030 C.3     1  UNL1        0.1850
      9  C         25.1300  -22.0610  -10.5740 C.2     1  UNL1        0.2310
     10  O         24.8450  -20.8690  -10.4910 O.2     1  UNL1       -0.2720
     11  N         24.3940  -23.1130  -10.0540 N.am    1  UNL1       -0.3260
     12  H         24.6860  -24.0490  -10.3380 H       1  UNL1        0.1690
     13  C         23.2060  -23.0490   -9.3020 C.2     1  UNL1        0.0370
     14  C         22.9710  -21.8640   -8.5880 C.2     1  UNL1        0.0290
     15  C         21.8180  -21.7100   -7.8130 C.2     1  UNL1        0.0050
     16  C         20.8910  -22.7450   -7.7430 C.2     1  UNL1        0.0420
     17  C         21.1220  -23.9160   -8.4580 C.2     1  UNL1        0.1180
     18  F         20.2180  -24.9030   -8.4040 F       1  UNL1       -0.2060
     19  C         22.2670  -24.0780   -9.2350 C.2     1  UNL1        0.0710
     20  C         21.1440  -21.4240  -12.8180 C.2     1  UNL1        0.0530
     21  C         20.6920  -21.8110  -11.6140 C.2     1  UNL1        0.0150
     22  C         19.2650  -21.8250  -11.2580 C.2     1  UNL1       -0.0360
     23  C         18.4060  -20.7620  -11.5800 C.2     1  UNL1        0.0140
     24  C         17.0660  -20.7910  -11.1880 C.2     1  UNL1        0.0430
     25  C         16.5870  -21.8740  -10.4610 C.2     1  UNL1        0.1160
     26  F         15.3060  -21.8940  -10.0740 F       1  UNL1       -0.2060
     27  C         17.4220  -22.9300  -10.1200 C.2     1  UNL1        0.0430
     28  C         18.7620  -22.9040  -10.5150 C.2     1  UNL1        0.0140
@<TRIPOS>BOND
     1     2     3   ar
     2     2     1   ar
     3     3     4   ar
     4     1     7    1
     5     1     5   ar
     6     4    20    1
     7     4     5   ar
     8     7     8    1
     9    20    21    2
    10     5     6    1
    11    21    22    1
    12    23    22    2
    13    23    24    1
    14     8     9    1
    15    22    28    1
    16    24    25    2
    17     9    10    2
    18     9    11   am
    19    28    27    2
    20    25    27    1
    21    25    26    1
    22    12    11    1
    23    11    13    1
    24    13    19    2
    25    13    14    1
    26    19    17    1
    27    14    15    2
    28    17    18    1
    29    17    16    2
    30    15    16    1
