@<TRIPOS>MOLECULE
18737_out_ligand_01.pdbqt
 30 32 0 0 0
SMALL
GASTEIGER

@<TRIPOS>ATOM
      1  C         21.6760  -22.5200  -10.0890 C.2     1  UNL1        0.0750
      2  C         20.9560  -21.9400  -11.1350 C.2     1  UNL1        0.0250
      3  C         19.5630  -21.8800  -11.0660 C.2     1  UNL1        0.0090
      4  C         18.8740  -22.3890   -9.9530 C.2     1  UNL1       -0.0460
      5  C         17.3770  -22.2600   -9.9070 C.3     1  UNL1        0.0490
      6  C         19.6170  -22.9960   -8.9200 C.2     1  UNL1        0.0390
      7  C         21.0170  -23.0370   -8.9730 C.2     1  UNL1        0.0420
      8  S         23.4500  -22.5590  -10.1710 S.O2    1  UNL1        0.2450
      9  O         23.9200  -23.5800   -9.2600 O.2     1  UNL1       -0.2060
     10  O         23.9160  -21.1910  -10.1040 O.2     1  UNL1       -0.2060
     11  N         23.6620  -23.1880  -11.7460 N.pl3   1  UNL1       -0.1810
     12  H         23.8560  -24.1840  -11.6230 H       1  UNL1        0.1460
     13  C         24.7400  -22.5750  -12.4720 C.2     1  UNL1        0.0280
     14  C         26.0600  -22.8460  -12.0930 C.2     1  UNL1        0.0250
     15  C         27.1180  -22.2160  -12.7480 C.2     1  UNL1        0.0020
     16  C         26.8590  -21.3070  -13.7710 C.2     1  UNL1        0.0010
     17  C         25.5440  -21.0270  -14.1430 C.2     1  UNL1        0.0080
     18  C         24.4680  -21.6610  -13.5030 C.2     1  UNL1       -0.0400
     19  C         23.0610  -21.3190  -13.9050 C.3     1  UNL1        0.0500
     20  C         18.9820  -23.6040   -7.7240 C.2     1  UNL1        0.2520
     21  O         18.8910  -24.8210   -7.6320 O.2     1  UNL1       -0.2680
     22  N         18.4710  -22.7090   -6.8090 N.am    1  UNL1       -0.3520
     23  H         18.4080  -21.7360   -7.0790 H       1  UNL1        0.1630
     24  C         17.7020  -23.1540   -5.6470 C.3     1  UNL1        0.0840
     25  C         16.3240  -23.6760   -6.0920 C.3     1  UNL1        0.0250
     26  C         15.2150  -22.6240   -6.1200 C.2     1  UNL1        0.0020
     27  C         14.7360  -22.1020   -4.7560 C.2     1  UNL1        0.0000
     28  C         15.4190  -22.6970   -3.5250 C.3     1  UNL1        0.0000
     29  C         16.8850  -22.3070   -3.3450 C.3     1  UNL1        0.0020
     30  C         17.6750  -22.0180   -4.6180 C.3     1  UNL1        0.0250
@<TRIPOS>BOND
     1    17    16    2
     2    17    18    1
     3    19    18    1
     4    16    15    1
     5    18    13    2
     6    15    14    2
     7    13    14    1
     8    13    11    1
     9    11    12    1
    10    11     8    1
    11     2     3    1
    12     2     1    2
    13     3     4    2
    14     8    10    2
    15     8     1    1
    16     8     9    2
    17     1     7    1
    18     4     5    1
    19     4     6    1
    20     7     6    2
    21     6    20    1
    22    20    21    2
    23    20    22   am
    24    23    22    1
    25    22    24    1
    26    26    25    1
    27    26    27    2
    28    25    24    1
    29    24    30    1
    30    27    28    1
    31    30    29    1
    32    28    29    1
