@<TRIPOS>MOLECULE
18735_out_ligand_01.pdbqt
 27 29 0 0 0
SMALL
GASTEIGER

@<TRIPOS>ATOM
      1  C         19.0120  -22.8840   -6.7950 C.2     1  UNL1        0.0030
      2  C         18.1260  -23.9730   -6.8690 C.2     1  UNL1        0.0120
      3  C         17.0280  -24.0740   -6.0080 C.2     1  UNL1        0.0180
      4  C         16.7750  -23.0770   -5.0570 C.2     1  UNL1        0.0340
      5  C         17.6450  -21.9910   -4.9510 C.2     1  UNL1        0.0530
      6  C         18.7480  -21.9090   -5.8160 C.2     1  UNL1        0.1120
      7  C         20.1630  -22.8060   -7.7840 C.3     1  UNL1        0.3140
      8  N         20.0770  -23.8280   -8.8400 N.3     1  UNL1        0.0970
      9  C         21.0960  -24.8670   -8.6760 C.3     1  UNL1        0.3110
     10  C         20.0960  -23.2610  -10.2160 C.3     1  UNL1        0.2560
     11  C         21.4250  -22.5600  -10.5850 C.3     1  UNL1        0.0410
     12  C         21.3100  -21.8470  -11.9270 C.3     1  UNL1        0.0070
     13  C         20.2740  -20.7340  -11.8320 C.3     1  UNL1        0.0390
     14  C         18.9570  -21.2180  -11.2780 C.2     1  UNL1       -0.0500
     15  C         17.8040  -20.4570  -11.5240 C.2     1  UNL1        0.0070
     16  C         18.8670  -22.3950  -10.5070 C.2     1  UNL1       -0.0190
     17  C         16.5600  -20.8750  -11.0540 C.2     1  UNL1        0.0010
     18  C         16.4540  -22.0610  -10.3370 C.2     1  UNL1        0.0010
     19  C         17.5960  -22.8180  -10.0740 C.2     1  UNL1        0.0100
     20  N         19.6110  -20.7520   -5.6600 N.pl3   1  UNL1       -0.1150
     21  O         19.1170  -19.7610   -5.1050 O.2     1  UNL1       -0.5320
     22  O         20.7750  -20.8480   -6.0660 O.2     1  UNL1       -0.5320
     23  C         15.5920  -23.2320   -4.1710 C.2     1  UNL1        0.2490
     24  N         14.6660  -24.1780   -4.5140 N.am    1  UNL1       -0.3660
     25  H         14.8720  -24.9360   -5.1490 H       1  UNL1        0.1590
     26  H         13.9390  -24.3460   -3.8270 H       1  UNL1        0.1590
     27  O         15.4590  -22.5640   -3.1550 O.2     1  UNL1       -0.2680
@<TRIPOS>BOND
     1    12    13    1
     2    12    11    1
     3    13    14    1
     4    15    14    2
     5    15    17    1
     6    14    16    1
     7    17    18    2
     8    11    10    1
     9    16    10    1
    10    16    19    2
    11    18    19    1
    12    10     8    1
    13     8     9    1
    14     8     7    1
    15     7     1    1
    16     2     1    2
    17     2     3    1
    18     1     6    1
    19    22    20    2
    20     3     4    2
    21     6    20    1
    22     6     5    2
    23    20    21    2
    24    25    24    1
    25     4     5    1
    26     4    23    1
    27    24    23   am
    28    24    26    1
    29    23    27    2
