@<TRIPOS>MOLECULE
18751_out_ligand_01.pdbqt
 33 35 0 0 0
SMALL
GASTEIGER

@<TRIPOS>ATOM
      1  C         19.9310  -21.7630  -11.3190 C.2     1  UNL1        0.0350
      2  C         18.8570  -21.0470  -11.8680 C.2     1  UNL1        0.0170
      3  C         17.5740  -21.2030  -11.3400 C.2     1  UNL1        0.0040
      4  C         17.3620  -22.0570  -10.2570 C.2     1  UNL1        0.0370
      5  C         18.4410  -22.7380   -9.6850 C.2     1  UNL1        0.0770
      6  C         19.7210  -22.6050  -10.2210 C.2     1  UNL1        0.0540
      7  C         21.3140  -21.6330  -11.8570 C.2     1  UNL1        0.2560
      8  N         22.3020  -22.1760  -11.0560 N.am    1  UNL1       -0.3230
      9  H         22.0170  -22.5210  -10.1480 H       1  UNL1        0.1690
     10  O         21.4680  -21.0480  -12.9220 O.2     1  UNL1       -0.2670
     11  C         23.6880  -22.2230  -11.3190 C.2     1  UNL1        0.0360
     12  C         24.6420  -21.4690  -10.6280 C.2     1  UNL1        0.0290
     13  C         26.0030  -21.5750  -10.9400 C.2     1  UNL1        0.0040
     14  C         26.4260  -22.4270  -11.9540 C.2     1  UNL1        0.0250
     15  C         25.4740  -23.1660  -12.6580 C.2     1  UNL1        0.0760
     16  C         24.1140  -23.0780  -12.3410 C.2     1  UNL1        0.0540
     17  S         26.0070  -24.2460  -13.9560 S.O2    1  UNL1        0.2390
     18  O         24.8920  -25.0710  -14.3520 O.2     1  UNL1       -0.2060
     19  O         26.7820  -23.4740  -14.9030 O.2     1  UNL1       -0.2060
     20  N         27.1210  -25.2180  -13.1510 N.3     1  UNL1       -0.2250
     21  H         27.3690  -24.8720  -12.2260 H       1  UNL1        0.1360
     22  H         27.9390  -25.3550  -13.7470 H       1  UNL1        0.1360
     23  O         18.2900  -23.6090   -8.6300 O.2     1  UNL1       -0.3110
     24  C         17.9000  -23.0730   -7.4240 C.2     1  UNL1        0.0760
     25  C         18.8730  -22.4050   -6.6830 C.2     1  UNL1        0.0370
     26  C         18.5380  -21.8200   -5.4630 C.2     1  UNL1        0.0040
     27  C         17.2250  -21.8900   -4.9920 C.2     1  UNL1        0.0160
     28  C         16.2290  -22.5310   -5.7460 C.2     1  UNL1        0.0500
     29  C         16.5780  -23.1210   -6.9720 C.2     1  UNL1        0.0530
     30  C         14.8110  -22.6200   -5.2430 C.3     1  UNL1        0.4170
     31  F         14.2950  -23.8780   -5.3230 F       1  UNL1       -0.1660
     32  F         14.7050  -22.2560   -3.9340 F       1  UNL1       -0.1660
     33  F         13.9440  -21.8190   -5.9240 F       1  UNL1       -0.1660
@<TRIPOS>BOND
     1    19    17    2
     2    18    17    2
     3    17    20    1
     4    17    15    1
     5    22    20    1
     6    20    21    1
     7    10     7    2
     8    15    16    1
     9    15    14    2
    10    16    11    2
    11    14    13    1
    12     2     3    1
    13     2     1    2
    14     7     1    1
    15     7     8   am
    16     3     4    2
    17    11     8    1
    18    11    12    1
    19     1     6    1
    20     8     9    1
    21    13    12    2
    22     4     5    1
    23     6     5    2
    24     5    23    1
    25    23    24    1
    26    24    29    2
    27    24    25    1
    28    29    28    1
    29    25    26    2
    30    33    30    1
    31    28    30    1
    32    28    27    2
    33    26    27    1
    34    31    30    1
    35    30    32    1
