@<TRIPOS>MOLECULE
18764_out_ligand_01.pdbqt
 37 40 0 0 0
SMALL
GASTEIGER

@<TRIPOS>ATOM
      1  N         22.3430  -22.8090  -10.4060 N.am    1  UNL1       -0.3210
      2  C         23.3200  -21.9220   -9.9870 C.2     1  UNL1        0.2790
      3  O         23.2060  -21.1210   -9.0640 O.2     1  UNL1       -0.2650
      4  H         22.6040  -23.3700  -11.2090 H       1  UNL1        0.1690
      5  C         21.0530  -23.0010   -9.8770 C.2     1  UNL1        0.0350
      6  C         20.0090  -22.2600  -10.4510 C.2     1  UNL1        0.0310
      7  C         18.6960  -22.4000   -9.9910 C.2     1  UNL1        0.0270
      8  C         18.4210  -23.2990   -8.9600 C.2     1  UNL1        0.0800
      9  C         19.4530  -24.0240   -8.3640 C.2     1  UNL1        0.0270
     10  C         20.7640  -23.8770   -8.8280 C.2     1  UNL1        0.0310
     11  S         16.7550  -23.4820   -8.3660 S.O2    1  UNL1        0.2630
     12  O         15.8570  -23.3840   -9.4970 O.2     1  UNL1       -0.2000
     13  O         16.7330  -24.6400   -7.4950 O.2     1  UNL1       -0.2000
     14  N         16.5410  -22.1450   -7.3580 N.pl3   1  UNL1       -0.2800
     15  H         15.9180  -21.4530   -7.7670 H       1  UNL1        0.1790
     16  C         16.5430  -22.3090   -5.9410 C.2     1  UNL1        0.0480
     17  C         15.3880  -22.7570   -5.2910 C.2     1  UNL1        0.0300
     18  C         15.3560  -22.8550   -3.8990 C.2     1  UNL1        0.0020
     19  C         16.4830  -22.5210   -3.1530 C.2     1  UNL1        0.0010
     20  C         17.6480  -22.1010   -3.7980 C.2     1  UNL1        0.0090
     21  C         17.6940  -21.9930   -5.1980 C.2     1  UNL1       -0.0350
     22  C         18.9670  -21.5330   -5.8510 C.3     1  UNL1        0.0500
     23  C         24.5380  -22.0190  -10.7710 C.2     1  UNL1        0.1430
     24  C         25.4500  -23.0500  -10.8990 C.2     1  UNL1        0.0450
     25  C         26.4490  -22.6040  -11.7940 C.2     1  UNL1        0.0380
     26  C         26.0930  -21.3260  -12.1730 C.2     1  UNL1        0.0780
     27  O         24.9300  -20.9620  -11.5540 O.2     1  UNL1       -0.3070
     28  C         26.7050  -20.3340  -13.0940 C.3     1  UNL1        0.2400
     29  O         25.6510  -19.8330  -13.9110 O.2     1  UNL1       -0.3430
     30  C         25.5520  -20.3020  -15.1950 C.2     1  UNL1        0.0920
     31  C         25.0230  -21.5500  -15.5470 C.2     1  UNL1        0.0620
     32  C         24.9670  -21.9310  -16.8910 C.2     1  UNL1        0.0360
     33 CL         24.3120  -23.4700  -17.3100 Cl      1  UNL1       -0.0840
     34  C         25.4280  -21.0830  -17.8940 C.2     1  UNL1        0.0260
     35  C         25.9530  -19.8380  -17.5540 C.2     1  UNL1        0.0280
     36  C         26.0140  -19.4490  -16.2130 C.2     1  UNL1        0.0670
     37 CL         26.6820  -17.8930  -15.8510 Cl      1  UNL1       -0.0810
@<TRIPOS>BOND
     1    34    35    2
     2    34    32    1
     3    35    36    1
     4    33    32    1
     5    32    31    2
     6    36    37    1
     7    36    30    2
     8    31    30    1
     9    30    29    1
    10    29    28    1
    11    28    26    1
    12    26    25    2
    13    26    27    1
    14    25    24    1
    15    27    23    1
    16     4     1    1
    17    24    23    2
    18    23     2    1
    19     6     7    1
    20     6     5    2
    21     1     2   am
    22     1     5    1
    23     7     8    2
    24     2     3    2
    25     5    10    1
    26    12    11    2
    27     8    11    1
    28     8     9    1
    29    10     9    2
    30    11    13    2
    31    11    14    1
    32    15    14    1
    33    14    16    1
    34    16    17    2
    35    16    21    1
    36    22    21    1
    37    17    18    1
    38    21    20    2
    39    18    19    2
    40    20    19    1
