@<TRIPOS>MOLECULE
18763_out_ligand_01.pdbqt
 36 39 0 0 0
SMALL
GASTEIGER

@<TRIPOS>ATOM
      1  C         18.3810  -23.2730   -9.0290 C.2     1  UNL1        0.0800
      2  C         19.3780  -24.0630   -8.4530 C.2     1  UNL1        0.0270
      3  C         20.7060  -23.9180   -8.8680 C.2     1  UNL1        0.0310
      4  C         21.0480  -22.9740   -9.8400 C.2     1  UNL1        0.0350
      5  C         20.0390  -22.1700  -10.3910 C.2     1  UNL1        0.0310
      6  C         18.7090  -22.3110   -9.9860 C.2     1  UNL1        0.0270
      7  N         22.3560  -22.7650  -10.3090 N.am    1  UNL1       -0.3210
      8  C         23.2920  -21.8450   -9.8720 C.2     1  UNL1        0.2790
      9  O         23.1300  -21.0370   -8.9630 O.2     1  UNL1       -0.2650
     10  H         22.6770  -23.3630  -11.0640 H       1  UNL1        0.1690
     11  C         24.5400  -21.9270  -10.6120 C.2     1  UNL1        0.1430
     12  C         25.5500  -21.0060  -10.8060 C.2     1  UNL1        0.0450
     13  C         26.5310  -21.6350  -11.6100 C.2     1  UNL1        0.0370
     14  C         26.0680  -22.9090  -11.8630 C.2     1  UNL1        0.0730
     15  O         24.8540  -23.0900  -11.2680 O.2     1  UNL1       -0.3080
     16  C         26.6070  -24.0590  -12.6320 C.3     1  UNL1        0.2150
     17  N         25.9500  -24.1610  -13.9300 N.pl3   1  UNL1       -0.2730
     18  C         25.7210  -23.1390  -14.8120 C.2     1  UNL1        0.1500
     19  C         25.0530  -23.7060  -15.8790 C.2     1  UNL1        0.1390
     20  C         24.9090  -25.0620  -15.5390 C.2     1  UNL1        0.1760
     21  N         25.4430  -25.3450  -14.3460 N.2     1  UNL1       -0.1820
     22  N         24.6040  -23.0500  -17.0640 N.pl3   1  UNL1       -0.1130
     23  O         24.1830  -21.8950  -16.9370 O.2     1  UNL1       -0.5320
     24  O         24.6730  -23.6890  -18.1230 O.2     1  UNL1       -0.5320
     25  S         16.6940  -23.4430   -8.4900 S.O2    1  UNL1        0.2630
     26  O         16.6310  -24.6070   -7.6290 O.2     1  UNL1       -0.2000
     27  O         15.8380  -23.3290   -9.6500 O.2     1  UNL1       -0.2000
     28  N         16.4680  -22.1130   -7.4770 N.pl3   1  UNL1       -0.2800
     29  H         15.8860  -21.3960   -7.9030 H       1  UNL1        0.1790
     30  C         16.4040  -22.2890   -6.0650 C.2     1  UNL1        0.0480
     31  C         15.2070  -22.7090   -5.4760 C.2     1  UNL1        0.0300
     32  C         15.1140  -22.8600   -4.0940 C.2     1  UNL1        0.0020
     33  C         16.2220  -22.6000   -3.2930 C.2     1  UNL1        0.0010
     34  C         17.4240  -22.1960   -3.8740 C.2     1  UNL1        0.0090
     35  C         17.5320  -22.0340   -5.2660 C.2     1  UNL1       -0.0350
     36  C         18.8490  -21.6080   -5.8500 C.3     1  UNL1        0.0500
@<TRIPOS>BOND
     1    24    22    2
     2    22    23    2
     3    22    19    1
     4    19    20    1
     5    19    18    2
     6    20    21    2
     7    18    17    1
     8    21    17    1
     9    17    16    1
    10    16    14    1
    11    14    13    2
    12    14    15    1
    13    13    12    1
    14    15    11    1
    15    10     7    1
    16    12    11    2
    17    11     8    1
    18     5     6    1
    19     5     4    2
    20     7     8   am
    21     7     4    1
    22     6     1    2
    23     8     9    2
    24     4     3    1
    25    27    25    2
    26     1    25    1
    27     1     2    1
    28     3     2    2
    29    25    26    2
    30    25    28    1
    31    29    28    1
    32    28    30    1
    33    30    31    2
    34    30    35    1
    35    36    35    1
    36    31    32    1
    37    35    34    2
    38    32    33    2
    39    34    33    1
