@<TRIPOS>MOLECULE
18766_out_ligand_01.pdbqt
 34 38 0 0 0
SMALL
GASTEIGER

@<TRIPOS>ATOM
      1  C         22.9990  -21.8450  -12.9230 C.2     1  UNL1        0.0350
      2  C         21.7280  -21.4020  -12.5440 C.2     1  UNL1        0.0310
      3  C         21.1930  -21.7590  -11.3010 C.2     1  UNL1        0.0270
      4  C         21.9390  -22.5510  -10.4250 C.2     1  UNL1        0.0790
      5  C         23.1970  -23.0200  -10.7980 C.2     1  UNL1        0.0270
      6  C         23.7240  -22.6620  -12.0420 C.2     1  UNL1        0.0310
      7  S         21.2460  -22.9930   -8.8550 S.O2    1  UNL1        0.2590
      8  O         21.3320  -24.4330   -8.7450 O.2     1  UNL1       -0.2010
      9  O         21.8110  -22.1330   -7.8400 O.2     1  UNL1       -0.2010
     10  N         19.6210  -22.6510   -9.0200 N.3     1  UNL1       -0.3050
     11  H         19.4120  -22.1070   -9.8560 H       1  UNL1        0.1730
     12  C         18.5470  -22.8620   -8.0390 C.3     1  UNL1        0.0410
     13  C         17.1800  -22.5250   -8.6740 C.3     1  UNL1        0.0360
     14  C         16.0350  -22.8560   -7.7010 C.3     1  UNL1       -0.0120
     15  C         16.0710  -24.3560   -7.3640 C.3     1  UNL1        0.0090
     16  C         16.2220  -22.0420   -6.4090 C.3     1  UNL1        0.0090
     17  C         17.4150  -24.7150   -6.7120 C.3     1  UNL1       -0.0120
     18  C         17.5920  -23.8970   -5.4240 C.3     1  UNL1        0.0090
     19  C         18.5540  -24.3740   -7.6860 C.3     1  UNL1        0.0360
     20  C         17.5670  -22.3960   -5.7500 C.3     1  UNL1       -0.0120
     21  C         18.7120  -22.0690   -6.7290 C.3     1  UNL1        0.0360
     22  N         23.6170  -21.5330  -14.1540 N.am    1  UNL1       -0.3220
     23  C         24.7210  -20.7250  -14.3720 C.2     1  UNL1        0.2790
     24  O         25.3400  -20.1590  -13.4730 O.2     1  UNL1       -0.2650
     25  H         23.1930  -21.9760  -14.9640 H       1  UNL1        0.1690
     26  C         25.1400  -20.5560  -15.7880 C.2     1  UNL1        0.1790
     27  C         25.1380  -21.4510  -16.8990 C.2     1  UNL1        0.1550
     28  C         25.7220  -20.7630  -17.9460 C.2     1  UNL1        0.1500
     29  N         26.0290  -19.5360  -17.4530 N.pl3   1  UNL1       -0.2820
     30  C         26.6720  -18.4510  -18.1530 C.3     1  UNL1        0.1790
     31  N         25.6830  -19.3760  -16.1700 N.2     1  UNL1       -0.1650
     32  N         24.6830  -22.8010  -16.9900 N.pl3   1  UNL1       -0.1120
     33  O         25.5450  -23.6840  -17.0670 O.2     1  UNL1       -0.5320
     34  O         23.4590  -22.9760  -17.0240 O.2     1  UNL1       -0.5320
@<TRIPOS>BOND
     1    30    29    1
     2    28    29    1
     3    28    27    2
     4    29    31    1
     5    33    32    2
     6    34    32    2
     7    32    27    1
     8    27    26    1
     9    31    26    2
    10    26    23    1
    11    25    22    1
    12    23    22   am
    13    23    24    2
    14    22     1    1
    15     1     2    2
    16     1     6    1
    17     2     3    1
    18     6     5    2
    19     3     4    2
    20     5     4    1
    21     4     7    1
    22    11    10    1
    23    10     7    1
    24    10    12    1
    25     7     8    2
    26     7     9    2
    27    13    12    1
    28    13    14    1
    29    12    19    1
    30    12    21    1
    31    14    15    1
    32    14    16    1
    33    19    17    1
    34    15    17    1
    35    21    20    1
    36    17    18    1
    37    16    20    1
    38    20    18    1
