@<TRIPOS>MOLECULE
18765_out_ligand_01.pdbqt
 28 31 0 0 0
SMALL
GASTEIGER

@<TRIPOS>ATOM
      1  C         18.5940  -22.2570  -10.0930 C.2     1  UNL1        0.1430
      2  C         17.7490  -21.5490  -10.9310 C.2     1  UNL1        0.0450
      3  C         18.5350  -21.0820  -12.0130 C.2     1  UNL1        0.0380
      4  C         19.8200  -21.5270  -11.7830 C.2     1  UNL1        0.0780
      5  O         19.8600  -22.2370  -10.6200 O.2     1  UNL1       -0.3070
      6  C         18.3940  -22.9660   -8.8410 C.2     1  UNL1        0.2760
      7  O         19.0550  -23.9440   -8.4970 O.2     1  UNL1       -0.2650
      8  N         17.3770  -22.4690   -8.0470 N.am    1  UNL1       -0.3470
      9  H         16.7270  -21.8130   -8.4530 H       1  UNL1        0.1630
     10  C         16.9550  -23.1520   -6.8340 C.3     1  UNL1        0.1180
     11  C         15.4170  -23.2810   -6.8380 C.3     1  UNL1        0.0300
     12  C         14.7780  -23.6340   -5.4890 C.3     1  UNL1        0.0070
     13  C         15.7730  -23.8760   -4.3610 C.3     1  UNL1        0.0390
     14  C         16.8420  -22.8170   -4.3520 C.2     1  UNL1       -0.0500
     15  C         17.2830  -22.2460   -3.1530 C.2     1  UNL1        0.0070
     16  C         17.4440  -22.4560   -5.5750 C.2     1  UNL1       -0.0290
     17  C         18.3220  -21.3180   -3.1610 C.2     1  UNL1        0.0010
     18  C         18.9400  -20.9740   -4.3600 C.2     1  UNL1        0.0010
     19  C         18.5140  -21.5480   -5.5590 C.2     1  UNL1        0.0100
     20  C         21.1130  -21.3920  -12.5040 C.3     1  UNL1        0.2400
     21  O         22.0240  -22.3220  -11.9230 O.2     1  UNL1       -0.3430
     22  C         23.3610  -22.0230  -11.9690 C.2     1  UNL1        0.0860
     23  C         24.1300  -22.0020  -13.1360 C.2     1  UNL1        0.0380
     24  C         25.4920  -21.6840  -13.0830 C.2     1  UNL1        0.0030
     25  C         26.0970  -21.3850  -11.8650 C.2     1  UNL1        0.0020
     26  C         25.3430  -21.4020  -10.6940 C.2     1  UNL1        0.0220
     27  C         23.9820  -21.7200  -10.7460 C.2     1  UNL1        0.0440
     28 BR         23.0120  -21.7260   -9.1110 Br      1  UNL1       -0.0480
@<TRIPOS>BOND
     1    23    24    1
     2    23    22    2
     3    24    25    2
     4    20    21    1
     5    20     4    1
     6     3     4    2
     7     3     2    1
     8    22    21    1
     9    22    27    1
    10    25    26    1
    11     4     5    1
    12     2     1    2
    13    27    26    2
    14    27    28    1
    15     5     1    1
    16     1     6    1
    17     6     7    2
    18     6     8   am
    19     9     8    1
    20     8    10    1
    21    11    10    1
    22    11    12    1
    23    10    16    1
    24    16    19    1
    25    16    14    2
    26    19    18    2
    27    12    13    1
    28    13    14    1
    29    18    17    1
    30    14    15    1
    31    17    15    2
