@<TRIPOS>MOLECULE
18770_out_ligand_01.pdbqt
 31 34 0 0 0
SMALL
GASTEIGER

@<TRIPOS>ATOM
      1  C         17.9710  -21.8460  -10.6220 C.2     1  UNL1        0.1430
      2  C         16.6520  -21.4220  -10.6670 C.2     1  UNL1        0.0450
      3  C         15.9310  -22.2080   -9.7350 C.2     1  UNL1        0.0380
      4  C         16.8400  -23.0730   -9.1660 C.2     1  UNL1        0.0780
      5  O         18.0740  -22.8560   -9.7000 O.2     1  UNL1       -0.3070
      6  C         19.1880  -21.4460  -11.3220 C.2     1  UNL1        0.2790
      7  O         19.1860  -20.5520  -12.1630 O.2     1  UNL1       -0.2650
      8  N         20.3170  -22.1620  -10.9480 N.am    1  UNL1       -0.3210
      9  H         20.1910  -22.8720  -10.2420 H       1  UNL1        0.1690
     10  C         21.6360  -22.0210  -11.4320 C.2     1  UNL1        0.0370
     11  C         22.7840  -22.2340  -10.6650 C.2     1  UNL1        0.0320
     12  C         24.0570  -22.0770  -11.2280 C.2     1  UNL1        0.0420
     13  C         24.1900  -21.7100  -12.5630 C.2     1  UNL1        0.1020
     14  C         23.0480  -21.4680  -13.3300 C.2     1  UNL1        0.1040
     15  O         25.4640  -21.5980  -13.0530 O.2     1  UNL1       -0.3460
     16  C         21.7810  -21.6370  -12.7730 C.2     1  UNL1        0.0690
     17  O         23.0960  -21.0700  -14.6420 O.2     1  UNL1       -0.3460
     18  C         24.4040  -20.6060  -14.9990 C.3     1  UNL1        0.2020
     19  C         25.4710  -21.5580  -14.4840 C.3     1  UNL1        0.2020
     20  C         16.7570  -24.1450   -8.1380 C.3     1  UNL1        0.2400
     21  O         17.9470  -24.0680   -7.3510 O.2     1  UNL1       -0.3390
     22  C         17.9710  -23.1770   -6.3120 C.2     1  UNL1        0.1520
     23  C         17.1240  -23.1600   -5.2010 C.2     1  UNL1        0.1910
     24  F         16.1560  -24.0740   -5.0490 F       1  UNL1       -0.2000
     25  C         17.2680  -22.1830   -4.2130 C.2     1  UNL1        0.1600
     26  F         16.4480  -22.1810   -3.1540 F       1  UNL1       -0.2030
     27  C         18.2500  -21.2060   -4.3070 C.2     1  UNL1        0.0910
     28  C         19.0930  -21.2170   -5.4070 C.2     1  UNL1        0.1600
     29  F         20.0460  -20.2810   -5.5110 F       1  UNL1       -0.2030
     30  C         18.9580  -22.1880   -6.3990 C.2     1  UNL1        0.1910
     31  F         19.7920  -22.1680   -7.4500 F       1  UNL1       -0.2000
@<TRIPOS>BOND
     1    18    17    1
     2    18    19    1
     3    17    14    1
     4    19    15    1
     5    14    16    1
     6    14    13    2
     7    15    13    1
     8    16    10    2
     9    13    12    1
    10     7     6    2
    11    10     8    1
    12    10    11    1
    13     6     8   am
    14     6     1    1
    15    12    11    2
    16     8     9    1
    17     2     1    2
    18     2     3    1
    19     1     5    1
    20     3     4    2
    21     5     4    1
    22     4    20    1
    23    20    21    1
    24    31    30    1
    25    21    22    1
    26    30    22    2
    27    30    28    1
    28    22    23    1
    29    29    28    1
    30    28    27    2
    31    23    24    1
    32    23    25    2
    33    27    25    1
    34    25    26    1
