@<TRIPOS>MOLECULE
18771_out_ligand_01.pdbqt
 39 44 0 0 0
SMALL
GASTEIGER

@<TRIPOS>ATOM
      1  C         21.2560  -22.4980  -11.0410 C.2     1  UNL1        0.0350
      2  C         20.7710  -23.2600   -9.9660 C.2     1  UNL1        0.0310
      3  C         19.4280  -23.1920   -9.5860 C.2     1  UNL1        0.0270
      4  C         18.5620  -22.3460  -10.2780 C.2     1  UNL1        0.0790
      5  C         19.0230  -21.5980  -11.3630 C.2     1  UNL1        0.0270
      6  C         20.3690  -21.6720  -11.7360 C.2     1  UNL1        0.0310
      7  N         22.6240  -22.6370  -11.3550 N.am    1  UNL1       -0.3210
      8  C         23.7070  -21.9950  -10.7650 C.2     1  UNL1        0.2790
      9  O         23.6140  -21.2250   -9.8150 O.2     1  UNL1       -0.2650
     10  H         22.8360  -23.3050  -12.0800 H       1  UNL1        0.1690
     11  C         24.9900  -22.3210  -11.3800 C.2     1  UNL1        0.1430
     12  C         26.3080  -22.0700  -11.0320 C.2     1  UNL1        0.0450
     13  C         27.1210  -22.6680  -12.0270 C.2     1  UNL1        0.0370
     14  C         26.2650  -23.2400  -12.9420 C.2     1  UNL1        0.0730
     15  O         24.9750  -23.0450  -12.5450 O.2     1  UNL1       -0.3080
     16  C         26.4660  -24.0270  -14.1870 C.3     1  UNL1        0.2160
     17  N         25.8230  -23.3960  -15.3360 N.ar    1  UNL1       -0.2670
     18  N         24.9000  -24.1030  -16.0320 N.ar    1  UNL1       -0.1760
     19  C         24.5160  -23.2830  -17.0170 C.ar    1  UNL1        0.0700
     20  C         23.4660  -23.7110  -17.9740 C.3     1  UNL1        0.0740
     21  C         25.2300  -22.0730  -16.9670 C.ar    1  UNL1        0.0600
     22  C         26.0930  -22.1650  -15.8980 C.ar    1  UNL1        0.0460
     23 BR         25.0190  -20.6370  -18.1520 Br      1  UNL1       -0.0470
     24  C         27.0930  -21.2030  -15.3770 C.3     1  UNL1        0.0710
     25  S         16.8510  -22.2480   -9.8210 S.O2    1  UNL1        0.2590
     26  O         16.3050  -23.5860   -9.7860 O.2     1  UNL1       -0.2010
     27  O         16.2530  -21.2200  -10.6440 O.2     1  UNL1       -0.2010
     28  N         16.8850  -21.6250   -8.2750 N.3     1  UNL1       -0.3050
     29  H         17.1690  -20.6460   -8.2440 H       1  UNL1        0.1730
     30  C         16.7440  -22.3500   -7.0020 C.3     1  UNL1        0.0410
     31  C         17.7850  -21.8440   -5.9820 C.3     1  UNL1        0.0360
     32  C         17.5690  -22.5120   -4.6130 C.3     1  UNL1       -0.0120
     33  C         17.6950  -24.0380   -4.7700 C.3     1  UNL1        0.0090
     34  C         16.1620  -22.1710   -4.0960 C.3     1  UNL1        0.0090
     35  C         16.6370  -24.5550   -5.7600 C.3     1  UNL1       -0.0120
     36  C         15.2370  -24.2030   -5.2370 C.3     1  UNL1        0.0090
     37  C         16.8530  -23.8830   -7.1290 C.3     1  UNL1        0.0360
     38  C         15.1010  -22.6790   -5.0860 C.3     1  UNL1       -0.0120
     39  C         15.3310  -22.0170   -6.4530 C.3     1  UNL1        0.0360
@<TRIPOS>BOND
     1    23    21    1
     2    20    19    1
     3    19    21   ar
     4    19    18   ar
     5    21    22   ar
     6    18    17   ar
     7    22    24    1
     8    22    17   ar
     9    17    16    1
    10    16    14    1
    11    14    15    1
    12    14    13    2
    13    15    11    1
    14    10     7    1
    15    13    12    1
    16     6     5    1
    17     6     1    2
    18    11    12    2
    19    11     8    1
    20     5     4    2
    21     7     1    1
    22     7     8   am
    23     1     2    1
    24     8     9    2
    25    27    25    2
    26     4    25    1
    27     4     3    1
    28     2     3    2
    29    25    26    2
    30    25    28    1
    31    28    29    1
    32    28    30    1
    33    37    30    1
    34    37    35    1
    35    30    39    1
    36    30    31    1
    37    39    38    1
    38    31    32    1
    39    35    36    1
    40    35    33    1
    41    36    38    1
    42    38    34    1
    43    33    32    1
    44    32    34    1
