@<TRIPOS>MOLECULE
18781_out_ligand_01.pdbqt
 34 38 0 0 0
SMALL
GASTEIGER

@<TRIPOS>ATOM
      1  C         20.9170  -22.7810  -10.4230 C.2     1  UNL1        0.1790
      2  N         22.2510  -22.9600  -10.5690 N.2     1  UNL1       -0.1640
      3  N         22.5870  -22.1890  -11.6300 N.pl3   1  UNL1       -0.2680
      4  C         21.5100  -21.5430  -12.1740 C.2     1  UNL1        0.1520
      5  C         20.4180  -21.9280  -11.4260 C.2     1  UNL1        0.1550
      6  C         20.1840  -23.4080   -9.3110 C.2     1  UNL1        0.2790
      7  N         19.2880  -22.5290   -8.7330 N.am    1  UNL1       -0.3220
      8  H         19.2630  -21.6190   -9.1900 H       1  UNL1        0.1690
      9  O         20.3590  -24.5790   -9.0040 O.2     1  UNL1       -0.2650
     10  C         18.4240  -22.7490   -7.6490 C.2     1  UNL1        0.0350
     11  C         17.3060  -23.5640   -7.8790 C.2     1  UNL1        0.0310
     12  C         16.3970  -23.8360   -6.8530 C.2     1  UNL1        0.0270
     13  C         16.6080  -23.2890   -5.5870 C.2     1  UNL1        0.0740
     14  C         17.7050  -22.4600   -5.3470 C.2     1  UNL1        0.0270
     15  C         18.6140  -22.1970   -6.3780 C.2     1  UNL1        0.0310
     16  S         15.4530  -23.6230   -4.2840 S.O2    1  UNL1        0.2390
     17  O         16.1480  -24.3020   -3.2180 O.2     1  UNL1       -0.2060
     18  O         14.2350  -24.1330   -4.8700 O.2     1  UNL1       -0.2060
     19  N         15.0880  -22.0660   -3.7550 N.3     1  UNL1       -0.2250
     20  H         14.5540  -21.5240   -4.4330 H       1  UNL1        0.1360
     21  H         14.6050  -22.1300   -2.8560 H       1  UNL1        0.1360
     22  N         19.0720  -21.5300  -11.6590 N.pl3   1  UNL1       -0.1120
     23  O         18.2040  -22.3950  -11.4880 O.2     1  UNL1       -0.5320
     24  O         18.8830  -20.3410  -11.9400 O.2     1  UNL1       -0.5320
     25  C         23.9840  -22.1090  -12.0900 C.3     1  UNL1        0.0560
     26  C         24.8670  -21.4260  -11.0090 C.3     1  UNL1        0.0380
     27  C         26.3360  -21.3670  -11.4600 C.3     1  UNL1       -0.0110
     28  C         26.4370  -20.5550  -12.7600 C.3     1  UNL1        0.0090
     29  C         26.8480  -22.7950  -11.7110 C.3     1  UNL1        0.0090
     30  C         25.5960  -21.2220  -13.8610 C.3     1  UNL1       -0.0110
     31  C         26.1120  -22.6480  -14.1040 C.3     1  UNL1        0.0090
     32  C         24.1290  -21.2860  -13.4060 C.3     1  UNL1        0.0380
     33  C         26.0110  -23.4700  -12.8100 C.3     1  UNL1       -0.0110
     34  C         24.5410  -23.5340  -12.3620 C.3     1  UNL1        0.0380
@<TRIPOS>BOND
     1    31    30    1
     2    31    33    1
     3    30    32    1
     4    30    28    1
     5    32    25    1
     6    33    34    1
     7    33    29    1
     8    28    27    1
     9    34    25    1
    10     4     3    1
    11     4     5    2
    12    25     3    1
    13    25    26    1
    14    24    22    2
    15    29    27    1
    16    22    23    2
    17    22     5    1
    18     3     2    1
    19    27    26    1
    20     5     1    1
    21     2     1    2
    22     1     6    1
    23     6     9    2
    24     6     7   am
    25     8     7    1
    26     7    10    1
    27    11    10    2
    28    11    12    1
    29    10    15    1
    30    12    13    2
    31    15    14    2
    32    13    14    1
    33    13    16    1
    34    18    16    2
    35    20    19    1
    36    16    19    1
    37    16    17    2
    38    19    21    1
