@<TRIPOS>MOLECULE
18784_out_ligand_01.pdbqt
 39 42 0 0 0
SMALL
GASTEIGER

@<TRIPOS>ATOM
      1  C         21.3150  -21.8880  -10.2330 C.2     1  UNL1       -0.0080
      2  C         21.3170  -21.1240  -11.3980 C.2     1  UNL1        0.0130
      3  C         20.1440  -21.0250  -12.1400 C.2     1  UNL1        0.0030
      4  C         18.9840  -21.6830  -11.7140 C.2     1  UNL1        0.0290
      5  C         18.9830  -22.4510  -10.5460 C.2     1  UNL1        0.0350
      6  C         20.1650  -22.5530   -9.8030 C.2     1  UNL1        0.0430
      7  C         22.5390  -21.9570   -9.4120 C.2     1  UNL1        0.0610
      8  C         22.3560  -21.7990   -7.9230 C.3     1  UNL1        0.0730
      9  N         23.7430  -22.1370   -9.8680 N.2     1  UNL1       -0.1760
     10  N         23.9220  -22.2210  -11.2190 N.am    1  UNL1       -0.2420
     11  C         24.8780  -21.4430  -11.8660 C.2     1  UNL1        0.2800
     12  O         25.6350  -20.6870  -11.2590 O.2     1  UNL1       -0.2650
     13  H         23.3030  -22.8080  -11.7660 H       1  UNL1        0.1920
     14  C         24.9200  -21.6110  -13.3190 C.ar    1  UNL1        0.0970
     15  S         24.8670  -20.1930  -14.2860 S.2     1  UNL1       -0.0820
     16  C         24.9560  -21.0690  -15.7570 C.ar    1  UNL1        0.0170
     17  C         24.9680  -20.5300  -17.0600 C.2     1  UNL1        0.0200
     18  C         25.0140  -22.4440  -15.5300 C.ar    1  UNL1        0.0040
     19  C         25.0370  -21.3940  -18.1530 C.2     1  UNL1        0.0010
     20  C         25.0940  -22.7660  -17.9600 C.2     1  UNL1        0.0010
     21  C         25.0820  -23.2960  -16.6660 C.2     1  UNL1        0.0140
     22  C         24.9930  -22.7380  -14.1170 C.ar    1  UNL1        0.0680
     23 CL         25.0410  -24.3670  -13.5580 Cl      1  UNL1       -0.0820
     24  N         17.8570  -23.1470  -10.0610 N.am    1  UNL1       -0.3270
     25  C         16.6700  -22.6140   -9.5870 C.2     1  UNL1        0.2220
     26  O         16.4180  -21.4250   -9.4200 O.2     1  UNL1       -0.2730
     27  H         17.9070  -24.1590  -10.1090 H       1  UNL1        0.1690
     28  C         15.6640  -23.6990   -9.2360 C.3     1  UNL1        0.1050
     29  C         15.6020  -23.9960   -7.7380 C.3     1  UNL1        0.0360
     30  C         16.6260  -25.0360   -7.2750 C.3     1  UNL1        0.1760
     31  O         17.0020  -24.7530   -5.9220 O.2     1  UNL1       -0.3490
     32  C         17.6280  -23.5440   -5.7510 C.2     1  UNL1        0.0900
     33  C         18.6500  -23.1110   -6.6030 C.2     1  UNL1        0.0400
     34  C         19.2720  -21.8810   -6.3780 C.2     1  UNL1        0.0260
     35  C         18.8830  -21.0930   -5.2960 C.2     1  UNL1        0.0350
     36 CL         19.6550  -19.5790   -5.0240 Cl      1  UNL1       -0.0840
     37  C         17.8800  -21.5220   -4.4290 C.2     1  UNL1        0.0500
     38  C         17.2610  -22.7530   -4.6520 C.2     1  UNL1        0.0690
     39 CL         16.0260  -23.2560   -3.5480 Cl      1  UNL1       -0.0810
@<TRIPOS>BOND
     1    19    20    2
     2    19    17    1
     3    20    21    1
     4    17    16    2
     5    21    18    2
     6    16    18   ar
     7    16    15   ar
     8    18    22   ar
     9    15    14   ar
    10    22    23    1
    11    22    14   ar
    12    14    11    1
    13     3     4    2
    14     3     2    1
    15    11    12    2
    16    11    10   am
    17    13    10    1
    18     4     5    1
    19     2     1    2
    20    10     9    1
    21     5    24    1
    22     5     6    2
    23     1     6    1
    24     1     7    1
    25    27    24    1
    26    24    25   am
    27     9     7    2
    28    25    26    2
    29    25    28    1
    30     7     8    1
    31    28    29    1
    32    29    30    1
    33    30    31    1
    34    33    34    1
    35    33    32    2
    36    34    35    2
    37    31    32    1
    38    32    38    1
    39    35    36    1
    40    35    37    1
    41    38    37    2
    42    38    39    1
