@<TRIPOS>MOLECULE
18795_out_ligand_01.pdbqt
 28 31 0 0 0
SMALL
GASTEIGER

@<TRIPOS>ATOM
      1  C         17.7530  -22.8270   -8.9430 C.3     1  UNL1        0.1690
      2  C         19.2320  -22.5290   -8.7030 C.3     1  UNL1        0.0770
      3  C         19.8540  -22.1680  -10.0210 C.2     1  UNL1       -0.0380
      4  C         21.2010  -22.4410  -10.2930 C.2     1  UNL1        0.0250
      5  C         21.7670  -22.0760  -11.5240 C.2     1  UNL1        0.0320
      6  C         20.9860  -21.4000  -12.4710 C.2     1  UNL1        0.0180
      7  C         19.6440  -21.1130  -12.1950 C.2     1  UNL1        0.0190
      8  C         19.0760  -21.5000  -10.9750 C.2     1  UNL1        0.0450
      9  C         17.6580  -21.1500  -10.6870 C.2     1  UNL1        0.2940
     10  O         17.0370  -20.3820  -11.4080 O.2     1  UNL1       -0.2590
     11  O         17.1080  -21.7020   -9.5760 O.3     1  UNL1       -0.3070
     12  C         23.2030  -22.3950  -11.7580 C.2     1  UNL1        0.2520
     13  O         23.9260  -22.6690  -10.8060 O.2     1  UNL1       -0.2680
     14  N         23.6330  -22.3920  -13.0680 N.am    1  UNL1       -0.3520
     15  H         22.9880  -22.1810  -13.8150 H       1  UNL1        0.1630
     16  C         25.0320  -22.6090  -13.4140 C.3     1  UNL1        0.0840
     17  C         25.4160  -21.7870  -14.6520 C.3     1  UNL1        0.0250
     18  C         26.8580  -22.0480  -15.0800 C.3     1  UNL1        0.0020
     19  C         27.1210  -23.5350  -15.2950 C.3     1  UNL1        0.0000
     20  C         26.7420  -24.3570  -14.0670 C.3     1  UNL1        0.0020
     21  C         25.2980  -24.1010  -13.6420 C.3     1  UNL1        0.0250
     22  C         17.0510  -23.1480   -7.6380 C.2     1  UNL1       -0.0290
     23  C         15.7900  -22.6160   -7.3340 C.2     1  UNL1        0.0100
     24  C         15.1720  -22.8990   -6.1130 C.2     1  UNL1        0.0070
     25  C         15.8090  -23.7040   -5.1640 C.2     1  UNL1       -0.0620
     26  C         15.1300  -24.0350   -3.8690 C.3     1  UNL1        0.0480
     27  C         17.0640  -24.2440   -5.4650 C.2     1  UNL1        0.0070
     28  C         17.6820  -23.9630   -6.6860 C.2     1  UNL1        0.0100
@<TRIPOS>BOND
     1    19    18    1
     2    19    20    1
     3    18    17    1
     4    17    16    1
     5    20    21    1
     6    15    14    1
     7    21    16    1
     8    16    14    1
     9    14    12   am
    10     6     7    2
    11     6     5    1
    12     7     8    1
    13    12     5    1
    14    12    13    2
    15     5     4    2
    16    10     9    2
    17     8     9    1
    18     8     3    2
    19     9    11    1
    20     4     3    1
    21     3     2    1
    22    11     1    1
    23     1     2    1
    24     1    22    1
    25    22    23    2
    26    22    28    1
    27    23    24    1
    28    28    27    2
    29    24    25    2
    30    27    25    1
    31    25    26    1
