@<TRIPOS>MOLECULE
18798_out_ligand_01.pdbqt
 30 33 0 0 0
SMALL
GASTEIGER

@<TRIPOS>ATOM
      1  C         19.8580  -22.4790   -8.9130 C.3     1  UNL1        0.1690
      2  C         19.7840  -22.3990  -10.4390 C.3     1  UNL1        0.0770
      3  C         21.1830  -22.4450  -10.9850 C.2     1  UNL1       -0.0380
      4  C         21.5220  -21.7990  -12.1810 C.2     1  UNL1        0.0250
      5  C         22.8290  -21.8780  -12.6810 C.2     1  UNL1        0.0320
      6  C         23.8050  -22.5940  -11.9740 C.2     1  UNL1        0.0180
      7  C         23.4640  -23.2530  -10.7900 C.2     1  UNL1        0.0190
      8  C         22.1540  -23.1830  -10.2960 C.2     1  UNL1        0.0450
      9  C         21.8000  -23.9250   -9.0570 C.2     1  UNL1        0.2940
     10  O         22.5710  -24.7370   -8.5640 O.2     1  UNL1       -0.2590
     11  O         20.5750  -23.6760   -8.5320 O.3     1  UNL1       -0.3070
     12  C         23.1470  -21.1630  -13.9510 C.2     1  UNL1        0.2560
     13  O         22.3510  -20.3180  -14.3410 O.2     1  UNL1       -0.2670
     14  N         24.3100  -21.5780  -14.5740 N.am    1  UNL1       -0.3220
     15  H         24.7590  -22.3910  -14.1810 H       1  UNL1        0.1690
     16  C         24.8980  -21.0600  -15.7560 C.2     1  UNL1        0.0410
     17  C         24.7110  -21.6720  -17.0000 C.2     1  UNL1        0.0300
     18  C         25.2900  -21.1450  -18.1530 C.2     1  UNL1        0.0030
     19  C         26.0620  -19.9930  -18.0800 C.2     1  UNL1        0.0070
     20  C         26.2680  -19.3470  -16.8530 C.2     1  UNL1       -0.0540
     21  C         27.1150  -18.1010  -16.8440 C.3     1  UNL1        0.0490
     22  C         25.6830  -19.8770  -15.6740 C.2     1  UNL1       -0.0290
     23  C         25.8950  -19.1950  -14.3430 C.3     1  UNL1        0.0510
     24  C         18.5250  -22.4910   -8.1800 C.2     1  UNL1       -0.0290
     25  C         17.2870  -22.6170   -8.8240 C.2     1  UNL1        0.0100
     26  C         16.0920  -22.6000   -8.0940 C.2     1  UNL1        0.0070
     27  C         16.1060  -22.4640   -6.7040 C.2     1  UNL1       -0.0620
     28  C         14.8240  -22.4150   -5.9290 C.3     1  UNL1        0.0480
     29  C         17.3340  -22.3210   -6.0530 C.2     1  UNL1        0.0070
     30  C         18.5260  -22.3370   -6.7810 C.2     1  UNL1        0.0100
@<TRIPOS>BOND
     1    18    19    2
     2    18    17    1
     3    19    20    1
     4    17    16    2
     5    20    21    1
     6    20    22    2
     7    16    22    1
     8    16    14    1
     9    22    23    1
    10    14    15    1
    11    14    12   am
    12    13    12    2
    13    12     5    1
    14     5     4    1
    15     5     6    2
    16     4     3    2
    17     6     7    1
    18     3     2    1
    19     3     8    1
    20     7     8    2
    21     2     1    1
    22     8     9    1
    23     9    10    2
    24     9    11    1
    25     1    11    1
    26     1    24    1
    27    25    24    2
    28    25    26    1
    29    24    30    1
    30    26    27    2
    31    30    29    2
    32    27    29    1
    33    27    28    1
