@<TRIPOS>MOLECULE
18793_out_ligand_01.pdbqt
 28 30 0 0 0
SMALL
GASTEIGER

@<TRIPOS>ATOM
      1  N         18.9030  -22.3100   -8.9590 N.am    1  UNL1       -0.3260
      2  C         18.6740  -23.3910   -8.1180 C.2     1  UNL1        0.2350
      3  O         19.3630  -24.4070   -8.0700 O.2     1  UNL1       -0.2720
      4  H         18.3190  -21.4970   -8.8080 H       1  UNL1        0.1690
      5  C         19.9210  -22.1640   -9.9230 C.2     1  UNL1        0.0340
      6  C         19.5620  -21.5820  -11.1440 C.2     1  UNL1        0.0300
      7  C         20.5090  -21.4060  -12.1580 C.2     1  UNL1        0.0190
      8  C         21.8320  -21.8200  -11.9670 C.2     1  UNL1        0.0330
      9  C         22.1990  -22.3890  -10.7440 C.2     1  UNL1        0.0190
     10  C         21.2440  -22.5650   -9.7320 C.2     1  UNL1        0.0300
     11  C         22.8040  -21.6110  -13.0750 C.2     1  UNL1        0.2650
     12  N         22.4520  -20.6770  -14.0450 N.am    1  UNL1       -0.2900
     13  H         21.6820  -20.0320  -13.8880 H       1  UNL1        0.1830
     14  O         23.8730  -22.2190  -13.0930 O.2     1  UNL1       -0.2660
     15  N         23.3860  -20.3620  -15.0580 N.3     1  UNL1       -0.2470
     16  H         24.1370  -21.0570  -15.0020 H       1  UNL1        0.1430
     17  H         23.8560  -19.4950  -14.7650 H       1  UNL1        0.1430
     18  C         17.4060  -23.2180   -7.2240 C.3     1  UNL1        0.0680
     19  C         16.3460  -22.4020   -7.9980 C.3     1  UNL1        0.0240
     20  C         15.7690  -23.3860   -9.0070 C.3     1  UNL1        0.0020
     21  C         15.8010  -24.7410   -8.3110 C.3     1  UNL1        0.0020
     22  C         16.6570  -24.5610   -7.0550 C.3     1  UNL1        0.0240
     23  C         17.8120  -22.6480   -5.8600 C.2     1  UNL1       -0.0400
     24  C         18.5460  -21.4480   -5.8050 C.2     1  UNL1        0.0080
     25  C         18.9080  -20.8770   -4.5840 C.2     1  UNL1        0.0010
     26  C         18.5410  -21.4940   -3.3920 C.2     1  UNL1        0.0000
     27  C         17.8100  -22.6770   -3.4220 C.2     1  UNL1        0.0010
     28  C         17.4450  -23.2490   -4.6450 C.2     1  UNL1        0.0080
@<TRIPOS>BOND
     1    15    16    1
     2    15    17    1
     3    15    12    1
     4    12    13    1
     5    12    11   am
     6    14    11    2
     7    11     8    1
     8     7     8    2
     9     7     6    1
    10     8     9    1
    11     6     5    2
    12     9    10    2
    13     5    10    1
    14     5     1    1
    15    20    21    1
    16    20    19    1
    17     1     4    1
    18     1     2   am
    19    21    22    1
    20     2     3    2
    21     2    18    1
    22    19    18    1
    23    18    22    1
    24    18    23    1
    25    23    24    2
    26    23    28    1
    27    24    25    1
    28    28    27    2
    29    25    26    2
    30    27    26    1
