@<TRIPOS>MOLECULE
18803_out_ligand_01.pdbqt
 27 30 0 0 0
SMALL
GASTEIGER

@<TRIPOS>ATOM
      1  C         18.3760  -22.9230   -9.2020 C.3     1  UNL1        0.1690
      2  C         19.8410  -22.5980   -8.8990 C.3     1  UNL1        0.0770
      3  C         20.5330  -22.3040  -10.2010 C.2     1  UNL1       -0.0380
      4  C         21.8920  -22.5920  -10.3880 C.2     1  UNL1        0.0250
      5  C         22.5130  -22.2910  -11.6090 C.2     1  UNL1        0.0320
      6  C         21.7660  -21.7130  -12.6440 C.2     1  UNL1        0.0180
      7  C         20.4170  -21.4060  -12.4520 C.2     1  UNL1        0.0190
      8  C         19.8000  -21.6980  -11.2310 C.2     1  UNL1        0.0450
      9  C         18.3710  -21.3320  -11.0280 C.2     1  UNL1        0.2940
     10  O         17.7810  -20.6110  -11.8210 O.2     1  UNL1       -0.2590
     11  O         17.7760  -21.8150   -9.9080 O.3     1  UNL1       -0.3070
     12  C         23.9470  -22.5970  -11.8580 C.2     1  UNL1        0.2520
     13  O         24.6750  -22.9250  -10.9280 O.2     1  UNL1       -0.2680
     14  N         24.3670  -22.5210  -13.1720 N.am    1  UNL1       -0.3520
     15  H         23.6590  -22.5340  -13.8950 H       1  UNL1        0.1630
     16  C         25.7100  -22.9140  -13.5440 C.3     1  UNL1        0.0840
     17  C         25.7990  -24.3910  -13.9170 C.3     1  UNL1        0.0250
     18  C         27.1090  -24.4690  -14.6810 C.3     1  UNL1        0.0020
     19  C         27.1210  -23.2010  -15.5260 C.3     1  UNL1        0.0020
     20  C         26.2330  -22.1930  -14.7930 C.3     1  UNL1        0.0250
     21  C         17.4980  -23.2270   -8.0000 C.2     1  UNL1       -0.0290
     22  C         16.2860  -22.5260   -7.8650 C.2     1  UNL1        0.0100
     23  C         15.4260  -22.7650   -6.7900 C.2     1  UNL1        0.0070
     24  C         15.7510  -23.7200   -5.8250 C.2     1  UNL1       -0.0620
     25  C         14.8490  -23.9520   -4.6490 C.3     1  UNL1        0.0480
     26  C         16.9620  -24.4100   -5.9390 C.2     1  UNL1        0.0070
     27  C         17.8230  -24.1700   -7.0160 C.2     1  UNL1        0.0100
@<TRIPOS>BOND
     1    19    20    1
     2    19    18    1
     3    20    16    1
     4    18    17    1
     5    17    16    1
     6    15    14    1
     7    16    14    1
     8    14    12   am
     9     6     7    2
    10     6     5    1
    11     7     8    1
    12    12     5    1
    13    12    13    2
    14    10     9    2
    15     5     4    2
    16     8     9    1
    17     8     3    2
    18     9    11    1
    19     4     3    1
    20     3     2    1
    21    11     1    1
    22     1     2    1
    23     1    21    1
    24    21    22    2
    25    21    27    1
    26    22    23    1
    27    27    26    2
    28    23    24    2
    29    26    24    1
    30    24    25    1
