@<TRIPOS>MOLECULE
18807_out_ligand_01.pdbqt
 30 33 0 0 0
SMALL
GASTEIGER

@<TRIPOS>ATOM
      1  C         17.8210  -22.8640   -8.7650 C.3     1  UNL1        0.1690
      2  C         19.2990  -22.5070   -8.6100 C.3     1  UNL1        0.0770
      3  C         19.8380  -22.1570   -9.9660 C.2     1  UNL1       -0.0380
      4  C         21.1770  -22.3940  -10.3040 C.2     1  UNL1        0.0250
      5  C         21.6610  -22.0330  -11.5700 C.2     1  UNL1        0.0320
      6  C         20.7980  -21.4470  -12.5060 C.2     1  UNL1        0.0180
      7  C         19.4660  -21.1960  -12.1640 C.2     1  UNL1        0.0190
      8  C         18.9850  -21.5470  -10.8960 C.2     1  UNL1        0.0450
      9  C         17.5750  -21.2340  -10.5370 C.2     1  UNL1        0.2940
     10  O         16.8940  -20.5000  -11.2400 O.2     1  UNL1       -0.2590
     11  O         17.1030  -21.7780   -9.3880 O.3     1  UNL1       -0.3070
     12  C         23.0890  -22.3190  -11.8910 C.2     1  UNL1        0.2560
     13  O         23.8490  -22.5390  -10.9560 O.2     1  UNL1       -0.2670
     14  N         23.4010  -22.2630  -13.2360 N.am    1  UNL1       -0.3220
     15  H         22.6750  -21.9250  -13.8510 H       1  UNL1        0.1690
     16  C         24.6490  -22.5310  -13.8510 C.2     1  UNL1        0.0410
     17  C         25.1840  -23.8250  -13.9250 C.2     1  UNL1        0.0370
     18  C         26.4230  -24.0700  -14.5380 C.2     1  UNL1       -0.0600
     19  C         26.9550  -25.4710  -14.6280 C.3     1  UNL1        0.0480
     20  C         27.1210  -23.0080  -15.1110 C.2     1  UNL1        0.0070
     21  C         26.6010  -21.7160  -15.0500 C.2     1  UNL1        0.0090
     22  C         25.3680  -21.4610  -14.4240 C.2     1  UNL1       -0.0350
     23  C         24.8680  -20.0420  -14.3950 C.3     1  UNL1        0.0500
     24  C         17.2010  -23.1790   -7.4180 C.2     1  UNL1       -0.0290
     25  C         17.9910  -23.7270   -6.3960 C.2     1  UNL1        0.0100
     26  C         17.4450  -23.9950   -5.1380 C.2     1  UNL1        0.0070
     27  C         16.1020  -23.7080   -4.8710 C.2     1  UNL1       -0.0620
     28  C         15.5070  -24.0310   -3.5330 C.3     1  UNL1        0.0480
     29  C         15.3080  -23.1720   -5.8900 C.2     1  UNL1        0.0070
     30  C         15.8530  -22.9030   -7.1480 C.2     1  UNL1        0.0100
@<TRIPOS>BOND
     1    20    21    2
     2    20    18    1
     3    21    22    1
     4    19    18    1
     5    18    17    2
     6    22    23    1
     7    22    16    2
     8    17    16    1
     9    15    14    1
    10    16    14    1
    11    14    12   am
    12     6     7    2
    13     6     5    1
    14     7     8    1
    15    12     5    1
    16    12    13    2
    17     5     4    2
    18    10     9    2
    19     8     9    1
    20     8     3    2
    21     9    11    1
    22     4     3    1
    23     3     2    1
    24    11     1    1
    25     1     2    1
    26     1    24    1
    27    24    30    2
    28    24    25    1
    29    30    29    1
    30    25    26    2
    31    29    27    2
    32    26    27    1
    33    27    28    1
