@<TRIPOS>MOLECULE
18801_out_ligand_01.pdbqt
 31 34 0 0 0
SMALL
GASTEIGER

@<TRIPOS>ATOM
      1  C         21.1290  -22.7560   -9.6050 C.2     1  UNL1        0.0320
      2  C         22.1830  -23.2490   -8.8250 C.2     1  UNL1        0.0180
      3  C         23.4770  -23.2990   -9.3540 C.2     1  UNL1        0.0190
      4  C         23.7260  -22.8410  -10.6540 C.2     1  UNL1        0.0450
      5  C         22.6810  -22.3210  -11.4270 C.2     1  UNL1       -0.0380
      6  C         21.3820  -22.2860  -10.9010 C.2     1  UNL1        0.0250
      7  C         22.9740  -21.8480  -12.8220 C.3     1  UNL1        0.0770
      8  C         24.4030  -21.3000  -12.8560 C.3     1  UNL1        0.1690
      9  O         25.3180  -22.3230  -12.4000 O.3     1  UNL1       -0.3070
     10  C         25.1000  -22.9430  -11.2130 C.2     1  UNL1        0.2940
     11  O         25.9710  -23.5800  -10.6370 O.2     1  UNL1       -0.2590
     12  C         19.7340  -22.6860   -9.0860 C.2     1  UNL1        0.2560
     13  N         19.5120  -23.3680   -7.9030 N.am    1  UNL1       -0.3230
     14  H         20.2710  -23.9390   -7.5520 H       1  UNL1        0.1690
     15  O         18.9040  -22.0740   -9.7470 O.2     1  UNL1       -0.2670
     16  C         18.3080  -23.4400   -7.1700 C.2     1  UNL1        0.0350
     17  C         17.2550  -24.1640   -7.7440 C.2     1  UNL1        0.0290
     18  C         16.0320  -24.2880   -7.0850 C.2     1  UNL1        0.0030
     19  C         15.8510  -23.6890   -5.8400 C.2     1  UNL1        0.0150
     20  C         16.8940  -22.9630   -5.2490 C.2     1  UNL1        0.0110
     21  C         18.1200  -22.8450   -5.9180 C.2     1  UNL1        0.0440
     22  C         16.6540  -22.3400   -3.9130 C.2     1  UNL1        0.1550
     23  C         17.8190  -21.7590   -3.1540 C.3     1  UNL1        0.0960
     24  O         15.5150  -22.3090   -3.4490 O.2     1  UNL1       -0.2930
     25  C         24.8990  -20.8120  -14.2080 C.2     1  UNL1       -0.0290
     26  C         25.7050  -19.6610  -14.2520 C.2     1  UNL1        0.0100
     27  C         26.1770  -19.1510  -15.4660 C.2     1  UNL1        0.0070
     28  C         25.8590  -19.7860  -16.6690 C.2     1  UNL1       -0.0620
     29  C         26.3370  -19.2240  -17.9740 C.3     1  UNL1        0.0480
     30  C         25.0430  -20.9190  -16.6380 C.2     1  UNL1        0.0070
     31  C         24.5720  -21.4300  -15.4230 C.2     1  UNL1        0.0100
@<TRIPOS>BOND
     1    29    28    1
     2    28    30    2
     3    28    27    1
     4    30    31    1
     5    27    26    2
     6    31    25    2
     7    26    25    1
     8    25     8    1
     9     8     7    1
    10     8     9    1
    11     7     5    1
    12     9    10    1
    13     5     6    1
    14     5     4    2
    15    10     4    1
    16    10    11    2
    17     6     1    2
    18     4     3    1
    19    15    12    2
    20     1    12    1
    21     1     2    1
    22     3     2    2
    23    12    13   am
    24    13    14    1
    25    13    16    1
    26    17    16    2
    27    17    18    1
    28    16    21    1
    29    18    19    2
    30    21    20    2
    31    19    20    1
    32    20    22    1
    33    22    24    2
    34    22    23    1
