@<TRIPOS>MOLECULE
18800_out_ligand_01.pdbqt
 30 33 0 0 0
SMALL
GASTEIGER

@<TRIPOS>ATOM
      1  C         17.8560  -23.0460   -8.3780 C.3     1  UNL1        0.1690
      2  C         19.2930  -22.5230   -8.3020 C.3     1  UNL1        0.0770
      3  C         19.7640  -22.2290   -9.6980 C.2     1  UNL1       -0.0380
      4  C         21.1150  -22.3430  -10.0510 C.2     1  UNL1        0.0250
      5  C         21.5340  -22.0400  -11.3550 C.2     1  UNL1        0.0320
      6  C         20.5940  -21.6350  -12.3120 C.2     1  UNL1        0.0180
      7  C         19.2490  -21.5030  -11.9560 C.2     1  UNL1        0.0190
      8  C         18.8340  -21.7950  -10.6500 C.2     1  UNL1        0.0450
      9  C         17.4050  -21.6100  -10.2790 C.2     1  UNL1        0.2940
     10  O         16.6270  -21.0380  -11.0300 O.2     1  UNL1       -0.2590
     11  O         17.0290  -22.0760   -9.0630 O.3     1  UNL1       -0.3070
     12  C         22.9790  -22.1920  -11.6880 C.2     1  UNL1        0.2560
     13  O         23.7480  -22.4720  -10.7760 O.2     1  UNL1       -0.2670
     14  N         23.3000  -21.9570  -13.0110 N.am    1  UNL1       -0.3230
     15  H         22.5660  -21.6010  -13.6080 H       1  UNL1        0.1690
     16  C         24.5700  -22.0650  -13.6170 C.2     1  UNL1        0.0350
     17  C         25.2060  -23.2780  -13.8850 C.2     1  UNL1        0.0360
     18  C         26.4700  -23.3080  -14.4980 C.2     1  UNL1       -0.0590
     19  C         27.1200  -24.6230  -14.8150 C.3     1  UNL1        0.0480
     20  C         27.0850  -22.1050  -14.8630 C.2     1  UNL1        0.0130
     21  C         26.4690  -20.8800  -14.5920 C.2     1  UNL1       -0.0590
     22  C         27.1210  -19.5940  -15.0100 C.3     1  UNL1        0.0480
     23  C         25.2080  -20.8700  -13.9810 C.2     1  UNL1        0.0360
     24  C         17.1890  -23.3570   -7.0480 C.2     1  UNL1       -0.0290
     25  C         17.9430  -23.2230   -5.8690 C.2     1  UNL1        0.0100
     26  C         17.3830  -23.4760   -4.6150 C.2     1  UNL1        0.0070
     27  C         16.0500  -23.8770   -4.5050 C.2     1  UNL1       -0.0620
     28  C         15.4350  -24.1180   -3.1590 C.3     1  UNL1        0.0480
     29  C         15.2840  -23.9970   -5.6680 C.2     1  UNL1        0.0070
     30  C         15.8460  -23.7440   -6.9240 C.2     1  UNL1        0.0100
@<TRIPOS>BOND
     1    22    21    1
     2    20    21    2
     3    20    18    1
     4    19    18    1
     5    21    23    1
     6    18    17    2
     7    23    16    2
     8    17    16    1
     9    16    14    1
    10    15    14    1
    11    14    12   am
    12     6     7    2
    13     6     5    1
    14     7     8    1
    15    12     5    1
    16    12    13    2
    17     5     4    2
    18    10     9    2
    19     8     9    1
    20     8     3    2
    21     9    11    1
    22     4     3    1
    23     3     2    1
    24    11     1    1
    25     1     2    1
    26     1    24    1
    27    24    30    2
    28    24    25    1
    29    30    29    1
    30    25    26    2
    31    29    27    2
    32    26    27    1
    33    27    28    1
