@<TRIPOS>MOLECULE
18825_out_ligand_01.pdbqt
 28 31 0 0 0
SMALL
GASTEIGER

@<TRIPOS>ATOM
      1  C         20.0040  -22.4100   -9.0020 C.3     1  UNL1        0.1690
      2  C         19.9500  -22.3280  -10.5300 C.3     1  UNL1        0.0770
      3  C         21.3560  -22.3520  -11.0560 C.2     1  UNL1       -0.0380
      4  C         21.7000  -21.7010  -12.2480 C.2     1  UNL1        0.0250
      5  C         23.0150  -21.7560  -12.7320 C.2     1  UNL1        0.0320
      6  C         23.9810  -22.4980  -12.0370 C.2     1  UNL1        0.0180
      7  C         23.6350  -23.1590  -10.8540 C.2     1  UNL1        0.0190
      8  C         22.3270  -23.0830  -10.3610 C.2     1  UNL1        0.0450
      9  C         21.9690  -23.8270   -9.1230 C.2     1  UNL1        0.2940
     10  O         22.7490  -24.6210   -8.6140 O.2     1  UNL1       -0.2590
     11  O         20.7340  -23.5960   -8.6120 O.3     1  UNL1       -0.3070
     12  C         23.3320  -21.0450  -14.0050 C.2     1  UNL1        0.2560
     13  O         22.5040  -20.2550  -14.4410 O.2     1  UNL1       -0.2670
     14  N         24.5710  -21.3360  -14.5440 N.am    1  UNL1       -0.3230
     15  H         25.1950  -21.9100  -13.9920 H       1  UNL1        0.1690
     16  C         25.1160  -20.8460  -15.7510 C.2     1  UNL1        0.0350
     17  C         25.9600  -19.7310  -15.6660 C.2     1  UNL1        0.0290
     18  C         26.5440  -19.1880  -16.8140 C.2     1  UNL1        0.0020
     19  C         26.2910  -19.7570  -18.0590 C.2     1  UNL1        0.0000
     20  C         25.4570  -20.8690  -18.1530 C.2     1  UNL1        0.0020
     21  C         24.8720  -21.4120  -17.0040 C.2     1  UNL1        0.0290
     22  C         18.6630  -22.4410   -8.2860 C.2     1  UNL1       -0.0290
     23  C         18.6500  -22.3510   -6.8830 C.2     1  UNL1        0.0100
     24  C         17.4490  -22.3550   -6.1680 C.2     1  UNL1        0.0070
     25  C         16.2280  -22.4600   -6.8370 C.2     1  UNL1       -0.0620
     26  C         14.9370  -22.4340   -6.0760 C.3     1  UNL1        0.0480
     27  C         16.2290  -22.5330   -8.2330 C.2     1  UNL1        0.0070
     28  C         17.4310  -22.5290   -8.9490 C.2     1  UNL1        0.0100
@<TRIPOS>BOND
     1    20    19    2
     2    20    21    1
     3    19    18    1
     4    21    16    2
     5    18    17    2
     6    16    17    1
     7    16    14    1
     8    14    12   am
     9    14    15    1
    10    13    12    2
    11    12     5    1
    12     5     4    1
    13     5     6    2
    14     4     3    2
    15     6     7    1
    16     3     2    1
    17     3     8    1
    18     7     8    2
    19     2     1    1
    20     8     9    1
    21     9    10    2
    22     9    11    1
    23     1    11    1
    24     1    22    1
    25    28    22    2
    26    28    27    1
    27    22    23    1
    28    27    25    2
    29    23    24    2
    30    25    24    1
    31    25    26    1
