@<TRIPOS>MOLECULE
18824_out_ligand_01.pdbqt
 29 32 0 0 0
SMALL
GASTEIGER

@<TRIPOS>ATOM
      1  C         17.9080  -22.9530   -8.3960 C.3     1  UNL1        0.1690
      2  C         19.3660  -22.4910   -8.3290 C.3     1  UNL1        0.0770
      3  C         19.8340  -22.1990   -9.7250 C.2     1  UNL1       -0.0380
      4  C         21.1730  -22.3700  -10.0970 C.2     1  UNL1        0.0250
      5  C         21.5910  -22.0670  -11.4010 C.2     1  UNL1        0.0320
      6  C         20.6590  -21.6080  -12.3410 C.2     1  UNL1        0.0180
      7  C         19.3250  -21.4220  -11.9680 C.2     1  UNL1        0.0190
      8  C         18.9120  -21.7130  -10.6620 C.2     1  UNL1        0.0450
      9  C         17.4980  -21.4710  -10.2710 C.2     1  UNL1        0.2940
     10  O         16.7370  -20.8520  -11.0020 O.2     1  UNL1       -0.2590
     11  O         17.1150  -21.9380   -9.0560 O.3     1  UNL1       -0.3070
     12  C         23.0240  -22.2780  -11.7540 C.2     1  UNL1        0.2560
     13  O         23.7810  -22.6550  -10.8670 O.2     1  UNL1       -0.2670
     14  N         23.3510  -21.9810  -13.0640 N.am    1  UNL1       -0.3230
     15  H         22.6350  -21.5520  -13.6340 H       1  UNL1        0.1690
     16  C         24.6100  -22.1250  -13.6870 C.2     1  UNL1        0.0350
     17  C         25.2710  -20.9510  -14.0680 C.2     1  UNL1        0.0290
     18  C         26.5210  -21.0060  -14.6870 C.2     1  UNL1        0.0030
     19  C         27.1210  -22.2380  -14.9380 C.2     1  UNL1        0.0070
     20  C         26.4680  -23.4230  -14.5820 C.2     1  UNL1       -0.0600
     21  C         27.1210  -24.7530  -14.8220 C.3     1  UNL1        0.0480
     22  C         25.2180  -23.3560  -13.9470 C.2     1  UNL1        0.0360
     23  C         17.2410  -23.2560   -7.0630 C.2     1  UNL1       -0.0290
     24  C         18.0520  -23.3900   -5.9230 C.2     1  UNL1        0.0100
     25  C         17.4990  -23.6480   -4.6660 C.2     1  UNL1        0.0070
     26  C         16.1170  -23.7680   -4.5130 C.2     1  UNL1       -0.0620
     27  C         15.5220  -24.0830   -3.1720 C.3     1  UNL1        0.0480
     28  C         15.3020  -23.6510   -5.6420 C.2     1  UNL1        0.0070
     29  C         15.8560  -23.3910   -6.9010 C.2     1  UNL1        0.0100
@<TRIPOS>BOND
     1    19    18    2
     2    19    20    1
     3    21    20    1
     4    18    17    1
     5    20    22    2
     6    17    16    2
     7    22    16    1
     8    16    14    1
     9    15    14    1
    10    14    12   am
    11     6     7    2
    12     6     5    1
    13     7     8    1
    14    12     5    1
    15    12    13    2
    16     5     4    2
    17    10     9    2
    18     8     9    1
    19     8     3    2
    20     9    11    1
    21     4     3    1
    22     3     2    1
    23    11     1    1
    24     1     2    1
    25     1    23    1
    26    23    29    2
    27    23    24    1
    28    29    28    1
    29    24    25    2
    30    28    26    2
    31    25    26    1
    32    26    27    1
