@<TRIPOS>MOLECULE
18823_out_ligand_01.pdbqt
 31 34 0 0 0
SMALL
GASTEIGER

@<TRIPOS>ATOM
      1  C         22.6560  -22.3560  -11.8620 C.2     1  UNL1        0.0770
      2  C         21.7280  -21.6250  -12.6350 C.2     1  UNL1        0.0380
      3  C         20.4330  -21.3920  -12.1600 C.2     1  UNL1        0.0210
      4  C         20.1070  -21.9160  -10.9220 C.2     1  UNL1        0.0480
      5  C         21.0080  -22.6450  -10.1800 C.2     1  UNL1        0.0510
      6  C         22.2940  -22.8930  -10.6230 C.2     1  UNL1        0.0550
      7  C         20.3410  -23.0510   -8.9480 C.2     1  UNL1        0.2660
      8  O         20.9320  -23.7190   -8.1190 O.2     1  UNL1       -0.2670
      9  N         19.0560  -22.5430   -8.9880 N.am    1  UNL1       -0.2440
     10  C         18.8600  -21.8490  -10.1670 C.2     1  UNL1        0.2660
     11  O         17.8970  -21.2570  -10.6200 O.2     1  UNL1       -0.2670
     12  C         18.0720  -22.7120   -7.9610 C.2     1  UNL1        0.0460
     13  C         18.2110  -22.1070   -6.6990 C.2     1  UNL1        0.0310
     14  C         17.2510  -22.2700   -5.6870 C.2     1  UNL1        0.0190
     15  C         16.1200  -23.0530   -5.9100 C.2     1  UNL1        0.0320
     16  C         15.9520  -23.6510   -7.1580 C.2     1  UNL1        0.0190
     17  C         16.9170  -23.4860   -8.1640 C.2     1  UNL1        0.0310
     18  C         15.0710  -23.2540   -4.8760 C.2     1  UNL1        0.2490
     19  N         14.1860  -24.2800   -5.0650 N.am    1  UNL1       -0.3660
     20  H         14.0540  -24.7170   -5.9660 H       1  UNL1        0.1590
     21  H         13.4100  -24.3120   -4.4160 H       1  UNL1        0.1590
     22  O         14.9740  -22.5140   -3.9060 O.2     1  UNL1       -0.2680
     23  O         23.9300  -22.6390  -12.3040 O.2     1  UNL1       -0.3110
     24  C         24.6990  -21.5810  -12.7300 C.2     1  UNL1        0.0760
     25  C         24.7560  -21.3450  -14.0990 C.2     1  UNL1        0.0380
     26  C         25.5390  -20.2990  -14.5880 C.2     1  UNL1        0.0100
     27  C         26.2840  -19.4890  -13.7150 C.2     1  UNL1       -0.0560
     28  C         27.1210  -18.3750  -14.2810 C.3     1  UNL1        0.0490
     29  C         26.2520  -19.7550  -12.3300 C.2     1  UNL1       -0.0530
     30  C         25.4570  -20.8080  -11.8490 C.2     1  UNL1        0.0440
     31  C         27.0470  -18.9290  -11.3550 C.3     1  UNL1        0.0490
@<TRIPOS>BOND
     1    26    25    1
     2    26    27    2
     3    28    27    1
     4    25    24    2
     5    27    29    1
     6    24    23    1
     7    24    30    1
     8     2     3    1
     9     2     1    2
    10    29    30    2
    11    29    31    1
    12    23     1    1
    13     3     4    2
    14     1     6    1
    15     4     5    1
    16     4    10    1
    17     6     5    2
    18    11    10    2
    19     5     7    1
    20    10     9   am
    21     9     7   am
    22     9    12    1
    23     7     8    2
    24    17    12    2
    25    17    16    1
    26    12    13    1
    27    16    15    2
    28    13    14    2
    29    20    19    1
    30    15    14    1
    31    15    18    1
    32    19    18   am
    33    19    21    1
    34    18    22    2
