@<TRIPOS>MOLECULE
1882_out_ligand_01.pdbqt
 31 35 0 0 0
SMALL
GASTEIGER

@<TRIPOS>ATOM
      1  C         18.9490  -22.0960  -10.4520 C.2     1  UNL1        0.1730
      2  N         18.1040  -22.5040   -9.5760 N.2     1  UNL1       -0.2350
      3  C         18.6490  -23.3930   -8.5250 C.3     1  UNL1        0.2440
      4  N         20.0790  -23.3220   -8.2680 N.pl3   1  UNL1       -0.3570
      5  C         20.8570  -23.0020   -9.3220 C.ar    1  UNL1        0.0870
      6  S         22.5240  -23.3090   -9.4150 S.2     1  UNL1       -0.0740
      7  C         22.6110  -22.6070  -10.9650 C.ar    1  UNL1        0.0200
      8  C         21.3880  -22.1240  -11.4000 C.ar    1  UNL1       -0.0240
      9  C         20.3590  -22.3800  -10.4410 C.ar    1  UNL1        0.0570
     10  C         21.2750  -21.4730  -12.7430 C.3     1  UNL1        0.0710
     11  C         22.6680  -21.1010  -13.3040 C.3     1  UNL1        0.2780
     12  N         23.6450  -22.2050  -13.1640 N.3     1  UNL1        0.0970
     13  C         23.8990  -22.5040  -11.7310 C.3     1  UNL1        0.3190
     14  H         20.4280  -24.0050   -7.6030 H       1  UNL1        0.1620
     15  C         17.9360  -23.1470   -7.2020 C.2     1  UNL1        0.0070
     16  C         18.5760  -22.3730   -6.2110 C.2     1  UNL1        0.0140
     17  C         17.9700  -22.1340   -4.9760 C.2     1  UNL1        0.0240
     18  C         16.7170  -22.6770   -4.7090 C.2     1  UNL1        0.0350
     19 CL         15.9680  -22.3870   -3.1880 Cl      1  UNL1       -0.0840
     20  C         16.0720  -23.4620   -5.6600 C.2     1  UNL1        0.0480
     21  C         16.6810  -23.7010   -6.8970 C.2     1  UNL1        0.0450
     22 CL         15.8300  -24.7210   -8.0040 Cl      1  UNL1       -0.0840
     23  O         18.4870  -21.3340  -11.4580 O.2     1  UNL1       -0.3440
     24  H         19.2470  -21.1360  -12.0300 H       1  UNL1        0.2190
     25  C         24.8970  -21.8680  -13.8590 C.3     1  UNL1        0.3110
     26  C         24.8160  -22.0170  -15.3630 C.2     1  UNL1       -0.0300
     27  C         24.5390  -23.2640  -15.9440 C.2     1  UNL1        0.0090
     28  C         24.4740  -23.3990  -17.3320 C.2     1  UNL1        0.0010
     29  C         24.6880  -22.2930  -18.1530 C.2     1  UNL1        0.0000
     30  C         24.9660  -21.0490  -17.5880 C.2     1  UNL1        0.0010
     31  C         25.0310  -20.9120  -16.2010 C.2     1  UNL1        0.0090
@<TRIPOS>BOND
     1    29    30    2
     2    29    28    1
     3    30    31    1
     4    28    27    2
     5    31    26    2
     6    27    26    1
     7    26    25    1
     8    25    12    1
     9    11    12    1
    10    11    10    1
    11    12    13    1
    12    10     8    1
    13    24    23    1
    14    13     7    1
    15    23     1    1
    16     8     7   ar
    17     8     9   ar
    18     7     6   ar
    19     1     9    1
    20     1     2    2
    21     9     5   ar
    22     2     3    1
    23     6     5   ar
    24     5     4    1
    25     3     4    1
    26     3    15    1
    27     4    14    1
    28    22    21    1
    29    15    21    2
    30    15    16    1
    31    21    20    1
    32    16    17    2
    33    20    18    2
    34    17    18    1
    35    18    19    1
