@<TRIPOS>MOLECULE
18834_out_ligand_01.pdbqt
 34 37 0 0 0
SMALL
GASTEIGER

@<TRIPOS>ATOM
      1  C         21.0230  -22.3470  -10.7420 C.2     1  UNL1        0.0340
      2  C         19.9560  -21.5430  -11.1520 C.2     1  UNL1        0.0310
      3  C         18.6670  -21.7670  -10.6580 C.2     1  UNL1        0.0270
      4  C         18.4420  -22.8090   -9.7560 C.2     1  UNL1        0.0800
      5  C         19.4990  -23.6140   -9.3290 C.2     1  UNL1        0.0270
      6  C         20.7840  -23.3820   -9.8260 C.2     1  UNL1        0.0310
      7  S         16.8070  -23.0820   -9.1250 S.O2    1  UNL1        0.2630
      8  O         16.1060  -23.9050  -10.0880 O.2     1  UNL1       -0.2000
      9  O         16.2590  -21.8150   -8.6930 O.2     1  UNL1       -0.2000
     10  N         17.0870  -24.0720   -7.7870 N.pl3   1  UNL1       -0.2800
     11  H         16.9110  -25.0520   -8.0050 H       1  UNL1        0.1790
     12  C         16.6880  -23.6030   -6.5000 C.2     1  UNL1        0.0530
     13  C         15.5090  -24.1290   -5.9630 C.2     1  UNL1        0.0310
     14  C         15.0700  -23.7190   -4.7080 C.2     1  UNL1        0.0030
     15  C         15.8100  -22.7830   -3.9880 C.2     1  UNL1        0.0120
     16  C         16.9990  -22.2460   -4.5060 C.2     1  UNL1       -0.0240
     17  C         17.7330  -21.3030   -3.7660 C.2     1  UNL1        0.0120
     18  C         17.4630  -22.6580   -5.7800 C.2     1  UNL1        0.0010
     19  C         18.9190  -20.7650   -4.2650 C.2     1  UNL1        0.0010
     20  C         19.3890  -21.1640   -5.5100 C.2     1  UNL1        0.0010
     21  C         18.6710  -22.0990   -6.2580 C.2     1  UNL1        0.0140
     22  N         22.3470  -22.1830  -11.1870 N.am    1  UNL1       -0.3270
     23  C         23.4130  -21.6130  -10.5110 C.2     1  UNL1        0.2310
     24  O         23.3610  -21.0700   -9.4100 O.2     1  UNL1       -0.2720
     25  H         22.5790  -22.5990  -12.0840 H       1  UNL1        0.1690
     26  C         24.7160  -21.6080  -11.3030 C.3     1  UNL1        0.1820
     27  S         25.3270  -23.2840  -11.7010 S.3     1  UNL1       -0.1210
     28  C         25.0670  -23.3100  -13.4670 C.2     1  UNL1        0.0010
     29  C         24.6000  -22.1560  -14.1000 C.2     1  UNL1        0.0190
     30  C         24.3790  -22.1460  -15.4800 C.2     1  UNL1        0.0080
     31  C         24.6440  -23.2830  -16.2470 C.2     1  UNL1       -0.0620
     32  C         24.3730  -23.2870  -17.7230 C.3     1  UNL1        0.0480
     33  C         25.1170  -24.4370  -15.6120 C.2     1  UNL1        0.0080
     34  C         25.3370  -24.4470  -14.2320 C.2     1  UNL1        0.0190
@<TRIPOS>BOND
     1    32    31    1
     2    31    33    2
     3    31    30    1
     4    33    34    1
     5    30    29    2
     6    34    28    2
     7    29    28    1
     8    28    27    1
     9    25    22    1
    10    27    26    1
    11    26    23    1
    12    22     1    1
    13    22    23   am
    14     2     1    2
    15     2     3    1
    16     1     6    1
    17     3     4    2
    18    23    24    2
    19     8     7    2
    20     6     5    2
    21     4     5    1
    22     4     7    1
    23     7     9    2
    24     7    10    1
    25    11    10    1
    26    10    12    1
    27    12    13    2
    28    12    18    1
    29    21    18    1
    30    21    20    2
    31    13    14    1
    32    18    16    2
    33    20    19    1
    34    14    15    2
    35    16    15    1
    36    16    17    1
    37    19    17    2
