@<TRIPOS>MOLECULE
1883_out_ligand_01.pdbqt
 36 39 0 0 0
SMALL
GASTEIGER

@<TRIPOS>ATOM
      1  C         19.9420  -21.8430  -11.1580 C.2     1  UNL1        0.0330
      2  C         18.7300  -21.2820  -11.6350 C.2     1  UNL1        0.0180
      3  C         17.5020  -21.6120  -11.0510 C.2     1  UNL1        0.0190
      4  C         17.5260  -22.5130  -10.0060 C.2     1  UNL1        0.0480
      5  C         18.7050  -23.0780   -9.5540 C.2     1  UNL1        0.0490
      6  C         19.9340  -22.7700  -10.1060 C.2     1  UNL1        0.0350
      7  C         18.3660  -23.9790   -8.4540 C.2     1  UNL1        0.2620
      8  O         19.1840  -24.6260   -7.8300 O.2     1  UNL1       -0.2670
      9  N         17.0110  -23.9090   -8.2970 N.am    1  UNL1       -0.2760
     10  C         16.4390  -23.0420   -9.1830 C.2     1  UNL1        0.2620
     11  O         15.2710  -22.7200   -9.3020 O.2     1  UNL1       -0.2670
     12  C         21.2110  -21.4300  -11.8220 C.2     1  UNL1        0.2560
     13  N         22.3640  -21.9460  -11.2560 N.am    1  UNL1       -0.3230
     14  H         22.2660  -22.4660  -10.3930 H       1  UNL1        0.1690
     15  O         21.1350  -20.6430  -12.7570 O.2     1  UNL1       -0.2670
     16  C         23.6920  -21.7100  -11.6730 C.2     1  UNL1        0.0350
     17  C         24.6570  -21.5570  -10.6660 C.2     1  UNL1        0.0290
     18  C         25.9920  -21.2980  -10.9850 C.2     1  UNL1        0.0030
     19  C         26.3790  -21.1900  -12.3170 C.2     1  UNL1        0.0170
     20  C         25.4240  -21.3500  -13.3250 C.2     1  UNL1        0.0340
     21  C         24.0870  -21.6240  -13.0070 C.2     1  UNL1        0.0460
     22  C         25.8120  -21.2450  -14.7510 C.2     1  UNL1        0.2520
     23  N         25.0750  -22.0360  -15.6080 N.am    1  UNL1       -0.3490
     24  H         24.4100  -22.6780  -15.1970 H       1  UNL1        0.1630
     25  O         26.7380  -20.5160  -15.0770 O.2     1  UNL1       -0.2680
     26  C         25.2990  -22.1300  -17.0580 C.3     1  UNL1        0.0220
     27  C         24.9200  -20.8120  -17.7520 C.3     1  UNL1        0.0370
     28  C         24.3940  -23.2480  -17.6070 C.3     1  UNL1        0.0370
     29  C         26.7600  -22.4940  -17.3740 C.3     1  UNL1        0.0370
     30  C         16.2840  -24.5970   -7.2520 C.3     1  UNL1        0.1750
     31  C         16.1860  -23.7610   -6.0070 C.2     1  UNL1       -0.0220
     32  C         15.0380  -23.0180   -5.7120 C.2     1  UNL1        0.0120
     33  C         15.0020  -22.2320   -4.5630 C.2     1  UNL1        0.0200
     34  C         16.1180  -22.2130   -3.7460 C.2     1  UNL1        0.1160
     35  N         17.2440  -22.9120   -3.9990 N.2     1  UNL1       -0.2730
     36  C         17.2580  -23.6620   -5.1240 C.2     1  UNL1        0.1240
@<TRIPOS>BOND
     1    27    26    1
     2    28    26    1
     3    29    26    1
     4    26    23    1
     5    23    24    1
     6    23    22   am
     7    25    22    2
     8    22    20    1
     9    20    21    1
    10    20    19    2
    11    21    16    2
    12    15    12    2
    13    19    18    1
    14    12    13   am
    15    12     1    1
    16    16    13    1
    17    16    17    1
    18     2     1    2
    19     2     3    1
    20    13    14    1
    21     1     6    1
    22     3     4    2
    23    18    17    2
    24     6     5    2
    25     4     5    1
    26     4    10    1
    27     5     7    1
    28    11    10    2
    29    10     9   am
    30     7     9   am
    31     7     8    2
    32     9    30    1
    33    30    31    1
    34    31    32    2
    35    31    36    1
    36    32    33    1
    37    36    35    2
    38    33    34    2
    39    35    34    1
