@<TRIPOS>MOLECULE
18854_out_ligand_01.pdbqt
 28 30 0 0 0
SMALL
GASTEIGER

@<TRIPOS>ATOM
      1  C         23.7560  -21.7500  -13.5030 C.2     1  UNL1        0.0800
      2  C         24.2550  -22.1580  -12.2650 C.2     1  UNL1        0.0270
      3  C         23.4110  -22.1740  -11.1480 C.2     1  UNL1        0.0310
      4  C         22.0710  -21.7970  -11.2650 C.2     1  UNL1        0.0350
      5  C         21.5790  -21.4080  -12.5190 C.2     1  UNL1        0.0310
      6  C         22.4160  -21.3880  -13.6390 C.2     1  UNL1        0.0270
      7  N         21.1620  -21.7820  -10.1890 N.am    1  UNL1       -0.3230
      8  C         20.7560  -22.8520   -9.4150 C.2     1  UNL1        0.2570
      9  O         21.0700  -24.0280   -9.5370 O.2     1  UNL1       -0.2670
     10  H         20.7520  -20.8820   -9.9640 H       1  UNL1        0.1690
     11  C         19.7810  -22.4880   -8.3560 C.2     1  UNL1        0.0430
     12  C         20.3250  -22.0070   -7.1570 C.2     1  UNL1        0.0180
     13  C         19.4890  -21.7010   -6.0920 C.2     1  UNL1        0.0020
     14  C         18.1120  -21.8700   -6.2230 C.2     1  UNL1        0.0120
     15  C         17.5450  -22.3280   -7.4260 C.2     1  UNL1       -0.0250
     16  C         16.1530  -22.4740   -7.5410 C.2     1  UNL1        0.0120
     17  C         18.3790  -22.6350   -8.5290 C.2     1  UNL1       -0.0100
     18  C         15.5700  -22.9040   -8.7320 C.2     1  UNL1        0.0010
     19  C         16.3720  -23.1850   -9.8300 C.2     1  UNL1        0.0010
     20  C         17.7580  -23.0480   -9.7340 C.2     1  UNL1        0.0130
     21  S         24.8190  -21.7540  -14.9220 S.O2    1  UNL1        0.2650
     22  O         25.9830  -22.5640  -14.6480 O.2     1  UNL1       -0.2000
     23  O         24.9590  -20.3810  -15.3640 O.2     1  UNL1       -0.2000
     24  N         23.8960  -22.4930  -16.0890 N.am    1  UNL1       -0.2510
     25  C         24.3950  -23.1240  -17.2340 C.2     1  UNL1        0.2270
     26  C         23.3290  -23.6490  -18.1530 C.3     1  UNL1        0.1180
     27  O         25.5870  -23.2640  -17.4640 O.2     1  UNL1       -0.2730
     28  H         22.9010  -22.4400  -15.9010 H       1  UNL1        0.1810
@<TRIPOS>BOND
     1    26    25    1
     2    27    25    2
     3    25    24   am
     4    24    28    1
     5    24    21    1
     6    23    21    2
     7    21    22    2
     8    21     1    1
     9     6     1    2
    10     6     5    1
    11     1     2    1
    12     5     4    2
    13     2     3    2
    14     4     3    1
    15     4     7    1
    16     7    10    1
    17     7     8   am
    18    19    20    2
    19    19    18    1
    20    20    17    1
    21     9     8    2
    22     8    11    1
    23    18    16    2
    24    17    11    2
    25    17    15    1
    26    11    12    1
    27    16    15    1
    28    15    14    2
    29    12    13    2
    30    14    13    1
