@<TRIPOS>MOLECULE
18855_out_ligand_01.pdbqt
 32 34 0 0 0
SMALL
GASTEIGER

@<TRIPOS>ATOM
      1  C         21.1650  -23.3120   -8.4640 C.2     1  UNL1        0.0340
      2  C         20.8290  -22.2100   -7.6720 C.2     1  UNL1        0.0310
      3  C         19.6810  -22.2310   -6.8740 C.2     1  UNL1        0.0270
      4  C         18.8640  -23.3630   -6.8690 C.2     1  UNL1        0.0790
      5  C         19.1940  -24.4790   -7.6400 C.2     1  UNL1        0.0270
      6  C         20.3410  -24.4470   -8.4370 C.2     1  UNL1        0.0310
      7  S         17.3800  -23.3900   -5.8980 S.O2    1  UNL1        0.2590
      8  O         17.1380  -22.0610   -5.3820 O.2     1  UNL1       -0.2010
      9  O         17.4450  -24.5520   -5.0430 O.2     1  UNL1       -0.2010
     10  N         16.2270  -23.6940   -7.0550 N.3     1  UNL1       -0.3080
     11  H         15.5800  -24.4680   -6.8850 H       1  UNL1        0.1720
     12  C         15.8010  -22.6270   -7.9600 C.3     1  UNL1        0.2160
     13  C         16.0200  -23.0940   -9.3900 C.2     1  UNL1        0.1770
     14  O         15.3680  -24.0200   -9.8790 O.2     1  UNL1       -0.2910
     15  C         17.0440  -22.3940  -10.2230 C.2     1  UNL1        0.0110
     16  C         18.2720  -22.9810  -10.5550 C.2     1  UNL1        0.0150
     17  C         19.1940  -22.2820  -11.3400 C.2     1  UNL1        0.0010
     18  C         18.8980  -20.9980  -11.7950 C.2     1  UNL1        0.0000
     19  C         17.6810  -20.4070  -11.4660 C.2     1  UNL1        0.0010
     20  C         16.7560  -21.1010  -10.6830 C.2     1  UNL1        0.0150
     21  N         22.2880  -23.3580   -9.3150 N.am    1  UNL1       -0.3270
     22  C         23.1680  -22.3320   -9.6130 C.2     1  UNL1        0.2260
     23  O         23.1450  -21.1940   -9.1520 O.2     1  UNL1       -0.2730
     24  H         22.4380  -24.2340   -9.8020 H       1  UNL1        0.1690
     25  C         24.2270  -22.7370  -10.6270 C.3     1  UNL1        0.1430
     26  C         24.0720  -21.9940  -11.9330 C.2     1  UNL1       -0.0320
     27  C         22.7830  -21.8950  -12.4890 C.2     1  UNL1        0.0090
     28  C         22.5690  -21.2480  -13.7070 C.2     1  UNL1        0.0010
     29  C         23.6420  -20.6890  -14.3940 C.2     1  UNL1        0.0010
     30  C         24.9300  -20.7830  -13.8660 C.2     1  UNL1        0.0190
     31  C         25.1470  -21.4350  -12.6460 C.2     1  UNL1        0.0170
     32 BR         26.9430  -21.5250  -12.0270 Br      1  UNL1       -0.0510
@<TRIPOS>BOND
     1    29    30    2
     2    29    28    1
     3    30    31    1
     4    28    27    2
     5    31    32    1
     6    31    26    2
     7    27    26    1
     8    26    25    1
     9    18    19    2
    10    18    17    1
    11    19    20    1
    12    17    16    2
    13    20    15    2
    14    25    22    1
    15    16    15    1
    16    15    13    1
    17    14    13    2
    18    24    21    1
    19    22    21   am
    20    22    23    2
    21    13    12    1
    22    21     1    1
    23     1     6    2
    24     1     2    1
    25     6     5    1
    26    12    10    1
    27     2     3    2
    28     5     4    2
    29    10    11    1
    30    10     7    1
    31     3     4    1
    32     4     7    1
    33     7     8    2
    34     7     9    2
