@<TRIPOS>MOLECULE
1887_out_ligand_01.pdbqt
 32 35 0 0 0
SMALL
GASTEIGER

@<TRIPOS>ATOM
      1  C         18.6440  -22.0410  -10.0380 C.2     1  UNL1        0.0330
      2  C         18.4690  -21.2500  -11.2030 C.2     1  UNL1        0.0180
      3  C         19.5220  -21.0580  -12.1050 C.2     1  UNL1        0.0190
      4  C         20.7230  -21.6780  -11.8170 C.2     1  UNL1        0.0480
      5  C         20.8920  -22.4640  -10.6910 C.2     1  UNL1        0.0490
      6  C         19.8730  -22.6720   -9.7830 C.2     1  UNL1        0.0350
      7  C         22.2660  -22.9630  -10.7050 C.2     1  UNL1        0.2620
      8  O         22.7480  -23.6780   -9.8490 O.2     1  UNL1       -0.2670
      9  N         22.8500  -22.4580  -11.8340 N.am    1  UNL1       -0.2760
     10  C         21.9880  -21.6770  -12.5510 C.2     1  UNL1        0.2620
     11  O         22.1740  -21.0740  -13.5900 O.2     1  UNL1       -0.2670
     12  C         17.5290  -22.2650   -9.0740 C.2     1  UNL1        0.2560
     13  O         16.3840  -22.1980   -9.5010 O.2     1  UNL1       -0.2670
     14  N         17.9240  -22.5650   -7.7820 N.am    1  UNL1       -0.3220
     15  H         18.9190  -22.7060   -7.6420 H       1  UNL1        0.1690
     16  C         17.1010  -22.7870   -6.6470 C.2     1  UNL1        0.0500
     17  C         15.9260  -23.5480   -6.7230 C.2     1  UNL1        0.0300
     18  C         15.1220  -23.7590   -5.5990 C.2     1  UNL1        0.0020
     19  C         15.4740  -23.2100   -4.3750 C.2     1  UNL1        0.0010
     20  C         16.6330  -22.4470   -4.2780 C.2     1  UNL1        0.0180
     21  C         17.4570  -22.2230   -5.4030 C.2     1  UNL1        0.0740
     22  C         18.6840  -21.3730   -5.1870 C.3     1  UNL1        0.4190
     23  F         19.7650  -21.7520   -5.9330 F       1  UNL1       -0.1660
     24  F         18.4740  -20.0630   -5.4970 F       1  UNL1       -0.1660
     25  F         19.1120  -21.3860   -3.8940 F       1  UNL1       -0.1660
     26  C         24.2070  -22.7490  -12.2370 C.3     1  UNL1        0.1750
     27  C         25.0840  -21.5310  -12.1530 C.2     1  UNL1       -0.0220
     28  C         25.5740  -20.9040  -13.3040 C.2     1  UNL1        0.0120
     29  C         26.4000  -19.7900  -13.1830 C.2     1  UNL1        0.0200
     30  C         26.7160  -19.3440  -11.9120 C.2     1  UNL1        0.1160
     31  N         26.2740  -19.9290  -10.7790 N.2     1  UNL1       -0.2730
     32  C         25.4750  -21.0110  -10.9230 C.2     1  UNL1        0.1240
@<TRIPOS>BOND
     1    11    10    2
     2    28    29    1
     3    28    27    2
     4    29    30    2
     5    10     9   am
     6    10     4    1
     7    26    27    1
     8    26     9    1
     9    27    32    1
    10     3     4    2
    11     3     2    1
    12    30    31    1
    13     9     7   am
    14     4     5    1
    15     2     1    2
    16    32    31    2
    17     7     5    1
    18     7     8    2
    19     5     6    2
    20     1     6    1
    21     1    12    1
    22    13    12    2
    23    12    14   am
    24    14    15    1
    25    14    16    1
    26    17    16    2
    27    17    18    1
    28    16    21    1
    29    23    22    1
    30    18    19    2
    31    24    22    1
    32    21    22    1
    33    21    20    2
    34    22    25    1
    35    19    20    1
