@<TRIPOS>MOLECULE
18886_out_ligand_01.pdbqt
 31 34 0 0 0
SMALL
GASTEIGER

@<TRIPOS>ATOM
      1  C         18.0570  -23.6290   -8.5420 C.2     1  UNL1        0.0800
      2  C         19.3110  -24.2040   -8.3220 C.2     1  UNL1        0.0270
      3  C         20.3770  -23.8900   -9.1720 C.2     1  UNL1        0.0310
      4  C         20.1930  -23.0170  -10.2480 C.2     1  UNL1        0.0350
      5  C         18.9220  -22.4700  -10.4730 C.2     1  UNL1        0.0310
      6  C         17.8530  -22.7770   -9.6280 C.2     1  UNL1        0.0270
      7  N         21.2130  -22.6500  -11.1420 N.am    1  UNL1       -0.3200
      8  C         22.3550  -21.9030  -10.8910 C.2     1  UNL1        0.2960
      9  O         22.6700  -21.4100   -9.8130 O.2     1  UNL1       -0.2640
     10  H         21.1270  -22.9510  -12.1090 H       1  UNL1        0.1690
     11  C         23.1850  -21.7470  -12.1120 C.2     1  UNL1        0.2560
     12  N         22.6730  -21.4070  -13.3420 N.2     1  UNL1       -0.0340
     13  C         23.7200  -21.3730  -14.1310 C.cat   1  UNL1        0.7510
     14  N         23.7960  -21.0860  -15.4660 N.2     1  UNL1       -0.0730
     15  N         24.8590  -21.6900  -13.3840 N.pl3   1  UNL1       -0.0690
     16  C         24.9820  -21.1260  -15.9900 C.2     1  UNL1        0.1380
     17  C         26.2520  -21.4510  -15.2780 C.2     1  UNL1        0.0400
     18  C         26.1170  -21.7250  -13.9730 C.2     1  UNL1        0.1390
     19  N         24.5210  -21.9350  -12.0960 N.pl3   1  UNL1       -0.1260
     20  S         16.7010  -24.0350   -7.4660 S.O2    1  UNL1        0.2630
     21  O         15.5880  -24.4560   -8.2890 O.2     1  UNL1       -0.2000
     22  O         17.2180  -24.8930   -6.4190 O.2     1  UNL1       -0.2000
     23  N         16.3400  -22.5640   -6.7230 N.pl3   1  UNL1       -0.2800
     24  H         15.3530  -22.3290   -6.7940 H       1  UNL1        0.1790
     25  C         17.0530  -22.1570   -5.5570 C.2     1  UNL1        0.0480
     26  C         18.2450  -21.4390   -5.6920 C.2     1  UNL1        0.0300
     27  C         18.9690  -21.0520   -4.5650 C.2     1  UNL1        0.0020
     28  C         18.5020  -21.3770   -3.2960 C.2     1  UNL1        0.0010
     29  C         17.3070  -22.0830   -3.1530 C.2     1  UNL1        0.0090
     30  C         16.5660  -22.4790   -4.2770 C.2     1  UNL1       -0.0350
     31  C         15.2760  -23.2240   -4.0750 C.3     1  UNL1        0.0500
@<TRIPOS>BOND
     1    16    14    2
     2    16    17    1
     3    14    13    1
     4    17    18    2
     5    13    15    1
     6    13    12    2
     7    18    15    1
     8    15    19    1
     9    12    11    2
    10    11    19    1
    11    11     8    1
    12    10     7    1
    13     7     8   am
    14     7     4    1
    15     8     9    2
    16     5     4    2
    17     5     6    1
    18     4     3    1
    19     6     1    2
    20     3     2    2
    21     1     2    1
    22     1    20    1
    23    21    20    2
    24    20    23    1
    25    20    22    2
    26    24    23    1
    27    23    25    1
    28    26    25    2
    29    26    27    1
    30    25    30    1
    31    27    28    2
    32    30    31    1
    33    30    29    2
    34    28    29    1
