@<TRIPOS>MOLECULE
18909_out_ligand_01.pdbqt
 40 44 0 0 0
SMALL
GASTEIGER

@<TRIPOS>ATOM
      1  N         23.1290  -22.5700  -11.3430 N.am    1  UNL1       -0.3210
      2  C         23.0560  -22.9500  -10.0140 C.2     1  UNL1        0.2760
      3  O         23.9840  -23.3320   -9.3110 O.2     1  UNL1       -0.2660
      4  H         22.2340  -22.2560  -11.7150 H       1  UNL1        0.1690
      5  C         21.6830  -22.8280   -9.4910 C.2     1  UNL1        0.1480
      6  C         21.2800  -22.8380   -8.1310 C.2     1  UNL1        0.0890
      7  C         19.9160  -22.7090   -8.1600 C.2     1  UNL1        0.1230
      8  N         19.5760  -22.5690   -9.4800 N.pl3   1  UNL1       -0.2400
      9  N         18.9750  -22.6920   -7.1920 N.pl3   1  UNL1       -0.3660
     10  N         20.6200  -22.7000  -10.3190 N.2     1  UNL1       -0.1650
     11  C         18.2060  -22.4770   -9.9570 C.3     1  UNL1        0.2210
     12  C         17.2450  -22.1220   -8.8050 C.3     1  UNL1        0.0670
     13  C         17.5820  -22.9440   -7.5500 C.3     1  UNL1        0.1250
     14  H         19.2210  -22.9490   -6.2350 H       1  UNL1        0.1610
     15  C         18.0660  -21.4650  -11.0730 C.3     1  UNL1        0.4090
     16  F         19.0590  -20.5490  -11.0870 F       1  UNL1       -0.1690
     17  F         18.1240  -22.1010  -12.2750 F       1  UNL1       -0.1690
     18  F         16.8850  -20.8090  -11.0370 F       1  UNL1       -0.1690
     19  C         16.5970  -22.6840   -6.4360 C.2     1  UNL1        0.0050
     20  C         15.2390  -22.4440   -6.5490 C.2     1  UNL1        0.0170
     21  C         14.6130  -22.2400   -5.2870 C.2     1  UNL1        0.0080
     22  C         15.5110  -22.3300   -4.2460 C.2     1  UNL1        0.0500
     23  S         17.0920  -22.6700   -4.7920 S.3     1  UNL1       -0.1040
     24  C         24.2570  -22.5170  -12.1780 C.2     1  UNL1        0.0400
     25  C         25.0730  -21.3930  -12.3060 C.2     1  UNL1        0.0660
     26  C         26.1580  -21.4060  -13.1900 C.2     1  UNL1        0.0800
     27  C         26.4770  -22.5480  -13.9200 C.2     1  UNL1        0.0730
     28  C         25.6680  -23.6790  -13.7790 C.2     1  UNL1        0.1070
     29  C         24.5610  -23.6690  -12.9140 C.2     1  UNL1        0.0650
     30  O         26.9640  -20.2940  -13.2760 O.2     1  UNL1       -0.3110
     31  C         26.7910  -19.5660  -14.4330 C.2     1  UNL1        0.0760
     32  C         26.3160  -20.1860  -15.5900 C.2     1  UNL1        0.0370
     33  C         26.1180  -19.4280  -16.7430 C.2     1  UNL1        0.0030
     34  C         26.3780  -18.0530  -16.7300 C.2     1  UNL1        0.0070
     35  C         26.8200  -17.4210  -15.5580 C.2     1  UNL1       -0.0590
     36  C         27.1210  -15.9490  -15.5570 C.3     1  UNL1        0.0480
     37  C         27.0270  -18.1890  -14.4060 C.2     1  UNL1        0.0440
     38  N         25.9800  -24.8910  -14.5430 N.pl3   1  UNL1       -0.1160
     39  O         25.2640  -25.1590  -15.5180 O.2     1  UNL1       -0.5320
     40  O         26.9390  -25.5800  -14.1680 O.2     1  UNL1       -0.5320
@<TRIPOS>BOND
     1    33    34    2
     2    33    32    1
     3    34    35    1
     4    32    31    2
     5    35    36    1
     6    35    37    2
     7    39    38    2
     8    38    40    2
     9    38    28    1
    10    31    37    1
    11    31    30    1
    12    27    28    2
    13    27    26    1
    14    28    29    1
    15    30    26    1
    16    26    25    2
    17    29    24    2
    18    25    24    1
    19    17    15    1
    20    24     1    1
    21     4     1    1
    22     1     2   am
    23    16    15    1
    24    15    18    1
    25    15    11    1
    26    10     5    2
    27    10     8    1
    28     2     5    1
    29     2     3    2
    30    11     8    1
    31    11    12    1
    32     5     6    1
    33     8     7    1
    34    12    13    1
    35     7     6    2
    36     7     9    1
    37    13     9    1
    38    13    19    1
    39     9    14    1
    40    20    19    2
    41    20    21    1
    42    19    23    1
    43    21    22    2
    44    23    22    1
