@<TRIPOS>MOLECULE
18901_out_ligand_01.pdbqt
 34 37 0 0 0
SMALL
GASTEIGER

@<TRIPOS>ATOM
      1  C         22.1440  -22.9510  -10.5080 C.ar    1  UNL1        0.1660
      2  N         23.4440  -23.3550  -10.5200 N.ar    1  UNL1       -0.1630
      3  N         23.9370  -22.8080  -11.6460 N.ar    1  UNL1       -0.2380
      4  C         23.0130  -22.1280  -12.3920 C.ar    1  UNL1        0.1410
      5  C         21.8510  -22.1850  -11.6670 C.ar    1  UNL1        0.0920
      6 BR         20.2090  -21.4170  -12.1430 Br      1  UNL1       -0.0440
      7  N         23.3400  -21.5860  -13.5900 N.pl3   1  UNL1       -0.3650
      8  C         24.7300  -21.5150  -14.0430 C.3     1  UNL1        0.1250
      9  C         25.4850  -22.7670  -13.5450 C.3     1  UNL1        0.0670
     10  C         25.3290  -22.9610  -12.0260 C.3     1  UNL1        0.2210
     11  H         22.7080  -20.9170  -14.0330 H       1  UNL1        0.1620
     12  C         21.2560  -23.3230   -9.3870 C.2     1  UNL1        0.2780
     13  O         21.1890  -24.4650   -8.9470 O.2     1  UNL1       -0.2650
     14  N         20.5390  -22.2310   -8.9270 N.am    1  UNL1       -0.3220
     15  H         20.7580  -21.3730   -9.4260 H       1  UNL1        0.1690
     16  C         19.5800  -22.1810   -7.9040 C.2     1  UNL1        0.0350
     17  C         19.8450  -21.7360   -6.6080 C.2     1  UNL1        0.0290
     18  C         18.8350  -21.7230   -5.6410 C.2     1  UNL1        0.0030
     19  C         17.5490  -22.1530   -5.9640 C.2     1  UNL1        0.0160
     20  C         17.2580  -22.6040   -7.2600 C.2     1  UNL1        0.0500
     21  C         18.2820  -22.6100   -8.2240 C.2     1  UNL1        0.0450
     22  C         15.8570  -23.0330   -7.6200 C.3     1  UNL1        0.4170
     23  F         15.5550  -22.8360   -8.9340 F       1  UNL1       -0.1660
     24  F         14.9140  -22.3540   -6.9140 F       1  UNL1       -0.1660
     25  F         15.6270  -24.3550   -7.3800 F       1  UNL1       -0.1660
     26  C         26.1830  -21.9950  -11.2320 C.3     1  UNL1        0.4090
     27  F         25.4520  -21.0380  -10.6220 F       1  UNL1       -0.1690
     28  F         26.8420  -22.6600  -10.2510 F       1  UNL1       -0.1690
     29  F         27.1210  -21.3830  -11.9850 F       1  UNL1       -0.1690
     30  C         24.8370  -21.4130  -15.5460 C.2     1  UNL1        0.0050
     31  C         25.1590  -20.3060  -16.3100 C.2     1  UNL1        0.0170
     32  C         25.1800  -20.5970  -17.7040 C.2     1  UNL1        0.0080
     33  C         24.8830  -21.9160  -17.9610 C.2     1  UNL1        0.0500
     34  S         24.5390  -22.7840  -16.5330 S.3     1  UNL1       -0.1040
@<TRIPOS>BOND
     1    33    32    2
     2    33    34    1
     3    32    31    1
     4    34    30    1
     5    31    30    2
     6    30     8    1
     7     8     7    1
     8     8     9    1
     9    11     7    1
    10     7     4    1
    11     9    10    1
    12     4     5   ar
    13     4     3   ar
    14     6     5    1
    15    10     3    1
    16    10    26    1
    17    29    26    1
    18     5     1   ar
    19     3     2   ar
    20    26    27    1
    21    26    28    1
    22     2     1   ar
    23     1    12    1
    24    15    14    1
    25    12    13    2
    26    12    14   am
    27    23    22    1
    28    14    16    1
    29    21    16    2
    30    21    20    1
    31    16    17    1
    32    22    25    1
    33    22    20    1
    34    22    24    1
    35    20    19    2
    36    17    18    2
    37    19    18    1
