@<TRIPOS>MOLECULE
18940_out_ligand_01.pdbqt
 31 34 0 0 0
SMALL
GASTEIGER

@<TRIPOS>ATOM
      1  S         23.0550  -22.7280   -9.7270 S.O2    1  UNL1        0.2640
      2  O         23.3730  -21.3170   -9.7010 O.2     1  UNL1       -0.2000
      3  O         23.7530  -23.6590   -8.8660 O.2     1  UNL1       -0.2000
      4  C         21.3140  -22.9310   -9.4410 C.2     1  UNL1        0.0910
      5  C         20.3610  -22.2520  -10.2520 C.2     1  UNL1        0.0010
      6  C         20.5090  -21.3630  -11.3560 C.2     1  UNL1        0.0140
      7  C         19.0370  -22.4980   -9.8940 C.2     1  UNL1        0.0180
      8  C         19.3860  -20.7980  -12.0050 C.2     1  UNL1        0.0020
      9  C         18.0820  -21.0930  -11.5840 C.2     1  UNL1        0.0180
     10  C         17.9430  -21.9540  -10.5160 C.2     1  UNL1        0.0450
     11  C         16.7390  -22.4690   -9.8280 C.2     1  UNL1        0.2590
     12  N         17.2240  -23.3000   -8.8240 N.am    1  UNL1       -0.3170
     13  O         15.5920  -22.1890  -10.1150 O.2     1  UNL1       -0.2670
     14  C         16.4250  -24.0380   -7.8880 C.3     1  UNL1        0.1590
     15  C         18.6250  -23.3140   -8.8690 C.2     1  UNL1        0.0490
     16  C         19.5450  -23.9780   -8.0890 C.2     1  UNL1        0.0320
     17  C         20.9050  -23.7840   -8.3810 C.2     1  UNL1        0.0280
     18  N         23.2570  -23.2990  -11.3110 N.pl3   1  UNL1       -0.2810
     19  H         23.0270  -24.2910  -11.3550 H       1  UNL1        0.1790
     20  C         24.4070  -22.8640  -12.0260 C.2     1  UNL1        0.0440
     21  C         25.6750  -23.2720  -11.6080 C.2     1  UNL1        0.0300
     22  C         26.8060  -22.8950  -12.3340 C.2     1  UNL1        0.0040
     23  C         26.6690  -22.1140  -13.4800 C.2     1  UNL1        0.0250
     24  C         25.3950  -21.7060  -13.8880 C.2     1  UNL1        0.0760
     25  C         24.2570  -22.0890  -13.1730 C.2     1  UNL1        0.0540
     26  S         25.2250  -20.7430  -15.3590 S.O2    1  UNL1        0.2390
     27  O         26.4730  -20.7660  -16.0840 O.2     1  UNL1       -0.2060
     28  O         23.9540  -21.0330  -15.9800 O.2     1  UNL1       -0.2060
     29  N         25.0770  -19.1900  -14.7340 N.3     1  UNL1       -0.2250
     30  H         25.3170  -19.1950  -13.7420 H       1  UNL1        0.1360
     31  H         25.6450  -18.5450  -15.2860 H       1  UNL1        0.1360
@<TRIPOS>BOND
     1    27    26    2
     2    28    26    2
     3    26    29    1
     4    26    24    1
     5    31    29    1
     6    29    30    1
     7    24    23    2
     8    24    25    1
     9    23    22    1
    10    25    20    2
    11    22    21    2
    12    20    21    1
    13    20    18    1
    14     8     9    1
    15     8     6    2
    16     9    10    2
    17     6     5    1
    18    19    18    1
    19    18     1    1
    20    10     7    1
    21    10    11    1
    22     5     7    1
    23     5     4    2
    24    13    11    2
    25     7    15    2
    26    11    12   am
    27     1     2    2
    28     1     4    1
    29     1     3    2
    30     4    17    1
    31    15    12    1
    32    15    16    1
    33    12    14    1
    34    17    16    2
