@<TRIPOS>MOLECULE
1894_out_ligand_01.pdbqt
 31 34 0 0 0
SMALL
GASTEIGER

@<TRIPOS>ATOM
      1  C         23.7470  -21.6290  -10.3330 C.ar    1  UNL1        0.1920
      2  N         25.0090  -21.2760  -10.2980 N.ar    1  UNL1       -0.1220
      3  N         25.4610  -21.2490  -11.5870 N.ar    1  UNL1       -0.1280
      4  C         24.4610  -21.5650  -12.3940 C.ar    1  UNL1        0.1710
      5  N         23.3390  -21.8110  -11.6330 N.ar    1  UNL1       -0.3060
      6  S         22.7610  -21.8810   -8.9420 S.3     1  UNL1       -0.0810
      7  C         22.5390  -23.6810   -9.0030 C.3     1  UNL1        0.1850
      8  C         21.1350  -24.0970   -8.5840 C.2     1  UNL1        0.2310
      9  O         20.7100  -25.2250   -8.8520 O.2     1  UNL1       -0.2720
     10  N         20.4700  -23.1220   -7.8600 N.am    1  UNL1       -0.3270
     11  H         20.9030  -22.1960   -7.8460 H       1  UNL1        0.1690
     12  C         19.2180  -23.2170   -7.2200 C.2     1  UNL1        0.0340
     13  C         18.3830  -24.3330   -7.2970 C.2     1  UNL1        0.0310
     14  C         17.1630  -24.3530   -6.6130 C.2     1  UNL1        0.0210
     15  C         16.7770  -23.2540   -5.8490 C.2     1  UNL1        0.0110
     16 BR         15.1310  -23.2830   -4.9180 Br      1  UNL1       -0.0510
     17  C         17.6010  -22.1360   -5.7640 C.2     1  UNL1        0.0210
     18  C         18.8190  -22.1180   -6.4470 C.2     1  UNL1        0.0310
     19  C         22.0480  -22.3040  -12.0700 C.3     1  UNL1        0.1380
     20  C         21.0500  -21.1800  -12.3640 C.3     1  UNL1        0.0590
     21  C         19.6970  -21.4410  -11.7440 C.2     1  UNL1       -0.0570
     22  C         19.3970  -22.6840  -11.1620 C.2     1  UNL1        0.0070
     23  C         18.1460  -22.9080  -10.5770 C.2     1  UNL1        0.0010
     24  C         17.1780  -21.9040  -10.5870 C.2     1  UNL1        0.0000
     25  C         17.4520  -20.6810  -11.1950 C.2     1  UNL1        0.0010
     26  C         18.7050  -20.4450  -11.7670 C.2     1  UNL1        0.0070
     27  C         24.6340  -21.6930  -13.8120 C.2     1  UNL1        0.0520
     28  C         24.2810  -20.7330  -14.7480 C.2     1  UNL1        0.0230
     29  C         24.5610  -21.1310  -16.0880 C.2     1  UNL1        0.0090
     30  C         25.0860  -22.4010  -16.1500 C.2     1  UNL1        0.0500
     31  S         25.2270  -23.1040  -14.5880 S.3     1  UNL1       -0.0980
@<TRIPOS>BOND
     1    30    29    2
     2    30    31    1
     3    29    28    1
     4    28    27    2
     5    31    27    1
     6    27     4    1
     7     4     5   ar
     8     4     3   ar
     9    20    19    1
    10    20    21    1
    11    19     5    1
    12    26    21    2
    13    26    25    1
    14    21    22    1
    15     5     1   ar
    16     3     2   ar
    17    25    24    2
    18    22    23    2
    19    24    23    1
    20     1     2   ar
    21     1     6    1
    22     7     6    1
    23     7     8    1
    24     9     8    2
    25     8    10   am
    26    10    11    1
    27    10    12    1
    28    13    12    2
    29    13    14    1
    30    12    18    1
    31    14    15    2
    32    18    17    2
    33    15    17    1
    34    15    16    1
