@<TRIPOS>MOLECULE
18943_out_ligand_01.pdbqt
 32 35 0 0 0
SMALL
GASTEIGER

@<TRIPOS>ATOM
      1  C         24.3250  -21.8390  -13.0050 C.2     1  UNL1        0.0340
      2  C         25.6080  -21.5050  -12.5640 C.2     1  UNL1        0.0170
      3  C         25.8370  -21.2970  -11.2040 C.2     1  UNL1        0.0030
      4  C         24.7930  -21.4310  -10.2830 C.2     1  UNL1        0.0290
      5  C         23.5130  -21.7880  -10.7070 C.2     1  UNL1        0.0350
      6  C         23.2870  -21.9910  -12.0740 C.2     1  UNL1        0.0460
      7  N         22.4100  -21.9540   -9.8420 N.am    1  UNL1       -0.3230
      8  C         22.0990  -23.0680   -9.0820 C.2     1  UNL1        0.2560
      9  O         22.6980  -24.1370   -9.0650 O.2     1  UNL1       -0.2670
     10  H         21.7410  -21.1950   -9.8380 H       1  UNL1        0.1690
     11  C         20.8800  -22.9290   -8.2370 C.2     1  UNL1        0.0320
     12  C         20.7390  -21.8960   -7.3040 C.2     1  UNL1        0.0180
     13  C         19.5760  -21.8060   -6.5300 C.2     1  UNL1        0.0130
     14  C         18.5390  -22.7450   -6.6620 C.2     1  UNL1       -0.0260
     15  C         18.7050  -23.7850   -7.5900 C.2     1  UNL1        0.0130
     16  C         19.8640  -23.8820   -8.3670 C.2     1  UNL1        0.0180
     17  C         17.3200  -22.6460   -5.8430 C.2     1  UNL1       -0.0260
     18  C         17.3930  -22.5840   -4.4410 C.2     1  UNL1        0.0120
     19  C         16.2370  -22.4890   -3.6630 C.2     1  UNL1        0.0010
     20  C         14.9850  -22.4550   -4.2750 C.2     1  UNL1        0.0000
     21  C         14.8910  -22.5160   -5.6620 C.2     1  UNL1        0.0010
     22  C         16.0490  -22.6100   -6.4390 C.2     1  UNL1        0.0120
     23  C         24.0130  -22.0680  -14.4440 C.2     1  UNL1        0.2510
     24  O         23.0830  -21.4670  -14.9700 O.2     1  UNL1       -0.2680
     25  N         24.8400  -22.9350  -15.1240 N.am    1  UNL1       -0.3540
     26  H         25.6890  -23.2660  -14.6860 H       1  UNL1        0.1620
     27  C         24.6740  -23.2030  -16.5430 C.3     1  UNL1        0.1550
     28  C         25.4220  -22.2110  -17.4390 C.3     1  UNL1        0.1390
     29  C         26.5420  -21.4480  -16.7520 C.3     1  UNL1        0.0350
     30  C         26.6210  -20.2000  -17.5960 C.3     1  UNL1        0.0290
     31  C         25.1620  -19.9360  -17.8960 C.3     1  UNL1        0.1680
     32  O         24.5060  -21.2130  -17.9380 O.3     1  UNL1       -0.3840
@<TRIPOS>BOND
     1    32    31    1
     2    32    28    1
     3    31    30    1
     4    30    29    1
     5    28    29    1
     6    28    27    1
     7    27    25    1
     8    25    26    1
     9    25    23   am
    10    24    23    2
    11    23     1    1
    12     1     2    2
    13     1     6    1
    14     2     3    1
    15     6     5    2
    16     3     4    2
    17     5     4    1
    18     5     7    1
    19     7    10    1
    20     7     8   am
    21     8     9    2
    22     8    11    1
    23    16    11    2
    24    16    15    1
    25    11    12    1
    26    15    14    2
    27    12    13    2
    28    14    13    1
    29    14    17    1
    30    22    17    2
    31    22    21    1
    32    17    18    1
    33    21    20    2
    34    18    19    2
    35    20    19    1
