@<TRIPOS>MOLECULE
18969_out_ligand_01.pdbqt
 31 34 0 0 0
SMALL
GASTEIGER

@<TRIPOS>ATOM
      1  C         19.7430  -21.9570  -10.9490 C.2     1  UNL1        0.1430
      2  C         20.0350  -21.2020  -12.0730 C.2     1  UNL1        0.0450
      3  C         21.3920  -21.4480  -12.4000 C.2     1  UNL1        0.0380
      4  C         21.8630  -22.3370  -11.4560 C.2     1  UNL1        0.0780
      5  O         20.8680  -22.6510  -10.5820 O.2     1  UNL1       -0.3070
      6  C         18.5430  -22.1380  -10.1420 C.2     1  UNL1        0.2800
      7  O         17.4300  -21.8060  -10.5430 O.2     1  UNL1       -0.2650
      8  N         18.7780  -22.7100   -8.9070 N.am    1  UNL1       -0.3190
      9  H         19.7310  -22.9610   -8.6570 H       1  UNL1        0.1690
     10  C         17.8600  -23.0270   -7.8760 C.2     1  UNL1        0.0650
     11  C         16.7960  -23.9150   -8.0370 C.2     1  UNL1        0.0330
     12  C         15.9390  -24.1730   -6.9730 C.2     1  UNL1        0.0220
     13  C         16.1430  -23.5430   -5.7450 C.2     1  UNL1        0.0230
     14 BR         14.9110  -23.9670   -4.3560 Br      1  UNL1       -0.0500
     15  C         17.2170  -22.6370   -5.5600 C.2     1  UNL1        0.0120
     16  C         17.4960  -21.9570   -4.3530 C.2     1  UNL1        0.0170
     17  C         18.0840  -22.3810   -6.6470 C.2     1  UNL1        0.0940
     18  C         18.5740  -21.0840   -4.2590 C.2     1  UNL1        0.0200
     19  C         19.3570  -20.9040   -5.3760 C.2     1  UNL1        0.1170
     20  N         19.1350  -21.5280   -6.5520 N.2     1  UNL1       -0.2580
     21  C         23.1710  -23.0030  -11.2260 C.3     1  UNL1        0.2400
     22  O         23.9710  -22.7640  -12.3860 O.2     1  UNL1       -0.3420
     23  C         24.8660  -21.7330  -12.3280 C.2     1  UNL1        0.1020
     24  C         25.5010  -21.3100  -11.1560 C.2     1  UNL1        0.0390
     25  C         26.3690  -20.2110  -11.1750 C.2     1  UNL1        0.0030
     26  C         26.6090  -19.5120  -12.3590 C.2     1  UNL1        0.0030
     27  C         25.9810  -19.9110  -13.5340 C.2     1  UNL1        0.0390
     28  C         25.1190  -21.0180  -13.5060 C.2     1  UNL1        0.1360
     29  N         24.4950  -21.4200  -14.7530 N.pl3   1  UNL1       -0.1130
     30  O         23.4630  -20.8170  -15.0830 O.2     1  UNL1       -0.5320
     31  O         25.0580  -22.2970  -15.4240 O.2     1  UNL1       -0.5320
@<TRIPOS>BOND
     1    31    29    2
     2    30    29    2
     3    29    28    1
     4    27    28    1
     5    27    26    2
     6    28    23    2
     7     3     2    1
     8     3     4    2
     9    22    23    1
    10    22    21    1
    11    26    25    1
    12    23    24    1
    13     2     1    2
    14     4    21    1
    15     4     5    1
    16    25    24    2
    17     1     5    1
    18     1     6    1
    19     7     6    2
    20     6     8   am
    21     8     9    1
    22     8    10    1
    23    11    10    2
    24    11    12    1
    25    10    17    1
    26    12    13    2
    27    17    20    1
    28    17    15    2
    29    20    19    2
    30    13    15    1
    31    13    14    1
    32    15    16    1
    33    19    18    1
    34    16    18    2
