@<TRIPOS>MOLECULE
18960_out_ligand_01.pdbqt
 33 36 0 0 0
SMALL
GASTEIGER

@<TRIPOS>ATOM
      1  N         21.2190  -23.1970   -9.4770 N.am    1  UNL1       -0.3260
      2  C         20.3890  -24.2190   -9.0160 C.2     1  UNL1        0.2350
      3  O         20.7550  -25.3670   -8.7820 O.2     1  UNL1       -0.2720
      4  H         20.7640  -22.3220   -9.7140 H       1  UNL1        0.1690
      5  C         22.6010  -23.2610   -9.7470 C.2     1  UNL1        0.0350
      6  C         23.5560  -23.7390   -8.8490 C.2     1  UNL1        0.0290
      7  C         24.9090  -23.7740   -9.1990 C.2     1  UNL1        0.0030
      8  C         25.3260  -23.3200  -10.4500 C.2     1  UNL1        0.0170
      9  C         24.3830  -22.8190  -11.3530 C.2     1  UNL1        0.0340
     10  C         23.0250  -22.8020  -11.0010 C.2     1  UNL1        0.0460
     11  C         24.7650  -22.3190  -12.7030 C.2     1  UNL1        0.2510
     12  O         24.9420  -21.1200  -12.8910 O.2     1  UNL1       -0.2680
     13  N         24.9430  -23.2720  -13.6850 N.am    1  UNL1       -0.3540
     14  H         25.1130  -24.2270  -13.3950 H       1  UNL1        0.1620
     15  C         25.4940  -22.9060  -14.9800 C.3     1  UNL1        0.1550
     16  C         24.3860  -22.5180  -15.9720 C.3     1  UNL1        0.1390
     17  C         24.4740  -23.2900  -17.2810 C.3     1  UNL1        0.0350
     18  C         25.3070  -22.3840  -18.1530 C.3     1  UNL1        0.0290
     19  C         24.8410  -21.0160  -17.7100 C.3     1  UNL1        0.1680
     20  O         24.5480  -21.1180  -16.3110 O.3     1  UNL1       -0.3840
     21  C         18.9320  -23.7340   -8.8040 C.3     1  UNL1        0.1440
     22  C         18.6610  -23.2660   -7.3730 C.2     1  UNL1       -0.0410
     23  C         19.1670  -22.0500   -6.8850 C.2     1  UNL1        0.0080
     24  C         18.9080  -21.6480   -5.5740 C.2     1  UNL1        0.0010
     25  C         18.1320  -22.4480   -4.7370 C.2     1  UNL1        0.0000
     26  C         17.6090  -23.6480   -5.2120 C.2     1  UNL1        0.0010
     27  C         17.8680  -24.0540   -6.5220 C.2     1  UNL1        0.0080
     28  C         18.4390  -22.7250   -9.8380 C.2     1  UNL1       -0.0410
     29  C         17.1090  -22.2710   -9.7960 C.2     1  UNL1        0.0080
     30  C         16.6440  -21.3300  -10.7170 C.2     1  UNL1        0.0010
     31  C         17.5020  -20.8250  -11.6900 C.2     1  UNL1        0.0000
     32  C         18.8230  -21.2600  -11.7450 C.2     1  UNL1        0.0010
     33  C         19.2900  -22.2010  -10.8250 C.2     1  UNL1        0.0080
@<TRIPOS>BOND
     1    18    19    1
     2    18    17    1
     3    19    20    1
     4    17    16    1
     5    20    16    1
     6    16    15    1
     7    15    13    1
     8    13    14    1
     9    13    11   am
    10    12    11    2
    11    11     9    1
    12    32    31    2
    13    32    33    1
    14    31    30    1
    15     9    10    1
    16     9     8    2
    17    10     5    2
    18    33    28    2
    19    30    29    2
    20     8     7    1
    21    28    29    1
    22    28    21    1
    23     5     1    1
    24     5     6    1
    25     4     1    1
    26     1     2   am
    27     7     6    2
    28     2    21    1
    29     2     3    2
    30    21    22    1
    31    22    23    2
    32    22    27    1
    33    23    24    1
    34    27    26    2
    35    24    25    2
    36    26    25    1
