@<TRIPOS>MOLECULE
18988_out_ligand_01.pdbqt
 30 32 0 0 0
SMALL
GASTEIGER

@<TRIPOS>ATOM
      1  C         19.7600  -21.8910  -10.9040 C.2     1  UNL1        0.0350
      2  C         19.0560  -21.1430  -11.8600 C.2     1  UNL1        0.0290
      3  C         17.6710  -20.9840  -11.7700 C.2     1  UNL1        0.0030
      4  C         16.9710  -21.5770  -10.7240 C.2     1  UNL1        0.0170
      5  C         17.6630  -22.3320   -9.7690 C.2     1  UNL1        0.0340
      6  C         19.0550  -22.4760   -9.8510 C.2     1  UNL1        0.0460
      7  N         21.1540  -21.9920  -11.0800 N.am    1  UNL1       -0.3230
      8  C         21.9120  -21.6150  -12.1690 C.2     1  UNL1        0.2590
      9  O         21.4670  -21.0840  -13.1840 O.2     1  UNL1       -0.2670
     10  H         21.6780  -22.3760  -10.3010 H       1  UNL1        0.1690
     11  C         23.3990  -21.8690  -12.0850 C.2     1  UNL1        0.0650
     12  C         24.0160  -22.2730  -13.2880 C.2     1  UNL1        0.0200
     13  C         25.3820  -22.5370  -13.3450 C.2     1  UNL1        0.0010
     14  C         26.1510  -22.4000  -12.1990 C.2     1  UNL1        0.0030
     15  C         25.5570  -22.0000  -10.9970 C.2     1  UNL1        0.0380
     16  C         24.1850  -21.7360  -10.9160 C.2     1  UNL1        0.0850
     17  O         23.5470  -21.3370   -9.7750 O.2     1  UNL1       -0.3460
     18  C         23.2300  -22.1860   -8.6640 C.3     1  UNL1        0.1200
     19  C         22.1000  -21.6690   -7.7800 C.3     1  UNL1        0.0400
     20  C         23.1360  -23.6620   -9.0340 C.3     1  UNL1        0.0400
     21  C         16.9450  -22.9670   -8.6330 C.2     1  UNL1        0.2520
     22  O         16.0500  -23.7760   -8.8400 O.2     1  UNL1       -0.2680
     23  N         17.3490  -22.5700   -7.3740 N.am    1  UNL1       -0.3520
     24  H         18.0700  -21.8680   -7.2810 H       1  UNL1        0.1630
     25  C         16.7800  -23.1510   -6.1680 C.3     1  UNL1        0.0840
     26  C         17.7980  -23.1170   -5.0200 C.3     1  UNL1        0.0250
     27  C         17.2040  -23.6570   -3.7220 C.3     1  UNL1        0.0020
     28  C         15.9180  -22.9280   -3.3450 C.3     1  UNL1        0.0000
     29  C         14.9000  -22.9610   -4.4810 C.3     1  UNL1        0.0020
     30  C         15.4910  -22.4170   -5.7790 C.3     1  UNL1        0.0250
@<TRIPOS>BOND
     1    13    12    1
     2    13    14    2
     3    12    11    2
     4     9     8    2
     5    14    15    1
     6     8    11    1
     7     8     7   am
     8    11    16    1
     9     2     3    1
    10     2     1    2
    11     3     4    2
    12     7     1    1
    13     7    10    1
    14    15    16    2
    15    16    17    1
    16     1     6    1
    17     4     5    1
    18     6     5    2
    19    17    18    1
    20     5    21    1
    21    20    18    1
    22    22    21    2
    23    18    19    1
    24    21    23   am
    25    23    24    1
    26    23    25    1
    27    25    30    1
    28    25    26    1
    29    30    29    1
    30    26    27    1
    31    29    28    1
    32    27    28    1
