@<TRIPOS>MOLECULE
18981_out_ligand_01.pdbqt
 27 30 0 0 0
SMALL
GASTEIGER

@<TRIPOS>ATOM
      1  C         21.9720  -21.7080  -12.4000 C.2     1  UNL1        0.0320
      2  C         22.3200  -22.6230  -11.4080 C.2     1  UNL1        0.0190
      3  C         21.4420  -22.8920  -10.3480 C.2     1  UNL1        0.0310
      4  C         20.1970  -22.2520  -10.2390 C.2     1  UNL1        0.0460
      5  C         19.8780  -21.3160  -11.2390 C.2     1  UNL1        0.0310
      6  C         20.7500  -21.0410  -12.3040 C.2     1  UNL1        0.0190
      7  N         19.2990  -22.5300   -9.1570 N.am    1  UNL1       -0.2440
      8  C         19.6160  -22.4230   -7.8140 C.2     1  UNL1        0.2660
      9  O         20.6350  -22.0850   -7.2390 O.2     1  UNL1       -0.2670
     10  C         18.4270  -22.7990   -7.0570 C.2     1  UNL1        0.0480
     11  C         18.2190  -22.8630   -5.6910 C.2     1  UNL1        0.0180
     12  C         17.4370  -23.1130   -7.9590 C.2     1  UNL1        0.0480
     13  C         16.9530  -23.2630   -5.2530 C.2     1  UNL1        0.0010
     14  C         15.9390  -23.5840   -6.1760 C.2     1  UNL1        0.0010
     15  C         16.1770  -23.5100   -7.5520 C.2     1  UNL1        0.0180
     16  C         17.9860  -22.9390   -9.2990 C.2     1  UNL1        0.2660
     17  O         17.2970  -23.1510  -10.2800 O.2     1  UNL1       -0.2670
     18  C         22.9310  -21.4490  -13.5100 C.2     1  UNL1        0.2560
     19  O         22.6680  -20.5580  -14.3080 O.2     1  UNL1       -0.2670
     20  N         24.0660  -22.2400  -13.4970 N.am    1  UNL1       -0.3220
     21  H         24.1990  -22.8430  -12.6950 H       1  UNL1        0.1690
     22  C         25.1150  -22.2350  -14.4420 C.2     1  UNL1        0.0520
     23  C         26.1350  -21.2880  -14.4870 C.2     1  UNL1        0.0320
     24  C         27.1210  -21.3750  -15.4710 C.2     1  UNL1        0.0210
     25  C         27.0540  -22.4100  -16.3870 C.2     1  UNL1        0.1160
     26  N         26.0840  -23.3470  -16.3850 N.2     1  UNL1       -0.2710
     27  C         25.1430  -23.2350  -15.4170 C.2     1  UNL1        0.1450
@<TRIPOS>BOND
     1    25    26    2
     2    25    24    1
     3    26    27    1
     4    24    23    2
     5    27    22    2
     6    23    22    1
     7    22    20    1
     8    19    18    2
     9    18    20   am
    10    18     1    1
    11    20    21    1
    12     1     6    2
    13     1     2    1
    14     6     5    1
    15     2     3    2
    16     5     4    2
    17     3     4    1
    18    17    16    2
    19     4     7    1
    20    16     7   am
    21    16    12    1
    22     7     8   am
    23    12    15    1
    24    12    10    2
    25     8     9    2
    26     8    10    1
    27    15    14    2
    28    10    11    1
    29    14    13    1
    30    11    13    2
