@<TRIPOS>MOLECULE
18991_out_ligand_01.pdbqt
 35 38 0 0 0
SMALL
GASTEIGER

@<TRIPOS>ATOM
      1  N         20.0260  -22.4330  -11.3700 N.am    1  UNL1       -0.3230
      2  C         20.9690  -21.4590  -11.6310 C.2     1  UNL1        0.2590
      3  O         20.8060  -20.2540  -11.4600 O.2     1  UNL1       -0.2670
      4  H         20.3360  -23.3920  -11.5010 H       1  UNL1        0.1690
      5  C         18.6970  -22.2680  -10.9330 C.2     1  UNL1        0.0350
      6  C         17.9420  -21.2730  -11.5720 C.2     1  UNL1        0.0290
      7  C         16.6190  -21.0270  -11.2030 C.2     1  UNL1        0.0030
      8  C         16.0310  -21.7780  -10.1880 C.2     1  UNL1        0.0170
      9  C         16.7760  -22.7750   -9.5480 C.2     1  UNL1        0.0340
     10  C         18.1090  -23.0120   -9.9110 C.2     1  UNL1        0.0460
     11  C         16.1830  -23.5720   -8.4440 C.2     1  UNL1        0.2520
     12  O         15.5300  -24.5780   -8.6890 O.2     1  UNL1       -0.2680
     13  N         16.4180  -23.0910   -7.1710 N.am    1  UNL1       -0.3520
     14  H         16.9480  -22.2390   -7.0520 H       1  UNL1        0.1630
     15  C         15.9840  -23.8210   -5.9860 C.3     1  UNL1        0.0840
     16  C         14.6820  -23.2220   -5.4250 C.3     1  UNL1        0.0250
     17  C         14.9520  -22.1740   -4.3510 C.3     1  UNL1        0.0020
     18  C         15.7130  -22.7610   -3.1600 C.3     1  UNL1        0.0000
     19  C         16.5910  -23.9600   -3.5260 C.3     1  UNL1        0.0020
     20  C         17.1210  -23.8520   -4.9490 C.3     1  UNL1        0.0250
     21  C         22.2930  -21.9280  -12.1820 C.2     1  UNL1        0.0650
     22  C         22.7150  -21.3130  -13.3760 C.2     1  UNL1        0.0200
     23  C         23.9110  -21.6770  -13.9920 C.2     1  UNL1        0.0010
     24  C         24.7050  -22.6610  -13.4180 C.2     1  UNL1        0.0030
     25  C         24.3080  -23.2810  -12.2310 C.2     1  UNL1        0.0380
     26  C         23.1030  -22.9290  -11.6020 C.2     1  UNL1        0.0840
     27  O         22.6740  -23.4930  -10.4290 O.2     1  UNL1       -0.3500
     28  C         23.3330  -23.1840   -9.1950 C.3     1  UNL1        0.1800
     29  C         23.0490  -21.7530   -8.7210 C.3     1  UNL1        0.0650
     30  C         21.8610  -21.6890   -7.7880 C.2     1  UNL1       -0.0560
     31  C         20.8050  -22.6010   -7.9220 C.2     1  UNL1        0.0070
     32  C         19.6870  -22.5140   -7.0920 C.2     1  UNL1        0.0010
     33  C         19.6170  -21.5220   -6.1150 C.2     1  UNL1        0.0000
     34  C         20.6650  -20.6150   -5.9690 C.2     1  UNL1        0.0010
     35  C         21.7810  -20.6960   -6.8020 C.2     1  UNL1        0.0070
@<TRIPOS>BOND
     1    23    24    2
     2    23    22    1
     3    24    25    1
     4    22    21    2
     5    25    26    2
     6    21     2    1
     7    21    26    1
     8     2     3    2
     9     2     1   am
    10    26    27    1
    11     6     7    1
    12     6     5    2
    13     4     1    1
    14     1     5    1
    15     7     8    2
    16     5    10    1
    17    27    28    1
    18     8     9    1
    19    10     9    2
    20     9    11    1
    21    28    29    1
    22    29    30    1
    23    12    11    2
    24    11    13   am
    25    31    30    2
    26    31    32    1
    27    30    35    1
    28    13    14    1
    29    13    15    1
    30    32    33    2
    31    35    34    2
    32    33    34    1
    33    15    16    1
    34    15    20    1
    35    16    17    1
    36    20    19    1
    37    17    18    1
    38    19    18    1
