@<TRIPOS>MOLECULE
18998_out_ligand_01.pdbqt
 35 37 0 0 0
SMALL
GASTEIGER

@<TRIPOS>ATOM
      1  C         19.6540  -22.7800  -10.0270 C.2     1  UNL1        0.0340
      2  C         18.9330  -22.0060  -10.9420 C.2     1  UNL1        0.0190
      3  C         17.5450  -21.8970  -10.8190 C.2     1  UNL1        0.0260
      4  C         16.8600  -22.5650   -9.7940 C.2     1  UNL1        0.0570
      5 CL         15.1460  -22.3770   -9.7660 Cl      1  UNL1       -0.0830
      6  C         17.5790  -23.3500   -8.8920 C.2     1  UNL1        0.1020
      7  C         18.9760  -23.4550   -9.0060 C.2     1  UNL1        0.0440
      8  C         21.1300  -22.9490  -10.1350 C.2     1  UNL1        0.2560
      9  N         21.7630  -22.0300  -10.9510 N.am    1  UNL1       -0.3230
     10  H         21.2010  -21.2740  -11.3240 H       1  UNL1        0.1690
     11  O         21.6510  -23.8490   -9.4900 O.2     1  UNL1       -0.2670
     12  C         23.1370  -21.9660  -11.2660 C.2     1  UNL1        0.0370
     13  C         24.1220  -21.5460  -10.3740 C.2     1  UNL1        0.0290
     14  C         25.4610  -21.5140  -10.7700 C.2     1  UNL1        0.0040
     15  C         25.8220  -21.9050  -12.0590 C.2     1  UNL1        0.0290
     16  C         24.8490  -22.3360  -12.9670 C.2     1  UNL1        0.0360
     17  C         23.5120  -22.3620  -12.5600 C.2     1  UNL1        0.0590
     18  N         25.2910  -22.7200  -14.2520 N.am    1  UNL1       -0.3270
     19  C         24.8640  -22.2250  -15.4710 C.2     1  UNL1        0.2180
     20  C         25.5820  -22.8700  -16.6320 C.3     1  UNL1        0.1170
     21  O         24.0260  -21.3500  -15.6610 O.2     1  UNL1       -0.2740
     22  H         26.0010  -23.4400  -14.2760 H       1  UNL1        0.1690
     23  S         16.7810  -24.2270   -7.5720 S.O2    1  UNL1        0.2650
     24  O         15.6470  -24.9350   -8.1250 O.2     1  UNL1       -0.2000
     25  O         17.7970  -24.9570   -6.8460 O.2     1  UNL1       -0.2000
     26  N         16.2210  -23.0100   -6.5530 N.pl3   1  UNL1       -0.2800
     27  H         15.2190  -23.0920   -6.3920 H       1  UNL1        0.1790
     28  C         17.0320  -22.4270   -5.5280 C.2     1  UNL1        0.0490
     29  C         18.0730  -21.5410   -5.8360 C.2     1  UNL1        0.0370
     30  C         18.8760  -20.9800   -4.8330 C.2     1  UNL1       -0.0600
     31  C         19.9870  -20.0380   -5.1960 C.3     1  UNL1        0.0480
     32  C         18.5900  -21.2640   -3.4990 C.2     1  UNL1        0.0070
     33  C         17.5210  -22.0990   -3.1740 C.2     1  UNL1        0.0090
     34  C         16.7240  -22.6760   -4.1760 C.2     1  UNL1       -0.0350
     35  C         15.5740  -23.5500   -3.7570 C.3     1  UNL1        0.0500
@<TRIPOS>BOND
     1    20    19    1
     2    21    19    2
     3    19    18   am
     4    22    18    1
     5    18    16    1
     6    16    17    1
     7    16    15    2
     8    17    12    2
     9    15    14    1
    10    10     9    1
    11    12     9    1
    12    12    13    1
    13     9     8   am
    14     2     3    1
    15     2     1    2
    16     3     4    2
    17    14    13    2
    18     8     1    1
    19     8    11    2
    20     1     7    1
    21     4     5    1
    22     4     6    1
    23     7     6    2
    24     6    23    1
    25    24    23    2
    26    23    25    2
    27    23    26    1
    28    26    27    1
    29    26    28    1
    30    29    28    2
    31    29    30    1
    32    28    34    1
    33    31    30    1
    34    30    32    2
    35    34    35    1
    36    34    33    2
    37    32    33    1
