@<TRIPOS>MOLECULE
18_out_ligand_01.pdbqt
 30 33 0 0 0
SMALL
GASTEIGER

@<TRIPOS>ATOM
      1  C         21.7890  -21.4880  -12.5480 C.2     1  UNL1       -0.0270
      2  C         22.2640  -21.8440  -11.2850 C.2     1  UNL1        0.0120
      3  C         21.3790  -22.0900  -10.2280 C.2     1  UNL1        0.0310
      4  C         19.9890  -22.0070  -10.3920 C.2     1  UNL1        0.0430
      5  C         19.5110  -21.6040  -11.6560 C.2     1  UNL1       -0.0300
      6  C         20.4050  -21.3750  -12.7200 C.2     1  UNL1        0.0190
      7  C         18.0410  -21.4400  -11.9210 C.3     1  UNL1        0.0420
      8  C         17.3350  -21.0420  -10.6440 C.3     1  UNL1        0.0250
      9  C         17.6380  -22.0700   -9.5700 C.3     1  UNL1        0.1330
     10  N         19.0700  -22.2740   -9.3070 N.am    1  UNL1       -0.3130
     11  C         19.4710  -22.9880   -8.1570 C.2     1  UNL1        0.2610
     12  O         20.5250  -23.6020   -8.0000 O.2     1  UNL1       -0.2670
     13  C         22.7220  -21.2640  -13.7240 C.3     1  UNL1        0.1790
     14  C         24.2110  -21.3140  -13.2720 C.3     1  UNL1        0.3080
     15  N         24.9680  -22.5680  -13.4650 N.3     1  UNL1        0.0910
     16  C         26.0570  -22.7540  -12.5020 C.3     1  UNL1        0.2720
     17  C         26.6560  -24.1560  -12.6260 C.3     1  UNL1        0.0310
     18  C         27.1210  -24.4430  -14.0520 C.3     1  UNL1        0.0070
     19  C         26.0280  -24.1340  -15.0830 C.3     1  UNL1        0.0100
     20  C         24.9290  -25.2010  -15.0760 C.3     1  UNL1        0.0110
     21  C         25.4510  -22.7260  -14.8440 C.3     1  UNL1        0.2760
     22  O         22.3860  -20.0240  -14.3530 O.3     1  UNL1       -0.3890
     23  H         21.4280  -20.0300  -14.5080 H       1  UNL1        0.2100
     24  C         18.5370  -23.0800   -7.0200 C.2     1  UNL1        0.0710
     25  C         17.6900  -24.1890   -6.9160 C.2     1  UNL1        0.0200
     26  C         16.8330  -24.3030   -5.8190 C.2     1  UNL1        0.0010
     27  C         16.8350  -23.3220   -4.8240 C.2     1  UNL1        0.0030
     28  C         17.7000  -22.2280   -4.9200 C.2     1  UNL1        0.0430
     29  C         18.5540  -22.1180   -6.0130 C.2     1  UNL1        0.1320
     30  F         19.3770  -21.0610   -6.0850 F       1  UNL1       -0.2050
@<TRIPOS>BOND
     1    19    20    1
     2    19    21    1
     3    19    18    1
     4    21    15    1
     5    23    22    1
     6    22    13    1
     7    18    17    1
     8    13    14    1
     9    13     1    1
    10    15    14    1
    11    15    16    1
    12     6     1    2
    13     6     5    1
    14    17    16    1
    15     1     2    1
    16     7     5    1
    17     7     8    1
    18     5     4    2
    19     2     3    2
    20     8     9    1
    21     4     3    1
    22     4    10    1
    23     9    10    1
    24    10    11   am
    25    11    12    2
    26    11    24    1
    27    24    25    2
    28    24    29    1
    29    25    26    1
    30    30    29    1
    31    29    28    2
    32    26    27    2
    33    28    27    1
