@<TRIPOS>MOLECULE
1901_out_ligand_01.pdbqt
 36 39 0 0 0
SMALL
GASTEIGER

@<TRIPOS>ATOM
      1  C         23.9300  -21.5410  -10.6220 C.ar    1  UNL1        0.1920
      2  N         25.1890  -21.1790  -10.6380 N.ar    1  UNL1       -0.1220
      3  N         25.6140  -21.2070  -11.9390 N.ar    1  UNL1       -0.1280
      4  C         24.6030  -21.5750  -12.7040 C.ar    1  UNL1        0.1660
      5  N         23.5030  -21.7900  -11.8980 N.ar    1  UNL1       -0.3070
      6  S         22.9510  -21.7130   -9.2110 S.3     1  UNL1       -0.0810
      7  C         22.8980  -23.5200   -9.0320 C.3     1  UNL1        0.1850
      8  C         21.5060  -23.9860   -8.6330 C.2     1  UNL1        0.2310
      9  N         20.7970  -23.0450   -7.9070 N.am    1  UNL1       -0.3270
     10  H         21.2020  -22.1100   -7.8640 H       1  UNL1        0.1690
     11  O         21.1070  -25.1040   -8.9540 O.2     1  UNL1       -0.2720
     12  C         19.5150  -23.1860   -7.3400 C.2     1  UNL1        0.0340
     13  C         18.7080  -24.3100   -7.5090 C.2     1  UNL1        0.0300
     14  C         17.4480  -24.3760   -6.9020 C.2     1  UNL1        0.0200
     15  C         16.9810  -23.3180   -6.1150 C.2     1  UNL1        0.0390
     16  C         17.7900  -22.1900   -5.9400 C.2     1  UNL1        0.0200
     17  C         19.0500  -22.1280   -6.5480 C.2     1  UNL1        0.0300
     18  C         15.6290  -23.4390   -5.4980 C.2     1  UNL1        0.2930
     19  O         15.3720  -24.2110   -4.5890 O.2     1  UNL1       -0.2590
     20  O         14.7590  -22.5750   -6.0790 O.3     1  UNL1       -0.3180
     21  C         13.9820  -21.7730   -5.1790 C.3     1  UNL1        0.1740
     22  C         13.0060  -20.9150   -5.9610 C.3     1  UNL1        0.0340
     23  C         22.2010  -22.2780  -12.3120 C.3     1  UNL1        0.1370
     24  C         21.2020  -21.1420  -12.5370 C.3     1  UNL1        0.0590
     25  C         19.8920  -21.4330  -11.8500 C.2     1  UNL1       -0.0570
     26  C         18.8500  -20.4950  -11.8810 C.2     1  UNL1        0.0070
     27  C         17.6230  -20.7870  -11.2830 C.2     1  UNL1        0.0010
     28  C         17.4250  -22.0140  -10.6500 C.2     1  UNL1        0.0000
     29  C         18.4570  -22.9500  -10.6130 C.2     1  UNL1        0.0010
     30  C         19.6840  -22.6630  -11.2100 C.2     1  UNL1        0.0070
     31  C         24.6670  -21.7850  -14.1420 C.2     1  UNL1        0.0290
     32  C         25.0450  -23.0250  -14.6600 C.2     1  UNL1        0.0180
     33  C         25.0900  -23.2140  -16.0400 C.2     1  UNL1        0.0200
     34  C         24.7570  -22.1500  -16.8580 C.2     1  UNL1        0.1160
     35  N         24.3950  -20.9330  -16.3960 N.2     1  UNL1       -0.2720
     36  C         24.3750  -20.7750  -15.0510 C.2     1  UNL1        0.1310
@<TRIPOS>BOND
     1    34    35    2
     2    34    33    1
     3    35    36    1
     4    33    32    2
     5    36    31    2
     6    32    31    1
     7    31     4    1
     8     4     3   ar
     9     4     5   ar
    10    24    23    1
    11    24    25    1
    12    23     5    1
    13     3     2   ar
    14     5     1   ar
    15    26    25    2
    16    26    27    1
    17    25    30    1
    18    27    28    2
    19    30    29    2
    20    28    29    1
    21     2     1   ar
    22     1     6    1
    23     6     7    1
    24     7     8    1
    25    11     8    2
    26     8     9   am
    27     9    10    1
    28     9    12    1
    29    13    12    2
    30    13    14    1
    31    12    17    1
    32    14    15    2
    33    17    16    2
    34    15    16    1
    35    15    18    1
    36    20    18    1
    37    20    21    1
    38    22    21    1
    39    18    19    2
