@<TRIPOS>MOLECULE
19033_out_ligand_01.pdbqt
 29 32 0 0 0
SMALL
GASTEIGER

@<TRIPOS>ATOM
      1  N         16.8100  -23.2080   -8.8810 N.pl3   1  UNL1       -0.2560
      2  C         15.8610  -22.4890   -9.5480 C.2     1  UNL1        0.1170
      3  C         16.5310  -21.7680  -10.5060 C.2     1  UNL1        0.0580
      4  C         17.9080  -22.0990  -10.3470 C.2     1  UNL1        0.1460
      5  N         18.0570  -22.9800   -9.3390 N.2     1  UNL1       -0.1650
      6  C         19.0720  -21.6120  -11.1290 C.2     1  UNL1        0.2760
      7  O         19.0140  -20.5850  -11.7990 O.2     1  UNL1       -0.2660
      8  N         20.1850  -22.4380  -11.0280 N.am    1  UNL1       -0.3220
      9  H         20.0540  -23.3100  -10.5350 H       1  UNL1        0.1690
     10  C         21.4560  -22.2500  -11.6100 C.2     1  UNL1        0.0370
     11  C         22.5520  -22.8050  -10.9320 C.2     1  UNL1        0.0320
     12  C         23.8490  -22.6750  -11.4380 C.2     1  UNL1        0.0420
     13  C         24.0610  -21.9870  -12.6280 C.2     1  UNL1        0.1020
     14  C         22.9810  -21.4010  -13.2920 C.2     1  UNL1        0.1040
     15  O         25.3530  -21.9160  -13.0780 O.2     1  UNL1       -0.3460
     16  C         21.6820  -21.5440  -12.7950 C.2     1  UNL1        0.0690
     17  O         23.1200  -20.6750  -14.4500 O.2     1  UNL1       -0.3460
     18  C         24.4840  -20.3040  -14.6730 C.3     1  UNL1        0.2020
     19  C         25.4060  -21.4910  -14.4460 C.3     1  UNL1        0.2020
     20  C         16.6300  -24.1400   -7.7660 C.3     1  UNL1        0.3250
     21  O         15.9460  -23.4880   -6.6990 O.2     1  UNL1       -0.3300
     22  C         16.7200  -22.8450   -5.7670 C.2     1  UNL1        0.0770
     23  C         16.3580  -23.0620   -4.4250 C.2     1  UNL1       -0.0290
     24  C         17.0920  -22.4430   -3.4050 C.2     1  UNL1        0.0100
     25  C         15.2000  -23.9550   -4.0720 C.3     1  UNL1        0.0510
     26  C         18.1710  -21.6130   -3.7110 C.2     1  UNL1        0.0070
     27  C         18.5420  -21.3980   -5.0400 C.2     1  UNL1       -0.0590
     28  C         19.6810  -20.4770   -5.3680 C.3     1  UNL1        0.0480
     29  C         17.8010  -22.0070   -6.0650 C.2     1  UNL1        0.0440
@<TRIPOS>BOND
     1    18    17    1
     2    18    19    1
     3    17    14    1
     4    19    15    1
     5    14    16    1
     6    14    13    2
     7    15    13    1
     8    16    10    2
     9    13    12    1
    10     7     6    2
    11    10     8    1
    12    10    11    1
    13    12    11    2
    14     6     8   am
    15     6     4    1
    16     8     9    1
    17     3     4    1
    18     3     2    2
    19     4     5    2
    20     2     1    1
    21     5     1    1
    22     1    20    1
    23    20    21    1
    24    21    22    1
    25    29    22    2
    26    29    27    1
    27    22    23    1
    28    28    27    1
    29    27    26    2
    30    23    25    1
    31    23    24    2
    32    26    24    1
