@<TRIPOS>MOLECULE
1905_out_ligand_01.pdbqt
 34 37 0 0 0
SMALL
GASTEIGER

@<TRIPOS>ATOM
      1  C         22.7990  -22.7400  -10.8980 C.2     1  UNL1        0.0450
      2  C         23.1500  -23.5690   -9.8290 C.2     1  UNL1        0.0300
      3  C         22.2180  -23.9130   -8.8630 C.2     1  UNL1        0.0030
      4  C         20.9140  -23.4340   -8.9520 C.2     1  UNL1        0.0140
      5  C         20.4830  -22.5960  -10.0090 C.2     1  UNL1        0.0030
      6  C         19.1370  -22.0980  -10.1110 C.2     1  UNL1        0.0450
      7  C         18.7830  -21.2630  -11.1750 C.2     1  UNL1        0.0300
      8  C         19.7150  -20.9140  -12.1380 C.2     1  UNL1        0.0030
      9  C         21.0180  -21.3940  -12.0520 C.2     1  UNL1        0.0140
     10  C         21.4520  -22.2410  -11.0020 C.2     1  UNL1        0.0030
     11  N         23.7620  -22.3860  -11.8860 N.am    1  UNL1       -0.3260
     12  C         24.8470  -21.5150  -11.7730 C.2     1  UNL1        0.2310
     13  O         25.1630  -20.8910  -10.7680 O.2     1  UNL1       -0.2720
     14  H         23.6360  -22.7990  -12.7950 H       1  UNL1        0.1690
     15  C         25.6140  -21.4370  -13.0950 C.3     1  UNL1        0.1820
     16  S         24.9170  -20.2500  -14.2830 S.3     1  UNL1       -0.1210
     17  C         24.8080  -21.3060  -15.7160 C.2     1  UNL1        0.0010
     18  C         24.9410  -20.7710  -17.0000 C.2     1  UNL1        0.0180
     19  C         24.8500  -21.5990  -18.1210 C.2     1  UNL1        0.0010
     20  C         24.6150  -22.9650  -17.9640 C.2     1  UNL1        0.0000
     21  C         24.4690  -23.5020  -16.6850 C.2     1  UNL1        0.0010
     22  C         24.5630  -22.6740  -15.5620 C.2     1  UNL1        0.0180
     23  N         18.1750  -22.4650   -9.1330 N.am    1  UNL1       -0.3260
     24  C         16.7930  -22.4790   -9.2230 C.2     1  UNL1        0.2310
     25  O         16.1190  -22.1020  -10.1790 O.2     1  UNL1       -0.2720
     26  H         18.5250  -22.8460   -8.2650 H       1  UNL1        0.1690
     27  C         16.1020  -22.9370   -7.9400 C.3     1  UNL1        0.1820
     28  S         17.1260  -24.0860   -6.9530 S.3     1  UNL1       -0.1210
     29  C         17.6460  -22.9600   -5.6700 C.2     1  UNL1        0.0010
     30  C         17.1880  -23.1350   -4.3590 C.2     1  UNL1        0.0180
     31  C         17.6090  -22.2710   -3.3460 C.2     1  UNL1        0.0010
     32  C         18.4830  -21.2230   -3.6420 C.2     1  UNL1        0.0000
     33  C         18.9310  -21.0350   -4.9510 C.2     1  UNL1        0.0010
     34  C         18.5100  -21.8990   -5.9650 C.2     1  UNL1        0.0180
@<TRIPOS>BOND
     1    19    20    2
     2    19    18    1
     3    20    21    1
     4    18    17    2
     5    21    22    2
     6    17    22    1
     7    17    16    1
     8    16    15    1
     9    15    12    1
    10    14    11    1
    11     8     9    2
    12     8     7    1
    13     9    10    1
    14    11    12   am
    15    11     1    1
    16    12    13    2
    17     7     6    2
    18    10     1    2
    19    10     5    1
    20     1     2    1
    21    25    24    2
    22     6     5    1
    23     6    23    1
    24     5     4    2
    25     2     3    2
    26    24    23   am
    27    24    27    1
    28    23    26    1
    29     4     3    1
    30    27    28    1
    31    28    29    1
    32    34    29    2
    33    34    33    1
    34    29    30    1
    35    33    32    2
    36    30    31    2
    37    32    31    1
