@<TRIPOS>MOLECULE
19056_out_ligand_01.pdbqt
 34 37 0 0 0
SMALL
GASTEIGER

@<TRIPOS>ATOM
      1  N         23.0660  -22.1130  -11.9940 N.pl3   1  UNL1       -0.2740
      2  C         22.3110  -21.2280  -12.8030 C.3     1  UNL1        0.1770
      3  N         22.5550  -20.9550  -14.0640 N.2     1  UNL1       -0.2040
      4  C         23.6230  -21.6470  -14.5270 C.ar    1  UNL1        0.1620
      5  N         24.0990  -21.5970  -15.8040 N.ar    1  UNL1       -0.2600
      6  N         25.1780  -22.3780  -16.0020 N.ar    1  UNL1       -0.1770
      7  C         25.3900  -22.9540  -14.8050 C.ar    1  UNL1        0.0680
      8  C         26.5120  -23.9060  -14.6170 C.3     1  UNL1        0.0730
      9  C         24.4330  -22.5310  -13.8550 C.ar    1  UNL1        0.0830
     10  C         24.1810  -22.8230  -12.4640 C.2     1  UNL1        0.1450
     11  N         24.9740  -23.6530  -11.8750 N.pl3   1  UNL1       -0.2820
     12  H         23.7360  -21.0610  -16.5830 H       1  UNL1        0.1910
     13  H         24.6990  -23.7640  -10.8940 H       1  UNL1        0.1880
     14  S         20.9030  -20.3690  -12.1450 S.3     1  UNL1       -0.0820
     15  C         19.6390  -21.6610  -12.3380 C.3     1  UNL1        0.1850
     16  C         18.5160  -21.5360  -11.3150 C.2     1  UNL1        0.2310
     17  O         17.6600  -20.6640  -11.4460 O.2     1  UNL1       -0.2720
     18  N         18.6190  -22.4190  -10.2580 N.am    1  UNL1       -0.3270
     19  H         19.3840  -23.0870  -10.3210 H       1  UNL1        0.1690
     20  C         17.7930  -22.5270   -9.1230 C.2     1  UNL1        0.0350
     21  C         16.4720  -22.9230   -9.3380 C.2     1  UNL1        0.0300
     22  C         15.5920  -23.0810   -8.2640 C.2     1  UNL1        0.0090
     23  C         16.0160  -22.8490   -6.9490 C.2     1  UNL1       -0.0560
     24  C         15.0380  -23.0260   -5.8210 C.3     1  UNL1        0.0490
     25  C         17.3380  -22.4150   -6.7270 C.2     1  UNL1       -0.0540
     26  C         17.8520  -22.1340   -5.3400 C.3     1  UNL1        0.0490
     27  C         18.2170  -22.2740   -7.8190 C.2     1  UNL1        0.0370
     28  C         22.6660  -22.3700  -10.6480 C.2     1  UNL1        0.0430
     29  C         23.0260  -21.4810   -9.6230 C.2     1  UNL1        0.0300
     30  C         22.6240  -21.7220   -8.3100 C.2     1  UNL1        0.0030
     31  C         21.8560  -22.8470   -8.0110 C.2     1  UNL1        0.0070
     32  C         21.4640  -23.7330   -9.0230 C.2     1  UNL1       -0.0600
     33  C         20.6580  -24.9580   -8.6970 C.3     1  UNL1        0.0480
     34  C         21.8820  -23.4920  -10.3380 C.2     1  UNL1        0.0370
@<TRIPOS>BOND
     1    12     5    1
     2     6     5   ar
     3     6     7   ar
     4     5     4   ar
     5     7     8    1
     6     7     9   ar
     7     4     3    2
     8     4     9   ar
     9     3     2    1
    10     9    10    2
    11     2    14    1
    12     2     1    1
    13    10     1    1
    14    10    11    1
    15    15    14    1
    16    15    16    1
    17     1    28    1
    18    11    13    1
    19    17    16    2
    20    16    18   am
    21    28    34    2
    22    28    29    1
    23    34    32    1
    24    19    18    1
    25    18    20    1
    26    29    30    2
    27    21    20    2
    28    21    22    1
    29    20    27    1
    30    32    33    1
    31    32    31    2
    32    30    31    1
    33    22    23    2
    34    27    25    2
    35    23    25    1
    36    23    24    1
    37    25    26    1
