@<TRIPOS>MOLECULE
1906_out_ligand_01.pdbqt
 32 35 0 0 0
SMALL
GASTEIGER

@<TRIPOS>ATOM
      1  C         20.3770  -21.8750  -10.8110 C.2     1  UNL1        0.1790
      2  S         19.2180  -21.1620  -11.7840 S.2     1  UNL1       -0.0400
      3  N         21.4100  -22.5130  -11.4500 N.am    1  UNL1       -0.3260
      4  H         21.1780  -23.4700  -11.7350 H       1  UNL1        0.1690
      5  C         22.6910  -22.1090  -11.8130 C.ar    1  UNL1        0.0930
      6  C         23.8090  -22.0840  -10.9680 C.ar    1  UNL1        0.0720
      7  C         24.9470  -21.6350  -11.7080 C.ar    1  UNL1       -0.0260
      8  C         24.6400  -21.3280  -13.0020 C.ar    1  UNL1       -0.0080
      9  C         26.4070  -21.4690  -11.4680 C.3     1  UNL1        0.0410
     10  S         23.0420  -21.5420  -13.3940 S.2     1  UNL1       -0.0750
     11  C         25.7920  -20.9040  -13.8210 C.3     1  UNL1        0.0470
     12  C         26.9720  -21.3700  -12.9170 C.3     1  UNL1        0.0100
     13  C         23.7390  -22.5210   -9.5730 C.2     1  UNL1        0.2520
     14  N         24.2880  -23.7310   -9.2740 N.am    1  UNL1       -0.3660
     15  H         24.8730  -24.2270   -9.9230 H       1  UNL1        0.1590
     16  H         24.3560  -23.9690   -8.2940 H       1  UNL1        0.1590
     17  O         23.2310  -21.8420   -8.6840 O.2     1  UNL1       -0.2680
     18  N         20.4160  -21.8300   -9.4370 N.am    1  UNL1       -0.2990
     19  C         20.1530  -22.8530   -8.5410 C.2     1  UNL1        0.2580
     20  O         20.5920  -23.9950   -8.5870 O.2     1  UNL1       -0.2670
     21  H         20.2800  -20.8930   -9.0780 H       1  UNL1        0.1710
     22  C         19.3710  -22.4100   -7.3670 C.2     1  UNL1        0.0430
     23  C         19.9990  -21.4750   -6.5360 C.2     1  UNL1        0.0180
     24  C         19.3490  -21.0310   -5.3970 C.2     1  UNL1        0.0020
     25  C         18.0820  -21.5290   -5.0880 C.2     1  UNL1        0.0130
     26  C         17.4200  -22.4780   -5.9070 C.2     1  UNL1       -0.0070
     27  C         16.1410  -23.0120   -5.6160 C.2     1  UNL1        0.0220
     28  C         18.0810  -22.9250   -7.0850 C.2     1  UNL1       -0.0090
     29 BR         15.1560  -22.5150   -4.0680 Br      1  UNL1       -0.0500
     30  C         15.5320  -23.9520   -6.4580 C.2     1  UNL1        0.0200
     31  C         16.1790  -24.3820   -7.6080 C.2     1  UNL1        0.0020
     32  C         17.4350  -23.8750   -7.9190 C.2     1  UNL1        0.0130
@<TRIPOS>BOND
     1    11     8    1
     2    11    12    1
     3    10     8   ar
     4    10     5   ar
     5     8     7   ar
     6    12     9    1
     7     5     3    1
     8     5     6   ar
     9     2     1    2
    10     4     3    1
    11     7     9    1
    12     7     6   ar
    13     3     1    1
    14     6    13    1
    15     1    18    1
    16    15    14    1
    17    13    14   am
    18    13    17    2
    19    18    21    1
    20    18    19   am
    21    14    16    1
    22    20    19    2
    23    19    22    1
    24    32    31    2
    25    32    28    1
    26    31    30    1
    27    22    28    2
    28    22    23    1
    29    28    26    1
    30    23    24    2
    31    30    27    2
    32    26    27    1
    33    26    25    2
    34    27    29    1
    35    24    25    1
