@<TRIPOS>MOLECULE
19061_out_ligand_01.pdbqt
 30 33 0 0 0
SMALL
GASTEIGER

@<TRIPOS>ATOM
      1  C         21.9980  -22.3040  -11.5300 C.2     1  UNL1       -0.0380
      2  C         21.4300  -21.4210  -12.4750 C.2     1  UNL1        0.0090
      3  C         20.0960  -21.0260  -12.3810 C.2     1  UNL1        0.0100
      4  C         19.3450  -21.5030  -11.3230 C.2     1  UNL1       -0.0300
      5  C         19.8890  -22.3830  -10.3860 C.2     1  UNL1        0.0440
      6  C         21.2080  -22.7950  -10.4800 C.2     1  UNL1        0.0390
      7  N         18.9270  -22.7160   -9.4140 N.am    1  UNL1       -0.3130
      8  C         19.0950  -23.6530   -8.4130 C.2     1  UNL1        0.2580
      9  O         20.0380  -24.4290   -8.2990 O.2     1  UNL1       -0.2670
     10  C         17.7150  -21.9190   -9.6850 C.2     1  UNL1        0.1370
     11  C         17.8980  -21.2470  -11.0470 C.2     1  UNL1        0.0610
     12  C         23.4460  -22.7050  -11.6420 C.3     1  UNL1        0.1610
     13  N         24.0070  -22.3140  -12.9160 N.am    1  UNL1       -0.3530
     14  C         24.8330  -23.1470  -13.6350 C.2     1  UNL1        0.2530
     15  O         25.1080  -24.2950  -13.2890 O.2     1  UNL1       -0.2680
     16  H         23.8570  -21.3620  -13.2180 H       1  UNL1        0.1630
     17  C         25.3410  -22.6290  -14.9290 C.2     1  UNL1        0.0490
     18  C         24.8370  -23.2620  -16.0750 C.2     1  UNL1        0.0180
     19  C         25.2400  -22.8550  -17.3490 C.2     1  UNL1        0.0010
     20  C         26.1540  -21.8180  -17.4890 C.2     1  UNL1        0.0010
     21  C         26.6750  -21.1930  -16.3560 C.2     1  UNL1        0.0200
     22  C         26.2770  -21.5970  -15.0740 C.2     1  UNL1        0.0260
     23 BR         27.1210  -20.7300  -13.6110 Br      1  UNL1       -0.0500
     24  C         18.0250  -23.7510   -7.3900 C.2     1  UNL1        0.0320
     25  C         16.8180  -24.3950   -7.6900 C.2     1  UNL1        0.0180
     26  C         15.8090  -24.4650   -6.7220 C.2     1  UNL1        0.0250
     27  C         16.0070  -23.8820   -5.4680 C.2     1  UNL1        0.0340
     28 CL         14.7620  -23.9670   -4.2790 Cl      1  UNL1       -0.0840
     29  C         17.2010  -23.2160   -5.1760 C.2     1  UNL1        0.0250
     30  C         18.2130  -23.1450   -6.1430 C.2     1  UNL1        0.0180
@<TRIPOS>BOND
     1    20    19    2
     2    20    21    1
     3    19    18    1
     4    21    22    2
     5    18    17    2
     6    22    17    1
     7    22    23    1
     8    17    14    1
     9    14    15    2
    10    14    13   am
    11    16    13    1
    12    13    12    1
    13     2     3    1
    14     2     1    2
    15     3     4    2
    16    12     1    1
    17     1     6    1
    18     4    11    1
    19     4     5    1
    20    11    10    2
    21     6     5    2
    22     5     7    1
    23    10     7    1
    24     7     8   am
    25     8     9    2
    26     8    24    1
    27    25    24    2
    28    25    26    1
    29    24    30    1
    30    26    27    2
    31    30    29    2
    32    27    29    1
    33    27    28    1
