@<TRIPOS>MOLECULE
19071_out_ligand_01.pdbqt
 35 39 0 0 0
SMALL
GASTEIGER

@<TRIPOS>ATOM
      1  S         16.1660  -23.4160   -9.5440 S.3     1  UNL1       -0.0870
      2  C         16.1480  -23.2430   -7.8210 C.ar    1  UNL1        0.1700
      3  N         17.0520  -23.8510   -6.9850 N.ar    1  UNL1       -0.3190
      4  C         16.7110  -23.4990   -5.6940 C.ar    1  UNL1        0.0830
      5  C         17.2360  -23.7950   -4.4450 C.2     1  UNL1        0.1480
      6  C         15.6020  -22.6710   -5.8420 C.ar    1  UNL1        0.0890
      7  N         16.6500  -23.2580   -3.3500 N.2     1  UNL1       -0.2710
      8  C         15.5690  -22.4560   -3.5000 C.2     1  UNL1        0.1180
      9  C         14.9940  -22.1210   -4.7140 C.2     1  UNL1        0.0530
     10  N         15.2710  -22.5260   -7.1630 N.ar    1  UNL1       -0.2220
     11  C         18.1570  -24.7220   -7.3590 C.3     1  UNL1        0.1700
     12  C         19.4090  -23.9480   -7.6970 C.2     1  UNL1       -0.0400
     13  C         19.5950  -22.6290   -7.2550 C.2     1  UNL1        0.0090
     14  C         20.7560  -21.9250   -7.5830 C.2     1  UNL1        0.0070
     15  C         21.7640  -22.5300   -8.3380 C.2     1  UNL1       -0.0620
     16  C         22.9950  -21.7630   -8.7210 C.3     1  UNL1        0.0480
     17  C         21.5860  -23.8450   -8.7780 C.2     1  UNL1        0.0070
     18  C         20.4250  -24.5510   -8.4530 C.2     1  UNL1        0.0090
     19  C         16.6210  -21.7280  -10.0310 C.3     1  UNL1        0.1210
     20  C         17.9680  -21.6320  -10.7070 C.2     1  UNL1       -0.0480
     21  C         18.7540  -22.7790  -10.8840 C.2     1  UNL1        0.0090
     22  C         19.9970  -22.6980  -11.5180 C.2     1  UNL1        0.0170
     23  C         20.4750  -21.4680  -11.9870 C.2     1  UNL1        0.0320
     24  C         19.7080  -20.3140  -11.7880 C.2     1  UNL1        0.0170
     25  C         18.4610  -20.3980  -11.1570 C.2     1  UNL1        0.0090
     26  C         21.8050  -21.4460  -12.6620 C.2     1  UNL1        0.2520
     27  O         21.9730  -20.7680  -13.6710 O.2     1  UNL1       -0.2680
     28  N         22.8110  -22.1880  -12.0760 N.am    1  UNL1       -0.3520
     29  H         22.6270  -22.7120  -11.2350 H       1  UNL1        0.1630
     30  C         24.1350  -22.2970  -12.6810 C.3     1  UNL1        0.0840
     31  C         25.0620  -21.1880  -12.1540 C.3     1  UNL1        0.0250
     32  C         25.8520  -21.6460  -10.9330 C.3     1  UNL1        0.0020
     33  C         26.7580  -22.8340  -11.2610 C.3     1  UNL1        0.0000
     34  C         26.2270  -23.7120  -12.3960 C.3     1  UNL1        0.0020
     35  C         24.7060  -23.7100  -12.4490 C.3     1  UNL1        0.0250
@<TRIPOS>BOND
     1    27    26    2
     2    30    35    1
     3    30    31    1
     4    30    28    1
     5    26    28   am
     6    26    23    1
     7    35    34    1
     8    34    33    1
     9    31    32    1
    10    28    29    1
    11    23    24    2
    12    23    22    1
    13    24    25    1
    14    22    21    2
    15    33    32    1
    16    25    20    2
    17    21    20    1
    18    20    19    1
    19    19     1    1
    20     1     2    1
    21    17    18    1
    22    17    15    2
    23    16    15    1
    24    18    12    2
    25    15    14    1
    26     2    10   ar
    27     2     3   ar
    28    12    11    1
    29    12    13    1
    30    14    13    2
    31    11     3    1
    32    10     6   ar
    33     3     4   ar
    34     6     4   ar
    35     6     9    1
    36     4     5    1
    37     9     8    2
    38     5     7    2
    39     8     7    1
