@<TRIPOS>MOLECULE
19082_out_ligand_01.pdbqt
 33 36 0 0 0
SMALL
GASTEIGER

@<TRIPOS>ATOM
      1  C         23.0180  -22.6900   -9.3490 C.2     1  UNL1        0.0170
      2  C         22.2000  -23.7910   -9.6500 C.2     1  UNL1        0.0170
      3  C         20.9760  -23.9770   -8.9960 C.2     1  UNL1        0.0180
      4  C         20.5470  -23.0550   -8.0370 C.2     1  UNL1        0.0320
      5  C         21.3650  -21.9670   -7.7110 C.2     1  UNL1        0.0180
      6  C         22.5870  -21.7840   -8.3680 C.2     1  UNL1        0.0170
      7  C         24.2880  -22.4640  -10.0330 C.ar    1  UNL1        0.1800
      8  N         24.8680  -21.3260  -10.3660 N.ar    1  UNL1       -0.2250
      9  C         26.0010  -21.7090  -11.0550 C.ar    1  UNL1        0.0780
     10  C         26.0810  -23.0860  -11.0700 C.ar    1  UNL1        0.0770
     11  O         24.9880  -23.5780  -10.4150 O.2     1  UNL1       -0.2940
     12  C         27.0190  -24.0720  -11.6350 C.3     1  UNL1        0.0790
     13  C         26.9110  -20.6940  -11.6410 C.3     1  UNL1        0.1760
     14  S         26.0810  -19.5380  -12.7830 S.O     1  UNL1        0.0550
     15  O         27.1210  -18.6730  -13.4360 O.2     1  UNL1       -0.2520
     16  C         25.5320  -20.7270  -14.0250 C.2     1  UNL1        0.0310
     17  C         26.4600  -21.2620  -14.9250 C.2     1  UNL1        0.0210
     18  C         26.0510  -22.1770  -15.8970 C.2     1  UNL1        0.0080
     19  C         24.7110  -22.5770  -15.9780 C.2     1  UNL1       -0.0620
     20  C         24.2830  -23.5470  -17.0390 C.3     1  UNL1        0.0480
     21  C         23.7860  -22.0460  -15.0710 C.2     1  UNL1        0.0080
     22  C         24.1950  -21.1310  -14.0970 C.2     1  UNL1        0.0210
     23  C         19.2490  -23.2040   -7.3200 C.2     1  UNL1        0.2520
     24  O         18.5730  -24.2130   -7.4820 O.2     1  UNL1       -0.2680
     25  N         18.8950  -22.1730   -6.4750 N.am    1  UNL1       -0.3520
     26  H         19.5070  -21.3770   -6.3740 H       1  UNL1        0.1630
     27  C         17.6070  -22.1420   -5.7820 C.3     1  UNL1        0.0840
     28  C         16.4890  -22.3590   -6.8100 C.3     1  UNL1        0.0250
     29  C         15.0710  -22.4000   -6.2450 C.3     1  UNL1        0.0020
     30  C         14.7770  -23.6860   -5.4810 C.3     1  UNL1        0.0000
     31  C         15.1680  -23.6630   -4.0070 C.3     1  UNL1        0.0000
     32  C         16.4720  -22.9580   -3.6470 C.3     1  UNL1        0.0020
     33  C         17.6190  -23.1630   -4.6330 C.3     1  UNL1        0.0250
@<TRIPOS>BOND
     1    20    19    1
     2    19    18    2
     3    19    21    1
     4    18    17    1
     5    21    22    2
     6    17    16    2
     7    22    16    1
     8    16    14    1
     9    15    14    2
    10    14    13    1
    11    13     9    1
    12    12    10    1
    13    10     9   ar
    14    10    11   ar
    15     9     8   ar
    16    11     7   ar
    17     8     7   ar
    18     7     1    1
    19     2     1    2
    20     2     3    1
    21     1     6    1
    22     3     4    2
    23     6     5    2
    24     4     5    1
    25     4    23    1
    26    24    23    2
    27    23    25   am
    28    28    29    1
    29    28    27    1
    30    25    26    1
    31    25    27    1
    32    29    30    1
    33    27    33    1
    34    30    31    1
    35    33    32    1
    36    31    32    1
