@<TRIPOS>MOLECULE
19096_out_ligand_01.pdbqt
 31 33 0 0 0
SMALL
GASTEIGER

@<TRIPOS>ATOM
      1  N         21.6640  -23.4010   -8.5600 N.am    1  UNL1       -0.3530
      2  C         20.6120  -24.2780   -8.6770 C.2     1  UNL1        0.2520
      3  O         20.7090  -25.4390   -9.0520 O.2     1  UNL1       -0.2680
      4  H         21.4530  -22.4270   -8.3980 H       1  UNL1        0.1630
      5  C         19.2920  -23.6570   -8.3500 C.2     1  UNL1        0.0430
      6  C         18.8110  -23.9500   -7.1240 C.2     1  UNL1        0.0290
      7  C         17.5260  -23.5210   -6.5540 C.2     1  UNL1       -0.0350
      8  C         17.4550  -22.3040   -5.8690 C.2     1  UNL1        0.0110
      9  C         16.2510  -21.8800   -5.3010 C.2     1  UNL1        0.0010
     10  C         15.1140  -22.6780   -5.4030 C.2     1  UNL1        0.0000
     11  C         15.1780  -23.8990   -6.0670 C.2     1  UNL1        0.0010
     12  C         16.3810  -24.3230   -6.6350 C.2     1  UNL1        0.0110
     13  C         18.6320  -22.8140   -9.3650 C.2     1  UNL1       -0.0210
     14  C         17.2470  -22.8860   -9.5720 C.2     1  UNL1        0.0120
     15  C         16.6260  -22.0640  -10.5160 C.2     1  UNL1        0.0010
     16  C         17.3820  -21.1600  -11.2590 C.2     1  UNL1        0.0000
     17  C         18.7580  -21.0760  -11.0610 C.2     1  UNL1        0.0010
     18  C         19.3790  -21.8950  -10.1170 C.2     1  UNL1        0.0120
     19  C         22.9700  -23.7260   -9.0820 C.3     1  UNL1        0.1610
     20  C         23.2140  -23.0130  -10.3910 C.2     1  UNL1       -0.0400
     21  C         22.1400  -22.5870  -11.1860 C.2     1  UNL1        0.0100
     22  C         22.3750  -21.9500  -12.4060 C.2     1  UNL1        0.0250
     23  C         23.6870  -21.7350  -12.8310 C.2     1  UNL1        0.0740
     24  C         24.7660  -22.1610  -12.0590 C.2     1  UNL1        0.0250
     25  C         24.5260  -22.7940  -10.8390 C.2     1  UNL1        0.0100
     26  S         23.9680  -20.9280  -14.3850 S.O2    1  UNL1        0.2390
     27  O         25.0440  -19.9770  -14.2290 O.2     1  UNL1       -0.2060
     28  O         23.9590  -21.9290  -15.4240 O.2     1  UNL1       -0.2060
     29  N         22.5680  -20.0030  -14.5390 N.3     1  UNL1       -0.2250
     30  H         22.5440  -19.4540  -15.3990 H       1  UNL1        0.1360
     31  H         21.7570  -20.6190  -14.4620 H       1  UNL1        0.1360
@<TRIPOS>BOND
     1    28    26    2
     2    30    29    1
     3    29    31    1
     4    29    26    1
     5    26    27    2
     6    26    23    1
     7    23    22    2
     8    23    24    1
     9    22    21    1
    10    24    25    2
    11    16    17    2
    12    16    15    1
    13    21    20    2
    14    17    18    1
    15    25    20    1
    16    15    14    2
    17    20    19    1
    18    18    13    2
    19    14    13    1
    20    13     5    1
    21    19     1    1
    22     3     2    2
    23     2     1   am
    24     2     5    1
    25     1     4    1
    26     5     6    2
    27     6     7    1
    28    12     7    2
    29    12    11    1
    30     7     8    1
    31    11    10    2
    32     8     9    2
    33    10     9    1
