@<TRIPOS>MOLECULE
19093_out_ligand_01.pdbqt
 36 39 0 0 0
SMALL
GASTEIGER

@<TRIPOS>ATOM
      1  C         23.2130  -21.9260  -11.4920 C.2     1  UNL1        0.0370
      2  C         23.7930  -21.9180  -10.2150 C.2     1  UNL1        0.0290
      3  C         23.0050  -22.0350   -9.0680 C.2     1  UNL1        0.0030
      4  C         21.6240  -22.1730   -9.1860 C.2     1  UNL1        0.0170
      5  C         21.0350  -22.2020  -10.4550 C.2     1  UNL1        0.0340
      6  C         21.8290  -22.0660  -11.6050 C.2     1  UNL1        0.0460
      7  N         24.0930  -21.8100  -12.5870 N.am    1  UNL1       -0.3090
      8  C         24.8100  -22.8080  -13.2170 C.2     1  UNL1        0.3270
      9  N         25.6540  -22.3630  -14.2480 N.am    1  UNL1       -0.2960
     10  O         24.6870  -24.0060  -12.9740 O.2     1  UNL1       -0.2460
     11  C         25.9290  -23.2990  -15.3390 C.3     1  UNL1        0.1440
     12  C         26.0240  -21.0030  -14.4970 C.2     1  UNL1        0.0800
     13  C         25.0160  -23.0090  -16.5190 C.3     1  UNL1        0.1010
     14  S         25.3620  -21.3680  -17.2310 S.3     1  UNL1       -0.1060
     15  C         25.9150  -20.4580  -15.7920 C.2     1  UNL1        0.1210
     16  N         26.2000  -19.1610  -16.0720 N.2     1  UNL1       -0.2440
     17  C         26.6350  -18.3660  -15.0730 C.2     1  UNL1        0.0320
     18  C         26.9480  -16.9390  -15.4150 C.3     1  UNL1        0.0700
     19  C         26.8300  -18.8370  -13.7810 C.2     1  UNL1        0.0350
     20  C         26.5520  -20.1790  -13.4810 C.2     1  UNL1       -0.0300
     21  C         26.8970  -20.6630  -12.0960 C.3     1  UNL1        0.0500
     22  H         24.1090  -20.9110  -13.0450 H       1  UNL1        0.1700
     23  C         19.5640  -22.3440  -10.6180 C.2     1  UNL1        0.2520
     24  O         19.0100  -21.9310  -11.6290 O.2     1  UNL1       -0.2680
     25  N         18.8980  -22.9710   -9.5830 N.am    1  UNL1       -0.3530
     26  H         19.4190  -23.3160   -8.7880 H       1  UNL1        0.1630
     27  C         17.4440  -23.0970   -9.5690 C.3     1  UNL1        0.0810
     28  C         16.8090  -21.7340   -9.8500 C.3     1  UNL1        0.0320
     29  C         16.9940  -23.6900   -8.2250 C.3     1  UNL1        0.0290
     30  C         18.1600  -24.0130   -7.2870 C.3     1  UNL1        0.0400
     31  C         18.2740  -22.9960   -6.1780 C.2     1  UNL1       -0.0580
     32  C         17.6520  -23.2210   -4.9430 C.2     1  UNL1        0.0070
     33  C         17.7700  -22.2880   -3.9110 C.2     1  UNL1        0.0010
     34  C         18.5150  -21.1260   -4.1050 C.2     1  UNL1        0.0000
     35  C         19.1430  -20.8960   -5.3270 C.2     1  UNL1        0.0010
     36  C         19.0260  -21.8280   -6.3600 C.2     1  UNL1        0.0070
@<TRIPOS>BOND
     1    14    13    1
     2    14    15    1
     3    13    11    1
     4    16    15    1
     5    16    17    2
     6    15    12    2
     7    18    17    1
     8    11     9    1
     9    17    19    1
    10    12     9    1
    11    12    20    1
    12     9     8   am
    13    19    20    2
    14    20    21    1
    15     8    10    2
    16     8     7   am
    17    22     7    1
    18     7     1    1
    19    24    23    2
    20     6     1    2
    21     6     5    1
    22     1     2    1
    23    23     5    1
    24    23    25   am
    25     5     4    2
    26     2     3    2
    27    28    27    1
    28    25    27    1
    29    25    26    1
    30    27    29    1
    31     4     3    1
    32    29    30    1
    33    30    31    1
    34    36    31    2
    35    36    35    1
    36    31    32    1
    37    35    34    2
    38    32    33    2
    39    34    33    1
