@<TRIPOS>MOLECULE
190_out_ligand_01.pdbqt
 36 38 0 0 0
SMALL
GASTEIGER

@<TRIPOS>ATOM
      1  C         18.9260  -21.6950   -5.8800 C.2     1  UNL1        0.0910
      2  C         20.1590  -21.0420   -5.9940 C.2     1  UNL1        0.0390
      3  C         21.0860  -21.4420   -6.9600 C.2     1  UNL1        0.0200
      4  C         20.7720  -22.4870   -7.8350 C.2     1  UNL1        0.0340
      5  C         19.5380  -23.1410   -7.7260 C.2     1  UNL1        0.0450
      6  C         18.6040  -22.7290   -6.7610 C.2     1  UNL1        0.1130
      7  C         21.7330  -22.9480   -8.8770 C.2     1  UNL1        0.2560
      8  O         21.9010  -24.1520   -9.0250 O.2     1  UNL1       -0.2670
      9  N         22.3100  -21.9400   -9.6310 N.am    1  UNL1       -0.3230
     10  H         21.9190  -21.0120   -9.5370 H       1  UNL1        0.1690
     11  C         23.2870  -22.0990  -10.6350 C.2     1  UNL1        0.0360
     12  C         24.4370  -22.8300  -10.3080 C.2     1  UNL1        0.0290
     13  C         25.4590  -23.0150  -11.2450 C.2     1  UNL1        0.0040
     14  C         25.3410  -22.4740  -12.5220 C.2     1  UNL1        0.0250
     15  C         24.1880  -21.7610  -12.8540 C.2     1  UNL1        0.0760
     16  C         23.1580  -21.5790  -11.9240 C.2     1  UNL1        0.0540
     17  S         24.0090  -21.0680  -14.4740 S.O2    1  UNL1        0.2390
     18  O         23.7550  -22.1510  -15.3960 O.2     1  UNL1       -0.2060
     19  O         25.0610  -20.1010  -14.6790 O.2     1  UNL1       -0.2060
     20  N         22.5630  -20.2120  -14.3380 N.3     1  UNL1       -0.2250
     21  H         22.4750  -19.5890  -15.1440 H       1  UNL1        0.1360
     22  H         21.7450  -20.8130  -14.2410 H       1  UNL1        0.1360
     23  S         17.0630  -23.6000   -6.6620 S.O2    1  UNL1        0.2610
     24  O         17.3000  -24.8160   -5.9130 O.2     1  UNL1       -0.2000
     25  O         15.9950  -22.7010   -6.2880 O.2     1  UNL1       -0.2000
     26  N         16.8300  -24.1030   -8.2450 N.3     1  UNL1       -0.3110
     27  H         16.6300  -25.1030   -8.2990 H       1  UNL1        0.1720
     28  C         16.0610  -23.2300   -9.1320 C.3     1  UNL1        0.1720
     29  C         16.9610  -22.4830  -10.0770 C.2     1  UNL1       -0.0220
     30  C         18.1950  -23.0060  -10.4780 C.2     1  UNL1        0.0120
     31  C         19.0080  -22.2790  -11.3410 C.2     1  UNL1        0.0200
     32  C         18.5620  -21.0420  -11.7750 C.2     1  UNL1        0.1160
     33  N         17.3830  -20.5000  -11.4030 N.2     1  UNL1       -0.2730
     34  C         16.6130  -21.2280  -10.5640 C.2     1  UNL1        0.1240
     35  O         18.0260  -21.2300   -4.9640 O.2     1  UNL1       -0.3540
     36  C         18.4670  -21.4870   -3.6270 C.3     1  UNL1        0.2100
@<TRIPOS>BOND
     1    18    17    2
     2    21    20    1
     3    19    17    2
     4    17    20    1
     5    17    15    1
     6    20    22    1
     7    15    14    2
     8    15    16    1
     9    14    13    1
    10    16    11    2
    11    32    33    2
    12    32    31    1
    13    33    34    1
    14    31    30    2
    15    13    12    2
    16    11    12    1
    17    11     9    1
    18    34    29    2
    19    30    29    1
    20    29    28    1
    21     9    10    1
    22     9     7   am
    23    28    26    1
    24     8     7    2
    25     7     4    1
    26    27    26    1
    27    26    23    1
    28     4     5    2
    29     4     3    1
    30     5     6    1
    31     3     2    2
    32     6    23    1
    33     6     1    2
    34    23    25    2
    35    23    24    2
    36     2     1    1
    37     1    35    1
    38    35    36    1
