@<TRIPOS>MOLECULE
19106_out_ligand_01.pdbqt
 30 33 0 0 0
SMALL
GASTEIGER

@<TRIPOS>ATOM
      1  C         21.5780  -21.7570  -12.1640 C.2     1  UNL1        0.0340
      2  C         20.3090  -21.1680  -12.0850 C.2     1  UNL1        0.0190
      3  C         19.4180  -21.5390  -11.0650 C.2     1  UNL1        0.0270
      4  C         19.7620  -22.5090  -10.1090 C.2     1  UNL1        0.0440
      5  C         21.0380  -23.0870  -10.2310 C.2     1  UNL1        0.1250
      6  C         21.9450  -22.7360  -11.2400 C.2     1  UNL1        0.0550
      7  C         22.5450  -21.3970  -13.2390 C.2     1  UNL1        0.2560
      8  N         23.7160  -22.1320  -13.2400 N.am    1  UNL1       -0.3230
      9  H         23.7750  -22.9130  -12.6000 H       1  UNL1        0.1690
     10  O         22.2170  -20.5250  -14.0320 O.2     1  UNL1       -0.2670
     11  C         24.8210  -21.9780  -14.1060 C.2     1  UNL1        0.0350
     12  C         26.0730  -21.5190  -13.6970 C.2     1  UNL1        0.0290
     13  C         27.1160  -21.3960  -14.6200 C.2     1  UNL1        0.0030
     14  C         26.9180  -21.7370  -15.9570 C.2     1  UNL1        0.0070
     15  C         25.6760  -22.2170  -16.3820 C.2     1  UNL1       -0.0600
     16  C         25.4490  -22.5530  -17.8270 C.3     1  UNL1        0.0480
     17  C         24.6310  -22.3230  -15.4530 C.2     1  UNL1        0.0360
     18  N         21.4570  -24.1060   -9.2960 N.pl3   1  UNL1       -0.1140
     19  O         20.7110  -25.0850   -9.1540 O.2     1  UNL1       -0.5320
     20  O         22.5630  -23.9480   -8.7590 O.2     1  UNL1       -0.5320
     21  N         18.8850  -22.8740   -9.0750 N.pl3   1  UNL1       -0.2770
     22  C         17.4570  -22.9080   -9.4290 C.3     1  UNL1        0.1010
     23  C         16.7050  -23.7250   -8.3750 C.3     1  UNL1        0.0540
     24  C         17.0010  -23.2360   -6.9790 C.2     1  UNL1       -0.0500
     25  C         16.1260  -23.5490   -5.9290 C.2     1  UNL1        0.0070
     26  C         18.1850  -22.5210   -6.7140 C.2     1  UNL1       -0.0380
     27  C         16.4080  -23.1340   -4.6280 C.2     1  UNL1        0.0010
     28  C         17.5690  -22.4110   -4.3640 C.2     1  UNL1        0.0010
     29  C         18.4520  -22.1060   -5.3990 C.2     1  UNL1        0.0090
     30  C         19.1580  -22.1460   -7.8160 C.3     1  UNL1        0.1340
@<TRIPOS>BOND
     1    16    15    1
     2    15    14    2
     3    15    17    1
     4    14    13    1
     5    17    11    2
     6    13    12    2
     7    11    12    1
     8    11     8    1
     9    10     7    2
    10     8     7   am
    11     8     9    1
    12     7     1    1
    13     1     2    2
    14     1     6    1
    15     2     3    1
    16     6     5    2
    17     3     4    2
    18     5     4    1
    19     5    18    1
    20     4    21    1
    21    22    21    1
    22    22    23    1
    23    18    19    2
    24    18    20    2
    25    21    30    1
    26    23    24    1
    27    30    26    1
    28    24    26    2
    29    24    25    1
    30    26    29    1
    31    25    27    2
    32    29    28    2
    33    27    28    1
