@<TRIPOS>MOLECULE
19115_out_ligand_01.pdbqt
 35 39 0 0 0
SMALL
GASTEIGER

@<TRIPOS>ATOM
      1  C         16.6290  -21.6180   -9.9590 C.3     1  UNL1        0.1210
      2  C         17.9680  -21.6000  -10.6560 C.2     1  UNL1       -0.0480
      3  C         18.6810  -22.7910  -10.8600 C.2     1  UNL1        0.0090
      4  C         19.9250  -22.7730  -11.4930 C.2     1  UNL1        0.0170
      5  C         20.4850  -21.5610  -11.9160 C.2     1  UNL1        0.0320
      6  C         19.7790  -20.3680  -11.7220 C.2     1  UNL1        0.0170
      7  C         18.5300  -20.3890  -11.0920 C.2     1  UNL1        0.0090
      8  C         21.8140  -21.5890  -12.5830 C.2     1  UNL1        0.2510
      9  O         21.9920  -20.9790  -13.6330 O.2     1  UNL1       -0.2680
     10  N         22.7880  -22.3560  -11.9770 N.am    1  UNL1       -0.3530
     11  H         22.5080  -23.0190  -11.2660 H       1  UNL1        0.1630
     12  C         24.0710  -22.5710  -12.6100 C.3     1  UNL1        0.1620
     13  C         25.0030  -21.4250  -12.3470 C.2     1  UNL1       -0.0230
     14  C         25.5020  -20.6290  -13.3840 C.2     1  UNL1        0.0120
     15  C         26.3500  -19.5650  -13.0910 C.2     1  UNL1        0.0200
     16  C         26.6680  -19.3270  -11.7630 C.2     1  UNL1        0.1160
     17  N         26.2070  -20.0700  -10.7370 N.2     1  UNL1       -0.2730
     18  C         25.3850  -21.0990  -11.0490 C.2     1  UNL1        0.1240
     19  S         16.1310  -23.3150   -9.5390 S.3     1  UNL1       -0.0870
     20  C         16.1300  -23.2250   -7.8080 C.ar    1  UNL1        0.1710
     21  N         15.3040  -22.4840   -7.0990 N.ar    1  UNL1       -0.2210
     22  C         15.6760  -22.6930   -5.7970 C.ar    1  UNL1        0.1050
     23  C         15.1720  -22.1710   -4.6020 C.2     1  UNL1        0.0370
     24  C         16.7490  -23.5730   -5.7200 C.ar    1  UNL1        0.1610
     25  C         15.7920  -22.5720   -3.4170 C.2     1  UNL1        0.0220
     26  C         16.8650  -23.4580   -3.4790 C.2     1  UNL1        0.1190
     27  N         17.3880  -23.9940   -4.6090 N.2     1  UNL1       -0.2410
     28  N         17.0170  -23.9180   -7.0210 N.ar    1  UNL1       -0.3040
     29  C         18.0970  -24.8000   -7.4300 C.3     1  UNL1        0.1710
     30  C         19.3650  -24.0400   -7.7440 C.2     1  UNL1       -0.0400
     31  C         20.3950  -24.6420   -8.4830 C.2     1  UNL1        0.0090
     32  C         21.5660  -23.9400   -8.7750 C.2     1  UNL1        0.0010
     33  C         21.7220  -22.6290   -8.3280 C.2     1  UNL1        0.0000
     34  C         20.7100  -22.0200   -7.5910 C.2     1  UNL1        0.0010
     35  C         19.5380  -22.7210   -7.2980 C.2     1  UNL1        0.0090
@<TRIPOS>BOND
     1     9     8    2
     2    14    15    1
     3    14    13    2
     4    15    16    2
     5    12    13    1
     6    12    10    1
     7     8    10   am
     8     8     5    1
     9    13    18    1
    10    10    11    1
    11     5     6    2
    12     5     4    1
    13    16    17    1
    14     6     7    1
    15     4     3    2
    16     7     2    2
    17    18    17    2
    18     3     2    1
    19     2     1    1
    20     1    19    1
    21    19    20    1
    22    32    31    1
    23    32    33    2
    24    31    30    2
    25    33    34    1
    26    20    21   ar
    27    20    28   ar
    28    30    29    1
    29    30    35    1
    30    34    35    2
    31    29    28    1
    32    21    22   ar
    33    28    24   ar
    34    22    24   ar
    35    22    23    1
    36    24    27    1
    37    27    26    2
    38    23    25    2
    39    26    25    1
