@<TRIPOS>MOLECULE
1911_out_ligand_01.pdbqt
 43 49 0 0 0
SMALL
GASTEIGER

@<TRIPOS>ATOM
      1  C         19.6290  -22.9880  -10.0680 C.2     1  UNL1        0.0800
      2  C         19.7950  -23.9780   -9.0910 C.2     1  UNL1        0.0280
      3  C         21.0760  -24.3810   -8.6990 C.2     1  UNL1        0.0400
      4  C         22.1490  -23.7540   -9.3310 C.ar    1  UNL1        0.0870
      5  O         23.4620  -24.0060   -9.0780 O.2     1  UNL1       -0.3090
      6  C         24.1890  -23.1930   -9.8920 C.ar    1  UNL1        0.0870
      7  C         25.5810  -23.1370   -9.9360 C.2     1  UNL1        0.0400
      8  C         26.1440  -22.2340  -10.8430 C.2     1  UNL1        0.0280
      9  C         25.3270  -21.4460  -11.6650 C.2     1  UNL1        0.0800
     10  C         23.9250  -21.5040  -11.5870 C.2     1  UNL1        0.0400
     11  C         23.3480  -22.4120  -10.6790 C.ar    1  UNL1        0.0120
     12  C         22.0200  -22.7760  -10.3130 C.ar    1  UNL1        0.0120
     13  C         20.7260  -22.3810  -10.7040 C.2     1  UNL1        0.0400
     14  S         17.9900  -22.4910  -10.5440 S.O2    1  UNL1        0.2630
     15  O         18.1390  -21.4670  -11.5580 O.2     1  UNL1       -0.2000
     16  O         17.2000  -23.6750  -10.7930 O.2     1  UNL1       -0.2000
     17  N         17.4280  -21.7040   -9.1620 N.pl3   1  UNL1       -0.2800
     18  H         16.8700  -20.8830   -9.3960 H       1  UNL1        0.1790
     19  C         16.9850  -22.4990   -8.0590 C.2     1  UNL1        0.0530
     20  C         16.0340  -23.4870   -8.3280 C.2     1  UNL1        0.0310
     21  C         15.5520  -24.2920   -7.2990 C.2     1  UNL1        0.0030
     22  C         16.0210  -24.1090   -6.0000 C.2     1  UNL1        0.0120
     23  C         16.9760  -23.1210   -5.7080 C.2     1  UNL1       -0.0240
     24  C         17.4400  -22.9530   -4.3910 C.2     1  UNL1        0.0120
     25  C         17.4730  -22.2900   -6.7430 C.2     1  UNL1        0.0010
     26  C         18.3850  -21.9760   -4.0830 C.2     1  UNL1        0.0010
     27  C         18.8760  -21.1500   -5.0860 C.2     1  UNL1        0.0010
     28  C         18.4270  -21.3040   -6.4000 C.2     1  UNL1        0.0140
     29  S         26.0750  -20.3030  -12.8100 S.O2    1  UNL1        0.2630
     30  O         25.0140  -19.7700  -13.6390 O.2     1  UNL1       -0.2000
     31  O         26.9490  -19.4280  -12.0600 O.2     1  UNL1       -0.2000
     32  N         26.9960  -21.2970  -13.8150 N.pl3   1  UNL1       -0.2800
     33  H         27.7160  -20.7910  -14.3260 H       1  UNL1        0.1790
     34  C         26.3780  -22.4220  -14.4440 C.2     1  UNL1        0.0530
     35  C         26.4040  -23.6450  -13.7690 C.2     1  UNL1        0.0310
     36  C         25.7770  -24.7590  -14.3150 C.2     1  UNL1        0.0030
     37  C         25.1150  -24.6510  -15.5350 C.2     1  UNL1        0.0120
     38  C         25.0710  -23.4320  -16.2280 C.2     1  UNL1       -0.0240
     39  C         24.3920  -23.3410  -17.4530 C.2     1  UNL1        0.0120
     40  C         25.7090  -22.2880  -15.6880 C.2     1  UNL1        0.0010
     41  C         24.3280  -22.1370  -18.1530 C.2     1  UNL1        0.0010
     42  C         24.9450  -21.0060  -17.6380 C.2     1  UNL1        0.0010
     43  C         25.6270  -21.0800  -16.4220 C.2     1  UNL1        0.0140
@<TRIPOS>BOND
     1    41    42    1
     2    41    39    2
     3    42    43    2
     4    39    38    1
     5    43    40    1
     6    38    40    1
     7    38    37    2
     8    40    34    2
     9    37    36    1
    10    34    32    1
    11    34    35    1
    12    33    32    1
    13    36    35    2
    14    32    29    1
    15    30    29    2
    16    29    31    2
    17    29     9    1
    18     9    10    2
    19     9     8    1
    20    10    11    1
    21    15    14    2
    22     8     7    2
    23    16    14    2
    24    13    12    1
    25    13     1    2
    26    11    12   ar
    27    11     6   ar
    28    14     1    1
    29    14    17    1
    30    12     4   ar
    31     1     2    1
    32     7     6    1
    33     6     5   ar
    34    18    17    1
    35     4     5   ar
    36     4     3    1
    37    17    19    1
    38     2     3    2
    39    20    19    2
    40    20    21    1
    41    19    25    1
    42    21    22    2
    43    25    28    1
    44    25    23    2
    45    28    27    2
    46    22    23    1
    47    23    24    1
    48    27    26    1
    49    24    26    2
