@<TRIPOS>MOLECULE
19110_out_ligand_01.pdbqt
 33 35 0 0 0
SMALL
GASTEIGER

@<TRIPOS>ATOM
      1  C         26.0250  -20.5030  -16.2130 C.3     1  UNL1        0.0500
      2  C         25.8090  -21.1320  -14.8620 C.2     1  UNL1       -0.0340
      3  C         26.1850  -20.3050  -13.7310 C.2     1  UNL1        0.0330
      4  C         26.0890  -20.7440  -12.4640 C.2     1  UNL1        0.0120
      5  C         26.4970  -19.8530  -11.3200 C.3     1  UNL1        0.0680
      6  N         25.5980  -22.0260  -12.2150 N.am    1  UNL1       -0.3080
      7  C         25.1370  -22.8540  -13.2460 C.2     1  UNL1        0.2690
      8  O         24.5850  -23.9340  -13.0170 O.2     1  UNL1       -0.2660
      9  C         25.3060  -22.3650  -14.6480 C.2     1  UNL1        0.1180
     10  C         24.9190  -23.2400  -15.6990 C.1     1  UNL1        0.1050
     11  N         24.6250  -23.9350  -16.5820 N.1     1  UNL1       -0.1910
     12  C         25.4640  -22.5460  -10.8460 C.3     1  UNL1        0.2350
     13  C         24.0780  -22.2490  -10.2630 C.2     1  UNL1        0.2400
     14  O         23.8400  -21.1610   -9.7420 O.2     1  UNL1       -0.2710
     15  N         23.1970  -23.3100  -10.4000 N.am    1  UNL1       -0.3260
     16  H         23.5660  -24.1390  -10.8690 H       1  UNL1        0.1690
     17  C         21.8410  -23.3620  -10.0260 C.2     1  UNL1        0.0340
     18  C         20.9610  -22.5130  -10.7100 C.2     1  UNL1        0.0300
     19  C         19.5980  -22.4850  -10.3910 C.2     1  UNL1        0.0190
     20  C         19.0950  -23.3190   -9.3870 C.2     1  UNL1        0.0320
     21  C         19.9750  -24.1650   -8.7010 C.2     1  UNL1        0.0190
     22  C         21.3370  -24.1880   -9.0210 C.2     1  UNL1        0.0300
     23  C         17.6580  -23.3160   -8.9890 C.2     1  UNL1        0.2510
     24  O         16.8570  -22.5890   -9.5660 O.2     1  UNL1       -0.2680
     25  N         17.3050  -24.1410   -7.9470 N.am    1  UNL1       -0.3510
     26  H         18.0140  -24.4790   -7.3050 H       1  UNL1        0.1630
     27  C         15.9580  -24.1350   -7.4170 C.3     1  UNL1        0.1820
     28  C         15.9510  -23.6200   -5.9960 C.2     1  UNL1        0.0510
     29  C         14.9800  -22.7130   -5.5740 C.2     1  UNL1        0.0290
     30  C         14.9970  -22.2850   -4.2480 C.2     1  UNL1        0.0030
     31  C         15.9780  -22.7630   -3.3870 C.2     1  UNL1        0.0190
     32  C         16.9070  -23.6610   -3.8850 C.2     1  UNL1        0.1170
     33  N         16.9110  -24.1070   -5.1610 N.2     1  UNL1       -0.2640
@<TRIPOS>BOND
     1    11    10    3
     2     1     2    1
     3    10     9    1
     4     2     9    2
     5     2     3    1
     6     9     7    1
     7     3     4    2
     8     7     8    2
     9     7     6   am
    10     4     6    1
    11     4     5    1
    12     6    12    1
    13    16    15    1
    14    12    13    1
    15    18    19    1
    16    18    17    2
    17    15    13   am
    18    15    17    1
    19    19    20    2
    20    13    14    2
    21    17    22    1
    22    24    23    2
    23    20    23    1
    24    20    21    1
    25    22    21    2
    26    23    25   am
    27    25    27    1
    28    25    26    1
    29    27    28    1
    30    28    29    2
    31    28    33    1
    32    29    30    1
    33    33    32    2
    34    30    31    2
    35    32    31    1
