@<TRIPOS>MOLECULE
19125_out_ligand_01.pdbqt
 33 36 0 0 0
SMALL
GASTEIGER

@<TRIPOS>ATOM
      1  C         20.6950  -21.7800  -11.3760 C.2     1  UNL1       -0.0380
      2  C         19.6970  -21.3510  -12.2780 C.2     1  UNL1        0.0090
      3  C         18.3490  -21.3300  -11.9090 C.2     1  UNL1        0.0100
      4  C         18.0120  -21.7220  -10.6230 C.2     1  UNL1       -0.0290
      5  C         18.9850  -22.1150   -9.7060 C.2     1  UNL1        0.0440
      6  C         20.3240  -22.1450  -10.0670 C.2     1  UNL1        0.0390
      7  N         18.3920  -22.3940   -8.4520 N.am    1  UNL1       -0.3090
      8  C         19.0960  -22.7450   -7.3070 C.2     1  UNL1        0.2580
      9  O         20.2900  -23.0330   -7.2530 O.2     1  UNL1       -0.2670
     10  C         16.9130  -22.3530   -8.6270 C.3     1  UNL1        0.0930
     11  C         16.3100  -23.7630   -8.5700 C.3     1  UNL1        0.0330
     12  C         16.6540  -21.6950  -10.0000 C.3     1  UNL1        0.0660
     13  C         22.1620  -21.7700  -11.7490 C.3     1  UNL1        0.1630
     14  N         22.3850  -21.5130  -13.1600 N.am    1  UNL1       -0.3390
     15  C         23.6130  -21.7690  -13.7380 C.2     1  UNL1        0.3210
     16  N         23.6350  -21.3390  -15.0480 N.am    1  UNL1       -0.3080
     17  O         24.5290  -22.3040  -13.1250 O.2     1  UNL1       -0.2470
     18  H         22.7230  -21.1920  -15.4560 H       1  UNL1        0.1700
     19  H         21.8510  -20.7540  -13.5540 H       1  UNL1        0.1640
     20  C         24.7520  -21.2610  -15.9200 C.2     1  UNL1        0.0420
     21  C         25.5880  -20.1340  -15.9480 C.2     1  UNL1        0.0300
     22  C         26.6750  -20.0560  -16.8270 C.2     1  UNL1        0.0020
     23  C         26.9420  -21.1040  -17.6970 C.2     1  UNL1        0.0010
     24  C         26.1170  -22.2300  -17.6940 C.2     1  UNL1        0.0090
     25  C         25.0180  -22.3280  -16.8110 C.2     1  UNL1       -0.0320
     26  C         24.1700  -23.5810  -16.8920 C.3     1  UNL1        0.0360
     27  C         23.3160  -23.6220  -18.1530 C.3     1  UNL1        0.0100
     28  C         18.3600  -22.7580   -6.0200 C.2     1  UNL1        0.0320
     29  C         17.8020  -23.9590   -5.5690 C.2     1  UNL1        0.0170
     30  C         17.1410  -23.9950   -4.3400 C.2     1  UNL1        0.0010
     31  C         17.0600  -22.8400   -3.5560 C.2     1  UNL1        0.0000
     32  C         17.6500  -21.6520   -3.9910 C.2     1  UNL1        0.0010
     33  C         18.3090  -21.6100   -5.2200 C.2     1  UNL1        0.0170
@<TRIPOS>BOND
     1    27    26    1
     2    23    24    2
     3    23    22    1
     4    24    25    1
     5    26    25    1
     6    22    21    2
     7    25    20    2
     8    21    20    1
     9    20    16    1
    10    18    16    1
    11    16    15   am
    12    15    14   am
    13    15    17    2
    14    19    14    1
    15    14    13    1
    16     2     3    1
    17     2     1    2
    18     3     4    2
    19    13     1    1
    20     1     6    1
    21     4    12    1
    22     4     5    1
    23     6     5    2
    24    12    10    1
    25     5     7    1
    26    10    11    1
    27    10     7    1
    28     7     8   am
    29     8     9    2
    30     8    28    1
    31    28    29    2
    32    28    33    1
    33    29    30    1
    34    33    32    2
    35    30    31    2
    36    32    31    1
