@<TRIPOS>MOLECULE
19130_out_ligand_01.pdbqt
 35 37 0 0 0
SMALL
GASTEIGER

@<TRIPOS>ATOM
      1  C         24.8890  -20.2880  -17.9330 C.3     1  UNL1        0.0500
      2  C         25.1530  -20.8620  -16.5640 C.2     1  UNL1       -0.0340
      3  C         25.6410  -19.9120  -15.5830 C.2     1  UNL1        0.0330
      4  C         25.9230  -20.2770  -14.3210 C.2     1  UNL1        0.0120
      5  C         26.4340  -19.2560  -13.3360 C.3     1  UNL1        0.0680
      6  N         25.7450  -21.6050  -13.9310 N.am    1  UNL1       -0.3080
      7  C         25.2570  -22.5810  -14.8100 C.2     1  UNL1        0.2690
      8  O         25.0530  -23.7460  -14.4510 O.2     1  UNL1       -0.2660
      9  C         24.9650  -22.1510  -16.2140 C.2     1  UNL1        0.1180
     10  C         24.4880  -23.1410  -17.1190 C.1     1  UNL1        0.1050
     11  N         24.1010  -23.9200  -17.8880 N.1     1  UNL1       -0.1910
     12  C         25.9840  -22.0410  -12.5520 C.3     1  UNL1        0.2350
     13  C         24.7760  -21.6910  -11.6780 C.2     1  UNL1        0.2400
     14  O         24.9090  -21.0270  -10.6500 O.2     1  UNL1       -0.2710
     15  N         23.5800  -22.1350  -12.2240 N.am    1  UNL1       -0.3260
     16  H         23.6340  -22.4850  -13.1810 H       1  UNL1        0.1690
     17  C         22.2860  -22.0280  -11.6780 C.2     1  UNL1        0.0350
     18  C         21.3270  -21.3500  -12.4510 C.2     1  UNL1        0.0290
     19  C         20.0100  -21.2150  -12.0070 C.2     1  UNL1        0.0030
     20  C         19.6420  -21.7360  -10.7680 C.2     1  UNL1        0.0170
     21  C         20.5980  -22.3910   -9.9810 C.2     1  UNL1        0.0340
     22  C         21.9110  -22.5600  -10.4420 C.2     1  UNL1        0.0460
     23  C         20.2300  -22.9410   -8.6530 C.2     1  UNL1        0.2520
     24  O         20.9170  -22.7000   -7.6680 O.2     1  UNL1       -0.2680
     25  N         19.0870  -23.7090   -8.6290 N.am    1  UNL1       -0.3530
     26  H         18.5610  -23.8520   -9.4810 H       1  UNL1        0.1630
     27  C         18.6650  -24.4090   -7.4380 C.3     1  UNL1        0.1610
     28  C         17.4910  -23.7050   -6.8030 C.2     1  UNL1       -0.0390
     29  C         16.6370  -22.8920   -7.5620 C.2     1  UNL1        0.0120
     30  C         15.5320  -22.2790   -6.9640 C.2     1  UNL1        0.0440
     31  C         15.2710  -22.4810   -5.6120 C.2     1  UNL1        0.1380
     32  F         14.1950  -21.8910   -5.0710 F       1  UNL1       -0.2040
     33  C         16.1130  -23.2840   -4.8440 C.2     1  UNL1        0.0730
     34 CL         15.8110  -23.5290   -3.1650 Cl      1  UNL1       -0.0810
     35  C         17.2190  -23.8970   -5.4350 C.2     1  UNL1        0.0350
@<TRIPOS>BOND
     1     1     2    1
     2    11    10    3
     3    10     9    1
     4     2     9    2
     5     2     3    1
     6     9     7    1
     7     3     4    2
     8     7     8    2
     9     7     6   am
    10     4     6    1
    11     4     5    1
    12     6    12    1
    13    16    15    1
    14    12    13    1
    15    18    19    1
    16    18    17    2
    17    15    17    1
    18    15    13   am
    19    19    20    2
    20    17    22    1
    21    13    14    2
    22    20    21    1
    23    22    21    2
    24    21    23    1
    25    26    25    1
    26    23    25   am
    27    23    24    2
    28    25    27    1
    29    29    30    1
    30    29    28    2
    31    27    28    1
    32    30    31    2
    33    28    35    1
    34    31    32    1
    35    31    33    1
    36    35    33    2
    37    33    34    1
