@<TRIPOS>MOLECULE
19144_out_ligand_01.pdbqt
 30 33 0 0 0
SMALL
GASTEIGER

@<TRIPOS>ATOM
      1  C         18.7290  -22.3460   -9.6390 C.2     1  UNL1        0.0340
      2  C         17.7720  -21.7600  -10.4720 C.2     1  UNL1        0.0170
      3  C         18.1730  -21.1480  -11.6590 C.2     1  UNL1        0.0030
      4  C         19.5250  -21.1170  -12.0160 C.2     1  UNL1        0.0290
      5  C         20.4910  -21.6930  -11.1880 C.2     1  UNL1        0.0370
      6  C         20.0850  -22.2980   -9.9930 C.2     1  UNL1        0.0460
      7  N         21.8720  -21.6760  -11.4640 N.am    1  UNL1       -0.3090
      8  C         22.8140  -22.6330  -11.1430 C.2     1  UNL1        0.3270
      9  O         22.6040  -23.5860  -10.3960 O.2     1  UNL1       -0.2460
     10  N         24.0940  -22.3680  -11.6540 N.am    1  UNL1       -0.2960
     11  C         25.2320  -22.9590  -10.9450 C.3     1  UNL1        0.1440
     12  C         24.3930  -21.7080  -12.8960 C.2     1  UNL1        0.0740
     13  C         26.2600  -21.9050  -10.5780 C.3     1  UNL1        0.1010
     14  S         27.0550  -21.2310  -12.0580 S.3     1  UNL1       -0.1060
     15  C         25.6650  -21.1750  -13.1770 C.2     1  UNL1        0.1200
     16  N         25.9670  -20.5530  -14.3470 N.2     1  UNL1       -0.2520
     17  C         25.0060  -20.4680  -15.2860 C.2     1  UNL1        0.1180
     18  C         23.7400  -20.9880  -15.1240 C.2     1  UNL1        0.0220
     19  C         23.4380  -21.6210  -13.9200 C.2     1  UNL1        0.0340
     20  H         22.2530  -20.8010  -11.7980 H       1  UNL1        0.1700
     21  C         18.3630  -23.0030   -8.3540 C.2     1  UNL1        0.2520
     22  O         18.8850  -24.0660   -8.0410 O.2     1  UNL1       -0.2680
     23  N         17.4000  -22.3660   -7.5950 N.am    1  UNL1       -0.3520
     24  H         16.8390  -21.6550   -8.0440 H       1  UNL1        0.1630
     25  C         16.8610  -22.9800   -6.3890 C.3     1  UNL1        0.0840
     26  C         15.3450  -22.7830   -6.2980 C.3     1  UNL1        0.0250
     27  C         14.7490  -23.5050   -5.0870 C.3     1  UNL1        0.0020
     28  C         15.7250  -23.6540   -3.9200 C.3     1  UNL1        0.0000
     29  C         16.7240  -22.5070   -3.8690 C.3     1  UNL1        0.0020
     30  C         17.5680  -22.4230   -5.1430 C.3     1  UNL1        0.0250
@<TRIPOS>BOND
     1    17    18    2
     2    17    16    1
     3    18    19    1
     4    16    15    2
     5    19    12    2
     6    15    12    1
     7    15    14    1
     8    12    10    1
     9    14    13    1
    10     4     3    2
    11     4     5    1
    12    20     7    1
    13     3     2    1
    14    10     8   am
    15    10    11    1
    16     7     5    1
    17     7     8   am
    18     5     6    2
    19     8     9    2
    20    11    13    1
    21     2     1    2
    22     6     1    1
    23     1    21    1
    24    21    22    2
    25    21    23   am
    26    24    23    1
    27    23    25    1
    28    25    26    1
    29    25    30    1
    30    26    27    1
    31    30    29    1
    32    27    28    1
    33    28    29    1
