@<TRIPOS>MOLECULE
19141_out_ligand_01.pdbqt
 30 32 0 0 0
SMALL
GASTEIGER

@<TRIPOS>ATOM
      1  C         18.3340  -23.1680   -9.1090 C.2     1  UNL1        0.1180
      2  C         19.0530  -22.4080  -10.0400 C.2     1  UNL1        0.0450
      3  C         20.4300  -22.6190  -10.1980 C.2     1  UNL1        0.0340
      4  C         21.0860  -23.5620   -9.3940 C.2     1  UNL1        0.0200
      5  C         20.3610  -24.3070   -8.4610 C.2     1  UNL1        0.0450
      6  C         18.9870  -24.1080   -8.3240 C.2     1  UNL1        0.1390
      7  F         18.3310  -24.8620   -7.4350 F       1  UNL1       -0.2040
      8  S         16.6080  -22.8830   -8.8910 S.O2    1  UNL1        0.2620
      9  O         16.1060  -22.0860   -9.9840 O.2     1  UNL1       -0.2000
     10  O         15.9990  -24.1510   -8.5540 O.2     1  UNL1       -0.2000
     11  N         16.5590  -21.9870   -7.4800 N.3     1  UNL1       -0.3100
     12  H         16.7670  -20.9970   -7.5970 H       1  UNL1        0.1720
     13  C         16.7220  -22.6180   -6.1650 C.3     1  UNL1        0.0970
     14  C         15.3230  -22.7820   -5.5560 C.3     1  UNL1        0.0260
     15  C         15.3830  -23.3310   -4.1360 C.3     1  UNL1        0.0020
     16  C         16.2630  -22.4650   -3.2440 C.3     1  UNL1        0.0010
     17  C         17.6600  -22.2960   -3.8320 C.3     1  UNL1        0.0060
     18  C         17.6190  -21.7410   -5.2660 C.3     1  UNL1        0.0050
     19  C         19.0460  -21.6300   -5.8110 C.3     1  UNL1        0.0120
     20  C         21.1660  -21.7960  -11.1990 C.2     1  UNL1        0.2560
     21  O         20.6610  -20.7400  -11.5550 O.2     1  UNL1       -0.2670
     22  N         22.3500  -22.3490  -11.6530 N.am    1  UNL1       -0.3230
     23  H         22.5650  -23.2920  -11.3580 H       1  UNL1        0.1690
     24  C         23.2630  -21.7770  -12.5640 C.2     1  UNL1        0.0350
     25  C         24.5890  -21.6280  -12.1320 C.2     1  UNL1        0.0310
     26  C         25.5560  -21.0650  -12.9720 C.2     1  UNL1        0.0210
     27  C         25.1990  -20.6480  -14.2520 C.2     1  UNL1        0.0110
     28 BR         26.5010  -19.8880  -15.3890 Br      1  UNL1       -0.0510
     29  C         23.8870  -20.7870  -14.6930 C.2     1  UNL1        0.0210
     30  C         22.9220  -21.3500  -13.8490 C.2     1  UNL1        0.0310
@<TRIPOS>BOND
     1    28    27    1
     2    29    27    2
     3    29    30    1
     4    27    26    1
     5    30    24    2
     6    26    25    2
     7    24    25    1
     8    24    22    1
     9    22    23    1
    10    22    20   am
    11    21    20    2
    12    20     3    1
    13     3     2    1
    14     3     4    2
    15     2     1    2
    16     9     8    2
    17     4     5    1
    18     1     8    1
    19     1     6    1
    20     8    10    2
    21     8    11    1
    22     5     6    2
    23     6     7    1
    24    12    11    1
    25    11    13    1
    26    13    14    1
    27    13    18    1
    28    19    18    1
    29    14    15    1
    30    18    17    1
    31    15    16    1
    32    17    16    1
