@<TRIPOS>MOLECULE
19159_out_ligand_01.pdbqt
 35 39 0 0 0
SMALL
GASTEIGER

@<TRIPOS>ATOM
      1  C         16.8330  -21.6020  -10.0880 C.3     1  UNL1        0.1210
      2  C         18.1870  -21.5710  -10.7550 C.2     1  UNL1       -0.0480
      3  C         18.9230  -22.7530  -10.9190 C.2     1  UNL1        0.0090
      4  C         20.1810  -22.7280  -11.5230 C.2     1  UNL1        0.0170
      5  C         20.7310  -21.5200  -11.9640 C.2     1  UNL1        0.0320
      6  C         19.9960  -20.3370  -11.8180 C.2     1  UNL1        0.0170
      7  C         18.7360  -20.3640  -11.2100 C.2     1  UNL1        0.0090
      8  C         22.0870  -21.5470  -12.5800 C.2     1  UNL1        0.2520
      9  N         23.0700  -22.2130  -11.8750 N.am    1  UNL1       -0.3520
     10  H         22.7790  -22.8380  -11.1350 H       1  UNL1        0.1630
     11  O         22.2770  -21.0330  -13.6760 O.2     1  UNL1       -0.2680
     12  C         24.3900  -22.4420  -12.4530 C.3     1  UNL1        0.0880
     13  C         24.4240  -23.8190  -13.1370 C.3     1  UNL1        0.0250
     14  C         25.8010  -24.1430  -13.7050 C.3     1  UNL1        0.0020
     15  C         26.8830  -24.0360  -12.6390 C.3     1  UNL1        0.0010
     16  C         26.8700  -22.6670  -11.9670 C.3     1  UNL1        0.0060
     17  C         25.4920  -22.3290  -11.3760 C.3     1  UNL1        0.0040
     18  C         25.5300  -20.9310  -10.7500 C.3     1  UNL1        0.0120
     19  S         16.2920  -23.2830   -9.6560 S.3     1  UNL1       -0.0870
     20  C         16.3250  -23.1760   -7.9280 C.ar    1  UNL1        0.1700
     21  N         15.4710  -22.4830   -7.2140 N.ar    1  UNL1       -0.2220
     22  C         15.8620  -22.6560   -5.9120 C.ar    1  UNL1        0.0890
     23  C         15.3030  -22.1340   -4.7470 C.2     1  UNL1        0.0530
     24  C         16.9810  -23.4780   -5.8340 C.ar    1  UNL1        0.0830
     25  C         15.9400  -22.4850   -3.5670 C.2     1  UNL1        0.1180
     26  N         17.0310  -23.2810   -3.4830 N.2     1  UNL1       -0.2710
     27  C         17.5660  -23.7940   -4.6150 C.2     1  UNL1        0.1480
     28  N         17.2660  -23.7980   -7.1460 N.ar    1  UNL1       -0.3190
     29  C         18.3650  -24.6430   -7.5910 C.3     1  UNL1        0.1700
     30  C         19.6320  -23.8570   -7.8400 C.2     1  UNL1       -0.0400
     31  C         19.7860  -22.5440   -7.3670 C.2     1  UNL1        0.0090
     32  C         20.9650  -21.8340   -7.6110 C.2     1  UNL1        0.0010
     33  C         22.0060  -22.4320   -8.3190 C.2     1  UNL1        0.0000
     34  C         21.8740  -23.7400   -8.7790 C.2     1  UNL1        0.0010
     35  C         20.6950  -24.4500   -8.5390 C.2     1  UNL1        0.0090
@<TRIPOS>BOND
     1    14    13    1
     2    14    15    1
     3    11     8    2
     4    13    12    1
     5    15    16    1
     6     8     5    1
     7     8     9   am
     8    12     9    1
     9    12    17    1
    10    16    17    1
    11     5     6    2
    12     5     4    1
    13     9    10    1
    14     6     7    1
    15     4     3    2
    16    17    18    1
    17     7     2    2
    18     3     2    1
    19     2     1    1
    20     1    19    1
    21    19    20    1
    22    34    35    1
    23    34    33    2
    24    35    30    2
    25    33    32    1
    26    20    21   ar
    27    20    28   ar
    28    30    29    1
    29    30    31    1
    30    32    31    2
    31    29    28    1
    32    21    22   ar
    33    28    24   ar
    34    22    24   ar
    35    22    23    1
    36    24    27    1
    37    23    25    2
    38    27    26    2
    39    25    26    1
