@<TRIPOS>MOLECULE
1915_out_ligand_01.pdbqt
 36 39 0 0 0
SMALL
GASTEIGER

@<TRIPOS>ATOM
      1  C         21.7560  -23.1750   -9.7860 C.2     1  UNL1        0.0330
      2  C         23.0410  -23.4680   -9.2600 C.2     1  UNL1        0.0180
      3  C         24.2050  -23.1270   -9.9590 C.2     1  UNL1        0.0190
      4  C         24.0450  -22.4860  -11.1700 C.2     1  UNL1        0.0480
      5  C         22.7930  -22.1880  -11.6810 C.2     1  UNL1        0.0490
      6  C         21.6260  -22.5140  -11.0170 C.2     1  UNL1        0.0350
      7  C         22.9920  -21.4940  -12.9540 C.2     1  UNL1        0.2620
      8  O         22.0880  -21.0920  -13.6600 O.2     1  UNL1       -0.2670
      9  N         24.3430  -21.4160  -13.1450 N.am    1  UNL1       -0.2760
     10  C         25.0400  -21.9900  -12.1190 C.2     1  UNL1        0.2620
     11  O         26.2420  -22.0980  -11.9750 O.2     1  UNL1       -0.2670
     12  C         20.5650  -23.5580   -8.9710 C.2     1  UNL1        0.2560
     13  N         19.7320  -22.5120   -8.6250 N.am    1  UNL1       -0.3220
     14  H         19.9400  -21.6000   -9.0340 H       1  UNL1        0.1690
     15  O         20.4060  -24.7420   -8.7060 O.2     1  UNL1       -0.2670
     16  C         18.5450  -22.5490   -7.8450 C.2     1  UNL1        0.0540
     17  C         18.5750  -22.6180   -6.4460 C.2     1  UNL1        0.0700
     18  C         17.3940  -22.6590   -5.6920 C.2     1  UNL1        0.1030
     19  C         16.1470  -22.6270   -6.3420 C.2     1  UNL1        0.1020
     20  C         16.1020  -22.5440   -7.7350 C.2     1  UNL1        0.0600
     21  C         17.2880  -22.5040   -8.4900 C.2     1  UNL1        0.0670
     22  O         17.3510  -22.7330   -4.3200 O.2     1  UNL1       -0.3530
     23  C         18.1230  -21.7920   -3.5830 C.3     1  UNL1        0.2100
     24  O         15.0400  -22.6690   -5.5300 O.2     1  UNL1       -0.3530
     25  C         13.9840  -21.7550   -5.7970 C.3     1  UNL1        0.2100
     26  C         17.2090  -22.4120   -9.9750 C.2     1  UNL1        0.1780
     27  O         17.7660  -23.1640  -10.7580 O.2     1  UNL1       -0.6460
     28  O         16.4490  -21.3940  -10.4150 O.3     1  UNL1       -0.7730
     29  H         15.6650  -21.3910   -9.8240 H       1  UNL1        0.1670
     30  C         24.9660  -20.7490  -14.2670 C.3     1  UNL1        0.1750
     31  C         24.8180  -21.5490  -15.5320 C.2     1  UNL1       -0.0220
     32  C         24.7840  -22.9470  -15.5120 C.2     1  UNL1        0.0120
     33  C         24.6040  -23.6500  -16.7000 C.2     1  UNL1        0.0200
     34  C         24.4620  -22.9280  -17.8730 C.2     1  UNL1        0.1160
     35  N         24.4880  -21.5800  -17.9330 N.2     1  UNL1       -0.2730
     36  C         24.6590  -20.9210  -16.7630 C.2     1  UNL1        0.1240
@<TRIPOS>BOND
     1    35    34    2
     2    35    36    1
     3    34    33    1
     4    36    31    2
     5    33    32    2
     6    31    32    1
     7    31    30    1
     8    30     9    1
     9     8     7    2
    10     9     7   am
    11     9    10   am
    12     7     5    1
    13    10    11    2
    14    10     4    1
    15     5     4    2
    16     5     6    1
    17     4     3    1
    18     6     1    2
    19    27    26    2
    20    28    26    1
    21    28    29    1
    22    26    21    1
    23     3     2    2
    24     1     2    1
    25     1    12    1
    26    14    13    1
    27    12    15    2
    28    12    13   am
    29    13    16    1
    30    21    16    2
    31    21    20    1
    32    16    17    1
    33    20    19    2
    34    17    18    2
    35    19    18    1
    36    19    24    1
    37    25    24    1
    38    18    22    1
    39    22    23    1
