@<TRIPOS>MOLECULE
19158_out_ligand_01.pdbqt
 33 36 0 0 0
SMALL
GASTEIGER

@<TRIPOS>ATOM
      1  C         23.5900  -21.3320  -13.7720 C.2     1  UNL1        0.2580
      2  O         22.4320  -20.9870  -13.9930 O.2     1  UNL1       -0.2670
      3  N         24.0660  -21.9000  -12.6040 N.am    1  UNL1       -0.3130
      4  C         25.4800  -22.1510  -12.2640 C.3     1  UNL1        0.1370
      5  C         25.5280  -22.5090  -10.7720 C.3     1  UNL1        0.0610
      6  C         24.0900  -22.7850  -10.4880 C.2     1  UNL1       -0.0300
      7  C         23.5500  -23.3410   -9.3450 C.2     1  UNL1        0.0100
      8  C         22.1620  -23.4860   -9.2700 C.2     1  UNL1        0.0090
      9  C         21.3180  -23.0460  -10.3100 C.2     1  UNL1       -0.0380
     10  C         21.8960  -22.4840  -11.4620 C.2     1  UNL1        0.0390
     11  C         23.2750  -22.3660  -11.5390 C.2     1  UNL1        0.0440
     12  C         19.8180  -23.2400  -10.2750 C.3     1  UNL1        0.1630
     13  N         19.1480  -22.4260   -9.2820 N.am    1  UNL1       -0.3390
     14  C         18.8640  -22.9320   -8.0290 C.2     1  UNL1        0.3210
     15  O         19.1140  -24.0900   -7.7180 O.2     1  UNL1       -0.2470
     16  N         18.2830  -21.9650   -7.2340 N.am    1  UNL1       -0.3080
     17  H         17.9450  -21.1620   -7.7400 H       1  UNL1        0.1700
     18  H         19.3100  -21.4330   -9.3460 H       1  UNL1        0.1640
     19  C         17.9330  -22.0560   -5.8660 C.2     1  UNL1        0.0420
     20  C         18.7000  -21.4400   -4.8700 C.2     1  UNL1        0.0300
     21  C         18.3550  -21.5480   -3.5270 C.2     1  UNL1        0.0030
     22  C         17.2380  -22.2830   -3.1540 C.2     1  UNL1        0.0070
     23  C         16.4400  -22.9120   -4.1220 C.2     1  UNL1       -0.0540
     24  C         15.2500  -23.7000   -3.6440 C.3     1  UNL1        0.0490
     25  C         16.7700  -22.7820   -5.4950 C.2     1  UNL1       -0.0290
     26  C         15.9110  -23.4290   -6.5520 C.3     1  UNL1        0.0510
     27  C         24.5790  -21.0880  -14.8460 C.2     1  UNL1        0.0330
     28  C         24.7710  -22.0420  -15.8520 C.2     1  UNL1        0.0170
     29  C         25.7120  -21.8030  -16.8500 C.2     1  UNL1        0.0020
     30  C         26.4540  -20.6170  -16.8440 C.2     1  UNL1        0.0070
     31  C         26.2320  -19.6400  -15.8630 C.2     1  UNL1       -0.0610
     32  C         27.0210  -18.3680  -15.8690 C.3     1  UNL1        0.0480
     33  C         25.2910  -19.8840  -14.8540 C.2     1  UNL1        0.0230
@<TRIPOS>BOND
     1    29    30    2
     2    29    28    1
     3    30    31    1
     4    32    31    1
     5    31    33    2
     6    28    27    2
     7    33    27    1
     8    27     1    1
     9     2     1    2
    10     1     3   am
    11     3     4    1
    12     3    11    1
    13     4     5    1
    14    11    10    1
    15    11     6    2
    16    10     9    2
    17     5     6    1
    18     6     7    1
    19     9    12    1
    20     9     8    1
    21    12    13    1
    22    18    13    1
    23     7     8    2
    24    13    14   am
    25    14    15    2
    26    14    16   am
    27    17    16    1
    28    16    19    1
    29    26    25    1
    30    19    25    2
    31    19    20    1
    32    25    23    1
    33    20    21    2
    34    23    24    1
    35    23    22    2
    36    21    22    1
