@<TRIPOS>MOLECULE
19150_out_ligand_01.pdbqt
 28 32 0 0 0
SMALL
GASTEIGER

@<TRIPOS>ATOM
      1  C         24.2990  -22.4650  -12.1320 C.2     1  UNL1        0.1240
      2  N         24.1270  -21.8930  -13.3430 N.2     1  UNL1       -0.2290
      3  C         22.9240  -21.4010  -13.6610 C.2     1  UNL1        0.2350
      4  N         21.8250  -21.3940  -12.9070 N.2     1  UNL1       -0.2400
      5  C         21.9750  -21.9650  -11.6830 C.ar    1  UNL1        0.0920
      6  C         23.1910  -22.5040  -11.2720 C.ar    1  UNL1        0.0770
      7  S         23.0770  -23.1450   -9.6840 S.2     1  UNL1       -0.0640
      8  C         21.4430  -22.7040   -9.5480 C.ar    1  UNL1        0.1120
      9  N         20.7860  -22.9630   -8.4030 N.ar    1  UNL1       -0.2390
     10  C         19.4970  -22.5680   -8.3700 C.ar    1  UNL1        0.0750
     11  C         18.8430  -21.9730   -9.4540 C.ar    1  UNL1       -0.0210
     12  C         19.5710  -21.7080  -10.6410 C.ar    1  UNL1       -0.0340
     13  C         20.9390  -22.0860  -10.6830 C.ar    1  UNL1        0.0370
     14  C         18.8300  -21.0050  -11.7560 C.3     1  UNL1        0.0400
     15  C         17.4670  -21.6480  -12.0010 C.3     1  UNL1        0.0050
     16  C         16.6750  -21.9470  -10.7250 C.3     1  UNL1        0.0050
     17  C         17.3900  -21.5600   -9.4290 C.3     1  UNL1        0.0410
     18  C         18.8470  -22.8230   -7.0740 C.2     1  UNL1       -0.0070
     19  C         18.2030  -24.0440   -6.8080 C.2     1  UNL1        0.0140
     20  C         17.5900  -24.2780   -5.5740 C.2     1  UNL1        0.0010
     21  C         17.6010  -23.2910   -4.5920 C.2     1  UNL1        0.0000
     22  C         18.2200  -22.0680   -4.8430 C.2     1  UNL1        0.0010
     23  C         18.8340  -21.8350   -6.0750 C.2     1  UNL1        0.0140
     24  N         25.5330  -23.0080  -11.7740 N.pl3   1  UNL1       -0.2730
     25  H         25.4920  -23.4810  -10.8770 H       1  UNL1        0.1290
     26  C         26.6690  -22.1250  -11.9330 C.3     1  UNL1        0.1200
     27  C         26.3870  -20.9090  -11.1040 C.2     1  UNL1       -0.0220
     28  C         26.6330  -19.6470  -11.4850 C.2     1  UNL1        0.0080
@<TRIPOS>BOND
     1     3     2    1
     2     3     4    2
     3     2     1    2
     4     4     5    1
     5     1    24    1
     6     1     6    1
     7    15    14    1
     8    15    16    1
     9    26    24    1
    10    26    27    1
    11    24    25    1
    12    14    12    1
    13     5     6   ar
    14     5    13   ar
    15    28    27    2
    16     6     7   ar
    17    16    17    1
    18    13    12   ar
    19    13     8   ar
    20    12    11   ar
    21     7     8   ar
    22     8     9   ar
    23    11    17    1
    24    11    10   ar
    25     9    10   ar
    26    10    18    1
    27    18    19    2
    28    18    23    1
    29    19    20    1
    30    23    22    2
    31    20    21    2
    32    22    21    1
