@<TRIPOS>MOLECULE
19162_out_ligand_01.pdbqt
 31 34 0 0 0
SMALL
GASTEIGER

@<TRIPOS>ATOM
      1  C         23.6920  -21.8090  -11.0260 C.2     1  UNL1       -0.0400
      2  C         22.5980  -22.2630  -11.7910 C.2     1  UNL1        0.0110
      3  C         21.3650  -22.5460  -11.1920 C.2     1  UNL1        0.0310
      4  C         21.2410  -22.3820   -9.8240 C.2     1  UNL1        0.0430
      5  C         22.3200  -21.9400   -9.0590 C.2     1  UNL1       -0.0290
      6  C         23.5460  -21.6520   -9.6400 C.2     1  UNL1        0.0180
      7  C         21.9510  -21.8070   -7.6180 C.2     1  UNL1        0.0610
      8  C         20.5130  -22.3380   -7.6050 C.2     1  UNL1        0.1370
      9  N         20.1210  -22.6070   -9.0020 N.am    1  UNL1       -0.3130
     10  C         18.8630  -22.9780   -9.4440 C.2     1  UNL1        0.2580
     11  O         18.5120  -23.1390  -10.6090 O.2     1  UNL1       -0.2670
     12  C         25.0240  -21.5380  -11.6800 C.3     1  UNL1        0.1610
     13  N         24.8710  -21.4040  -13.1080 N.am    1  UNL1       -0.3530
     14  C         25.6280  -22.1170  -14.0060 C.2     1  UNL1        0.2540
     15  O         26.5930  -22.7950  -13.6610 O.2     1  UNL1       -0.2680
     16  H         24.0150  -20.9840  -13.4510 H       1  UNL1        0.1630
     17  C         25.2410  -22.0370  -15.4550 C.2     1  UNL1        0.0650
     18  C         24.8610  -23.2510  -16.0590 C.2     1  UNL1        0.0200
     19  C         24.4800  -23.2990  -17.3990 C.2     1  UNL1        0.0010
     20  C         24.4730  -22.1340  -18.1530 C.2     1  UNL1        0.0030
     21  C         24.8410  -20.9170  -17.5700 C.2     1  UNL1        0.0380
     22  C         25.2230  -20.8500  -16.2210 C.2     1  UNL1        0.0840
     23  O         25.5840  -19.6800  -15.6010 O.2     1  UNL1       -0.3550
     24  C         26.5360  -18.8410  -16.2500 C.3     1  UNL1        0.2100
     25  C         17.8290  -23.1720   -8.4080 C.2     1  UNL1        0.0320
     26  C         16.8160  -22.2250   -8.2400 C.2     1  UNL1        0.0170
     27  C         15.8450  -22.4250   -7.2570 C.2     1  UNL1        0.0070
     28  C         15.8870  -23.5650   -6.4400 C.2     1  UNL1       -0.0620
     29  C         14.8630  -23.7550   -5.3570 C.3     1  UNL1        0.0480
     30  C         16.9260  -24.4910   -6.6010 C.2     1  UNL1        0.0070
     31  C         17.8980  -24.2960   -7.5840 C.2     1  UNL1        0.0170
@<TRIPOS>BOND
     1    20    21    2
     2    20    19    1
     3    21    22    1
     4    19    18    2
     5    24    23    1
     6    22    23    1
     7    22    17    2
     8    18    17    1
     9    17    14    1
    10    14    15    2
    11    14    13   am
    12    16    13    1
    13    13    12    1
    14     2     3    1
    15     2     1    2
    16    12     1    1
    17     3     4    2
    18     1     6    1
    19    11    10    2
    20     4     5    1
    21     4     9    1
    22     6     5    2
    23    10     9   am
    24    10    25    1
    25     5     7    1
    26     9     8    1
    27    25    26    2
    28    25    31    1
    29    26    27    1
    30     7     8    2
    31    31    30    2
    32    27    28    2
    33    30    28    1
    34    28    29    1
