@<TRIPOS>MOLECULE
19172_out_ligand_01.pdbqt
 43 47 0 0 0
SMALL
GASTEIGER

@<TRIPOS>ATOM
      1  C         23.2310  -23.2570  -10.5530 C.ar    1  UNL1        0.1610
      2  N         23.3500  -23.6640   -9.2730 N.ar    1  UNL1       -0.1310
      3  N         22.4120  -23.3300   -8.3330 N.ar    1  UNL1       -0.1470
      4  C         21.3410  -22.5810   -8.6750 C.ar    1  UNL1        0.1000
      5  C         21.1490  -22.1250   -9.9940 C.ar    1  UNL1        0.0090
      6  C         20.0240  -21.3670  -10.4120 C.2     1  UNL1        0.0150
      7  C         19.8890  -20.9120  -11.7220 C.2     1  UNL1        0.0010
      8  C         20.8690  -21.2060  -12.6540 C.2     1  UNL1        0.0010
      9  C         21.9750  -21.9680  -12.2770 C.2     1  UNL1        0.0160
     10  C         22.1330  -22.4570  -10.9540 C.ar    1  UNL1        0.0240
     11  C         20.4300  -22.3020   -7.5510 C.2     1  UNL1       -0.0030
     12  C         20.5750  -21.1360   -6.7900 C.2     1  UNL1        0.0140
     13  C         19.7360  -20.8740   -5.7020 C.2     1  UNL1        0.0090
     14  C         18.7090  -21.7630   -5.3390 C.2     1  UNL1       -0.0390
     15  C         17.8840  -21.4240   -4.1310 C.3     1  UNL1        0.0500
     16  C         18.5430  -22.9260   -6.1130 C.2     1  UNL1        0.0860
     17  C         19.3920  -23.1810   -7.2080 C.2     1  UNL1        0.0390
     18  S         17.3350  -24.1960   -5.7600 S.O2    1  UNL1        0.2590
     19  O         17.6030  -25.2990   -6.6570 O.2     1  UNL1       -0.2010
     20  O         17.2250  -24.4030   -4.3340 O.2     1  UNL1       -0.2010
     21  N         15.9070  -23.5040   -6.2860 N.3     1  UNL1       -0.3130
     22  H         15.0600  -24.0350   -6.0950 H       1  UNL1        0.1720
     23  C         15.9110  -22.4890   -7.3410 C.3     1  UNL1        0.1640
     24  C         15.5910  -23.1120   -8.7080 C.3     1  UNL1        0.1400
     25  C         15.2330  -22.1000   -9.7890 C.3     1  UNL1        0.0350
     26  C         16.5780  -21.7530  -10.3770 C.3     1  UNL1        0.0290
     27  C         17.3030  -23.0810  -10.3060 C.3     1  UNL1        0.1680
     28  O         16.7700  -23.7960   -9.1800 O.3     1  UNL1       -0.3840
     29  N         24.1980  -23.6370  -11.5230 N.pl3   1  UNL1       -0.3390
     30  H         24.7810  -24.3720  -11.1300 H       1  UNL1        0.1670
     31  C         24.9240  -22.8310  -12.4250 C.2     1  UNL1        0.0340
     32  C         24.9010  -23.1580  -13.7870 C.2     1  UNL1        0.0490
     33  C         25.5350  -22.3630  -14.7650 C.2     1  UNL1        0.0670
     34  C         26.2070  -21.1920  -14.3670 C.2     1  UNL1        0.0840
     35  C         26.1940  -20.8390  -13.0130 C.2     1  UNL1        0.0400
     36  C         25.5490  -21.6410  -12.0600 C.2     1  UNL1        0.0320
     37  C         25.4260  -22.8600  -16.1800 C.2     1  UNL1        0.2540
     38  N         24.1820  -22.8520  -16.7660 N.am    1  UNL1       -0.3610
     39  C         23.9890  -23.1930  -18.1520 C.3     1  UNL1        0.1490
     40  H         23.4280  -22.3960  -16.2600 H       1  UNL1        0.1620
     41  O         26.4260  -23.2640  -16.7690 O.2     1  UNL1       -0.2680
     42  O         26.8330  -20.4460  -15.3340 O.2     1  UNL1       -0.3550
     43  C         26.3900  -19.1070  -15.5330 C.3     1  UNL1        0.2100
@<TRIPOS>BOND
     1    39    38    1
     2    41    37    2
     3    38    40    1
     4    38    37   am
     5    37    33    1
     6    43    42    1
     7    42    34    1
     8    33    34    2
     9    33    32    1
    10    34    35    1
    11    32    31    2
    12    35    36    2
    13     8     9    2
    14     8     7    1
    15    31    36    1
    16    31    29    1
    17     9    10    1
    18     7     6    2
    19    29    30    1
    20    29     1    1
    21    10     1   ar
    22    10     5   ar
    23     1     2   ar
    24     6     5    1
    25    26    27    1
    26    26    25    1
    27    27    28    1
    28     5     4   ar
    29    25    24    1
    30     2     3   ar
    31    28    24    1
    32    24    23    1
    33     4     3   ar
    34     4    11    1
    35    11    17    2
    36    11    12    1
    37    23    21    1
    38    17    16    1
    39    12    13    2
    40    19    18    2
    41    21    22    1
    42    21    18    1
    43    16    18    1
    44    16    14    2
    45    18    20    2
    46    13    14    1
    47    14    15    1
