@<TRIPOS>MOLECULE
19176_out_ligand_01.pdbqt
 32 35 0 0 0
SMALL
GASTEIGER

@<TRIPOS>ATOM
      1  C         22.0950  -22.9060   -8.8380 C.2     1  UNL1        0.0320
      2  C         21.2920  -22.1010   -8.0190 C.2     1  UNL1        0.0200
      3  C         20.0870  -22.5980   -7.5090 C.2     1  UNL1        0.0380
      4  C         19.6710  -23.8950   -7.8260 C.2     1  UNL1        0.0780
      5  C         20.4720  -24.6940   -8.6460 C.2     1  UNL1        0.0380
      6  C         21.6750  -24.2010   -9.1580 C.2     1  UNL1        0.0200
      7  O         18.5090  -24.4920   -7.3880 O.2     1  UNL1       -0.2900
      8  C         17.5430  -23.6800   -6.8400 C.2     1  UNL1        0.2060
      9  N         17.7490  -23.2990   -5.5510 N.2     1  UNL1       -0.2330
     10  C         16.7650  -22.5520   -5.0070 C.2     1  UNL1        0.1380
     11  C         15.6260  -22.2000   -5.7110 C.2     1  UNL1        0.1370
     12  N         15.4120  -22.5820   -6.9910 N.2     1  UNL1       -0.2480
     13  C         16.3860  -23.3460   -7.5560 C.2     1  UNL1        0.1510
     14  S         16.0850  -23.8460   -9.2390 S.3     1  UNL1       -0.0660
     15  C         17.0760  -22.6600  -10.1270 C.2     1  UNL1        0.0070
     16  C         18.3470  -22.9940  -10.6110 C.2     1  UNL1        0.0190
     17  C         19.1060  -22.0500  -11.3060 C.2     1  UNL1        0.0010
     18  C         18.5970  -20.7730  -11.5290 C.2     1  UNL1        0.0000
     19  C         17.3270  -20.4380  -11.0630 C.2     1  UNL1        0.0010
     20  C         16.5670  -21.3800  -10.3670 C.2     1  UNL1        0.0190
     21  C         23.3820  -22.4190   -9.4050 C.2     1  UNL1        0.2510
     22  O         23.5740  -21.2170   -9.5540 O.2     1  UNL1       -0.2680
     23  N         24.2940  -23.3880   -9.7720 N.am    1  UNL1       -0.3570
     24  H         23.9930  -24.3510   -9.8280 H       1  UNL1        0.1620
     25  C         25.5490  -23.0370  -10.4140 C.3     1  UNL1        0.1270
     26  C         25.5630  -23.4140  -11.8980 C.3     1  UNL1        0.0530
     27  C         25.0150  -22.3180  -12.7840 C.2     1  UNL1       -0.0820
     28  C         23.6970  -22.2150  -13.0410 C.2     1  UNL1       -0.0240
     29  C         23.0990  -21.1830  -13.9520 C.3     1  UNL1        0.0270
     30  C         24.1390  -20.4750  -14.8220 C.3     1  UNL1        0.0040
     31  C         25.3790  -20.1180  -14.0120 C.3     1  UNL1        0.0050
     32  C         26.0180  -21.3650  -13.3930 C.3     1  UNL1        0.0340
@<TRIPOS>BOND
     1    30    31    1
     2    30    29    1
     3    31    32    1
     4    29    28    1
     5    32    27    1
     6    28    27    2
     7    27    26    1
     8    26    25    1
     9    18    17    2
    10    18    19    1
    11    17    16    1
    12    19    20    2
    13    16    15    2
    14    25    23    1
    15    20    15    1
    16    15    14    1
    17    24    23    1
    18    23    21   am
    19    22    21    2
    20    21     1    1
    21    14    13    1
    22     6     1    2
    23     6     5    1
    24     1     2    1
    25     5     4    2
    26     2     3    2
    27     4     3    1
    28     4     7    1
    29    13    12    2
    30    13     8    1
    31     7     8    1
    32    12    11    1
    33     8     9    2
    34    11    10    2
    35     9    10    1
