@<TRIPOS>MOLECULE
19191_out_ligand_01.pdbqt
 35 39 0 0 0
SMALL
GASTEIGER

@<TRIPOS>ATOM
      1  C         21.0540  -22.0800  -10.9170 C.ar    1  UNL1        0.1960
      2  N         21.2480  -21.3600  -12.0030 N.ar    1  UNL1       -0.1220
      3  N         20.0290  -20.8800  -12.4140 N.ar    1  UNL1       -0.1290
      4  C         19.1220  -21.2940  -11.5520 C.ar    1  UNL1        0.1580
      5  C         17.7200  -21.0880  -11.4620 C.2     1  UNL1        0.0540
      6  C         17.0330  -21.6440  -10.4450 C.2     1  UNL1        0.0220
      7  C         17.6870  -22.4740   -9.4310 C.2     1  UNL1        0.0480
      8  C         19.0230  -22.6500   -9.5080 C.2     1  UNL1        0.1180
      9  N         19.7250  -22.0670  -10.5660 N.ar    1  UNL1       -0.2820
     10  S         22.2680  -22.9760  -10.0690 S.3     1  UNL1       -0.0810
     11  C         23.5760  -21.7210   -9.9030 C.3     1  UNL1        0.1850
     12  C         24.4540  -21.6850  -11.1480 C.2     1  UNL1        0.2310
     13  O         25.4690  -20.9950  -11.1790 O.2     1  UNL1       -0.2720
     14  N         23.9880  -22.4940  -12.1690 N.am    1  UNL1       -0.3260
     15  H         23.2190  -23.1220  -11.9310 H       1  UNL1        0.1690
     16  C         24.5310  -22.6680  -13.4580 C.2     1  UNL1        0.0370
     17  C         25.4930  -23.6950  -13.6030 C.2     1  UNL1        0.0320
     18  C         26.0840  -23.9670  -14.8410 C.2     1  UNL1        0.0420
     19  C         25.6930  -23.2000  -15.9140 C.2     1  UNL1        0.1050
     20  C         24.7600  -22.1980  -15.7810 C.2     1  UNL1        0.1070
     21  O         26.1460  -23.3270  -17.1900 O.2     1  UNL1       -0.3230
     22  C         24.1610  -21.9060  -14.5700 C.2     1  UNL1        0.0690
     23  O         24.5160  -21.5620  -16.9610 O.2     1  UNL1       -0.3230
     24  C         25.3830  -22.2970  -17.8510 C.3     1  UNL1        0.3520
     25  C         16.8840  -23.0300   -8.2920 C.2     1  UNL1        0.2570
     26  O         15.9350  -23.7650   -8.5370 O.2     1  UNL1       -0.2670
     27  N         17.3620  -22.6680   -7.0470 N.am    1  UNL1       -0.3230
     28  H         18.2360  -22.1590   -7.0160 H       1  UNL1        0.1690
     29  C         16.8030  -22.9940   -5.7900 C.2     1  UNL1        0.0370
     30  C         17.3970  -22.6750   -4.5640 C.2     1  UNL1        0.0290
     31  C         16.7890  -23.0450   -3.3560 C.2     1  UNL1        0.0050
     32  C         15.5830  -23.7400   -3.3660 C.2     1  UNL1        0.0420
     33  C         14.9950  -24.0560   -4.5840 C.2     1  UNL1        0.1180
     34  F         13.8400  -24.7340   -4.6020 F       1  UNL1       -0.2060
     35  C         15.5920  -23.6920   -5.7900 C.2     1  UNL1        0.0710
@<TRIPOS>BOND
     1    24    21    1
     2    24    23    1
     3    21    19    1
     4    23    20    1
     5    19    20    2
     6    19    18    1
     7    20    22    1
     8    18    17    2
     9    22    16    2
    10    17    16    1
    11    16    14    1
    12     3     2   ar
    13     3     4   ar
    14    14    15    1
    15    14    12   am
    16     2     1   ar
    17     4     5    1
    18     4     9   ar
    19     5     6    2
    20    13    12    2
    21    12    11    1
    22     1     9   ar
    23     1    10    1
    24     9     8    1
    25     6     7    1
    26    10    11    1
    27     8     7    2
    28     7    25    1
    29    26    25    2
    30    25    27   am
    31    27    28    1
    32    27    29    1
    33    29    35    2
    34    29    30    1
    35    35    33    1
    36    34    33    1
    37    33    32    2
    38    30    31    2
    39    32    31    1
