@<TRIPOS>MOLECULE
19193_out_ligand_01.pdbqt
 33 36 0 0 0
SMALL
GASTEIGER

@<TRIPOS>ATOM
      1  C         25.5390  -23.7460  -12.9540 C.3     1  UNL1        0.0330
      2  C         25.1700  -22.5190  -12.1110 C.3     1  UNL1        0.0930
      3  C         25.1350  -22.8900  -10.6120 C.3     1  UNL1        0.0660
      4  C         23.6640  -22.9830  -10.3600 C.2     1  UNL1       -0.0290
      5  C         23.0360  -23.4760   -9.2290 C.2     1  UNL1        0.0100
      6  C         21.6400  -23.4300   -9.1690 C.2     1  UNL1        0.0090
      7  C         20.8810  -22.8880  -10.2280 C.2     1  UNL1       -0.0380
      8  C         21.5530  -22.3740  -11.3550 C.2     1  UNL1        0.0390
      9  C         22.9350  -22.4390  -11.4160 C.2     1  UNL1        0.0440
     10  N         23.8070  -22.0200  -12.4460 N.am    1  UNL1       -0.3090
     11  C         23.4030  -21.3840  -13.6120 C.2     1  UNL1        0.2580
     12  O         22.2460  -21.1490  -13.9500 O.2     1  UNL1       -0.2670
     13  C         19.3700  -22.8060  -10.2120 C.3     1  UNL1        0.1630
     14  N         18.8070  -22.1800   -9.0330 N.am    1  UNL1       -0.3390
     15  C         18.0780  -22.9130   -8.1220 C.2     1  UNL1        0.3210
     16  O         17.7830  -24.0880   -8.2970 O.2     1  UNL1       -0.2470
     17  N         17.7360  -22.1450   -7.0330 N.am    1  UNL1       -0.3060
     18  H         17.8630  -21.1450   -7.1260 H       1  UNL1        0.1710
     19  H         19.2690  -21.3490   -8.7020 H       1  UNL1        0.1640
     20  C         17.0820  -22.5660   -5.8540 C.2     1  UNL1        0.0780
     21  C         15.9020  -23.3090   -5.8310 C.2     1  UNL1        0.0750
     22  C         15.3510  -23.6880   -4.6090 C.2     1  UNL1        0.1180
     23  F         14.2190  -24.4030   -4.5900 F       1  UNL1       -0.2060
     24  C         15.9520  -23.3420   -3.4020 C.2     1  UNL1        0.0450
     25  C         17.1320  -22.6040   -3.4140 C.2     1  UNL1        0.0470
     26  C         17.6850  -22.2270   -4.6340 C.2     1  UNL1        0.1430
     27  F         18.8310  -21.5230   -4.6360 F       1  UNL1       -0.2040
     28  C         24.4560  -20.9310  -14.5460 C.2     1  UNL1        0.0320
     29  C         24.6190  -21.6050  -15.7610 C.2     1  UNL1        0.0170
     30  C         25.5960  -21.1770  -16.6610 C.2     1  UNL1        0.0010
     31  C         26.3930  -20.0730  -16.3520 C.2     1  UNL1        0.0000
     32  C         26.2050  -19.3830  -15.1530 C.2     1  UNL1        0.0010
     33  C         25.2320  -19.8060  -14.2480 C.2     1  UNL1        0.0170
@<TRIPOS>BOND
     1    30    31    2
     2    30    29    1
     3    31    32    1
     4    29    28    2
     5    32    33    2
     6    28    33    1
     7    28    11    1
     8    12    11    2
     9    11    10   am
    10     1     2    1
    11    10     2    1
    12    10     9    1
    13     2     3    1
    14     9     8    1
    15     9     4    2
    16     8     7    2
    17     3     4    1
    18     4     5    1
    19     7    13    1
    20     7     6    1
    21    13    14    1
    22     5     6    2
    23    14    19    1
    24    14    15   am
    25    16    15    2
    26    15    17   am
    27    18    17    1
    28    17    20    1
    29    20    21    2
    30    20    26    1
    31    21    22    1
    32    27    26    1
    33    26    25    2
    34    22    23    1
    35    22    24    2
    36    25    24    1
