@<TRIPOS>MOLECULE
19202_out_ligand_01.pdbqt
 37 41 0 0 0
SMALL
GASTEIGER

@<TRIPOS>ATOM
      1  C         18.0140  -23.8070   -8.4600 C.2     1  UNL1        0.0800
      2  C         18.0010  -22.9120   -9.5310 C.2     1  UNL1        0.0270
      3  C         19.1950  -22.6020  -10.1900 C.2     1  UNL1        0.0310
      4  C         20.4040  -23.1640   -9.7740 C.2     1  UNL1        0.0350
      5  C         20.4050  -24.0390   -8.6770 C.2     1  UNL1        0.0310
      6  C         19.2170  -24.3580   -8.0160 C.2     1  UNL1        0.0270
      7  N         21.6450  -22.9140  -10.3910 N.am    1  UNL1       -0.3220
      8  C         22.7420  -22.2520   -9.8620 C.2     1  UNL1        0.2770
      9  O         22.8290  -21.8000   -8.7260 O.2     1  UNL1       -0.2660
     10  H         21.7780  -23.3120  -11.3120 H       1  UNL1        0.1690
     11  C         23.8480  -22.1370  -10.8330 C.ar    1  UNL1        0.1530
     12  N         25.1240  -22.3840  -10.4770 N.ar    1  UNL1       -0.1680
     13  N         25.8420  -22.1660  -11.5930 N.ar    1  UNL1       -0.2760
     14  C         25.0810  -21.8130  -12.6640 C.ar    1  UNL1        0.0690
     15  H         26.8470  -22.2840  -11.5460 H       1  UNL1        0.1890
     16  C         23.7790  -21.7800  -12.2090 C.ar    1  UNL1        0.0070
     17  C         25.4870  -21.5010  -14.0240 C.2     1  UNL1       -0.0010
     18  C         22.6670  -21.3480  -13.0990 C.3     1  UNL1        0.0480
     19  C         23.0010  -21.6340  -14.5840 C.3     1  UNL1        0.0440
     20  C         24.4480  -21.3620  -14.9760 C.2     1  UNL1       -0.0450
     21  C         24.7700  -21.0600  -16.3050 C.2     1  UNL1        0.0080
     22  C         26.1020  -20.8740  -16.6770 C.2     1  UNL1        0.0010
     23  C         27.1210  -20.9990  -15.7330 C.2     1  UNL1        0.0010
     24  C         26.8170  -21.3140  -14.4060 C.2     1  UNL1        0.0140
     25  S         16.4960  -24.2030   -7.6220 S.O2    1  UNL1        0.2630
     26  O         15.5050  -24.5320   -8.6250 O.2     1  UNL1       -0.2000
     27  O         16.8150  -25.1320   -6.5590 O.2     1  UNL1       -0.2000
     28  N         16.0810  -22.7540   -6.8640 N.pl3   1  UNL1       -0.2800
     29  H         15.0730  -22.6200   -6.8170 H       1  UNL1        0.1790
     30  C         16.8830  -22.2480   -5.7990 C.2     1  UNL1        0.0490
     31  C         16.5220  -22.4890   -4.4640 C.2     1  UNL1       -0.0350
     32  C         17.3550  -22.0060   -3.4430 C.2     1  UNL1        0.0090
     33  C         15.2740  -23.2380   -4.0920 C.3     1  UNL1        0.0500
     34  C         18.5170  -21.2930   -3.7440 C.2     1  UNL1        0.0070
     35  C         18.8620  -21.0290   -5.0710 C.2     1  UNL1       -0.0600
     36  C         20.1180  -20.2800   -5.3990 C.3     1  UNL1        0.0480
     37  C         18.0410  -21.5200   -6.0940 C.2     1  UNL1        0.0370
@<TRIPOS>BOND
     1    22    21    2
     2    22    23    1
     3    21    20    1
     4    23    24    2
     5    20    19    1
     6    20    17    2
     7    19    18    1
     8    24    17    1
     9    17    14    1
    10    18    16    1
    11    14    16   ar
    12    14    13   ar
    13    16    11   ar
    14    13    15    1
    15    13    12   ar
    16    10     7    1
    17    11    12   ar
    18    11     8    1
    19     7     8   am
    20     7     4    1
    21     3     4    2
    22     3     2    1
    23     8     9    2
    24     4     5    1
    25     2     1    2
    26     5     6    2
    27    26    25    2
    28     1     6    1
    29     1    25    1
    30    25    28    1
    31    25    27    2
    32    28    29    1
    33    28    30    1
    34    37    30    2
    35    37    35    1
    36    30    31    1
    37    36    35    1
    38    35    34    2
    39    31    33    1
    40    31    32    2
    41    34    32    1
