@<TRIPOS>MOLECULE
19211_out_ligand_01.pdbqt
 33 36 0 0 0
SMALL
GASTEIGER

@<TRIPOS>ATOM
      1  C         23.5820  -21.2550  -13.6740 C.2     1  UNL1        0.2580
      2  O         22.4000  -21.0440  -13.9340 O.2     1  UNL1       -0.2670
      3  N         24.0780  -21.8260  -12.5120 N.am    1  UNL1       -0.3130
      4  C         25.5000  -22.0060  -12.1620 C.3     1  UNL1        0.1370
      5  C         25.5540  -22.4730  -10.7010 C.3     1  UNL1        0.0610
      6  C         24.1210  -22.7950  -10.4280 C.2     1  UNL1       -0.0300
      7  C         23.5920  -23.3870   -9.2930 C.2     1  UNL1        0.0100
      8  C         22.2070  -23.5470   -9.2130 C.2     1  UNL1        0.0090
      9  C         21.3640  -23.1100  -10.2560 C.2     1  UNL1       -0.0380
     10  C         21.9230  -22.5050  -11.3960 C.2     1  UNL1        0.0390
     11  C         23.2990  -22.3640  -11.4710 C.2     1  UNL1        0.0440
     12  C         19.8670  -23.2450  -10.1280 C.3     1  UNL1        0.1630
     13  N         19.5050  -23.6530   -8.7860 N.am    1  UNL1       -0.3390
     14  C         18.4090  -23.1030   -8.1540 C.2     1  UNL1        0.3210
     15  O         17.7620  -22.1780   -8.6280 O.2     1  UNL1       -0.2470
     16  N         18.1800  -23.7180   -6.9450 N.am    1  UNL1       -0.3060
     17  H         18.8970  -24.3510   -6.6170 H       1  UNL1        0.1710
     18  H         19.7220  -24.6110   -8.5570 H       1  UNL1        0.1640
     19  C         17.1220  -23.4780   -6.0410 C.2     1  UNL1        0.0780
     20  C         15.8730  -24.0960   -6.1080 C.2     1  UNL1        0.0750
     21  C         14.9040  -23.7930   -5.1520 C.2     1  UNL1        0.1180
     22  F         13.7070  -24.3900   -5.2180 F       1  UNL1       -0.2060
     23  C         15.1500  -22.8860   -4.1250 C.2     1  UNL1        0.0450
     24  C         16.3960  -22.2660   -4.0480 C.2     1  UNL1        0.0470
     25  C         17.3660  -22.5680   -4.9990 C.2     1  UNL1        0.1430
     26  F         18.5660  -21.9700   -4.9130 F       1  UNL1       -0.2040
     27  C         24.5690  -20.8420  -14.6930 C.2     1  UNL1        0.0330
     28  C         24.8300  -21.6910  -15.7690 C.2     1  UNL1        0.0170
     29  C         25.7760  -21.3190  -16.7210 C.2     1  UNL1        0.0020
     30  C         26.4630  -20.1090  -16.5900 C.2     1  UNL1        0.0070
     31  C         26.2120  -19.2570  -15.5050 C.2     1  UNL1       -0.0610
     32  C         26.9850  -17.9840  -15.3330 C.3     1  UNL1        0.0480
     33  C         25.2670  -19.6380  -14.5460 C.2     1  UNL1        0.0230
@<TRIPOS>BOND
     1    29    30    2
     2    29    28    1
     3    30    31    1
     4    28    27    2
     5    31    32    1
     6    31    33    2
     7    27    33    1
     8    27     1    1
     9     2     1    2
    10     1     3   am
    11     3     4    1
    12     3    11    1
    13     4     5    1
    14    11    10    1
    15    11     6    2
    16    10     9    2
    17     5     6    1
    18     6     7    1
    19     9    12    1
    20     9     8    1
    21    12    13    1
    22     7     8    2
    23    13    18    1
    24    13    14   am
    25    15    14    2
    26    14    16   am
    27    16    17    1
    28    16    19    1
    29    20    19    2
    30    20    21    1
    31    19    25    1
    32    22    21    1
    33    21    23    2
    34    25    26    1
    35    25    24    2
    36    23    24    1
