@<TRIPOS>MOLECULE
19228_out_ligand_01.pdbqt
 31 34 0 0 0
SMALL
GASTEIGER

@<TRIPOS>ATOM
      1  C         25.1750  -22.5240  -12.8230 C.2     1  UNL1        0.0690
      2  C         24.9400  -21.5560  -13.8020 C.2     1  UNL1        0.0390
      3  C         23.6850  -20.9580  -13.9580 C.2     1  UNL1        0.0330
      4  C         22.6700  -21.3640  -13.0880 C.2     1  UNL1        0.0430
      5  N         21.3560  -20.9600  -13.0020 N.pl3   1  UNL1       -0.3520
      6  C         20.7160  -21.6170  -11.9810 C.2     1  UNL1        0.0890
      7  C         19.3470  -21.3880  -11.6550 C.2     1  UNL1        0.2230
      8  N         18.7440  -21.9100  -10.6080 N.2     1  UNL1       -0.2030
      9  C         17.4770  -21.3970  -10.7050 C.2     1  UNL1        0.1580
     10  N         17.2610  -20.6210  -11.7740 N.4     1  UNL1       -0.1110
     11  O         18.5080  -20.5980  -12.4020 O.2     1  UNL1       -0.1890
     12  C         21.6360  -22.4660  -11.3990 C.2     1  UNL1        0.0480
     13  C         22.8700  -22.3200  -12.0930 C.2     1  UNL1       -0.0040
     14  C         24.1430  -22.9120  -11.9590 C.2     1  UNL1        0.0500
     15  H         20.9330  -20.2650  -13.6020 H       1  UNL1        0.1660
     16  C         16.4190  -21.7120   -9.7160 C.3     1  UNL1        0.1030
     17  C         16.5010  -23.1430   -9.1740 C.3     1  UNL1        0.1330
     18  N         16.1800  -23.2800   -7.7470 N.am    1  UNL1       -0.3560
     19  C         14.9070  -22.7270   -7.3050 C.3     1  UNL1        0.1520
     20  C         16.8950  -24.0500   -6.8340 C.2     1  UNL1        0.2230
     21  O         16.4360  -24.3070   -5.7160 O.2     1  UNL1       -0.2730
     22  C         18.2650  -24.5970   -7.2130 C.3     1  UNL1        0.1420
     23  C         19.3790  -23.5710   -7.3260 C.2     1  UNL1       -0.0430
     24  C         19.2490  -22.3680   -6.6020 C.2     1  UNL1        0.0080
     25  C         20.2330  -21.3830   -6.6500 C.2     1  UNL1        0.0010
     26  C         21.3650  -21.5740   -7.4330 C.2     1  UNL1        0.0010
     27  C         21.4970  -22.7420   -8.1830 C.2     1  UNL1        0.0070
     28  C         20.5060  -23.7390   -8.1580 C.2     1  UNL1       -0.0550
     29  C         20.7030  -24.9580   -9.0200 C.3     1  UNL1        0.0490
     30  O         26.4560  -23.0080  -12.8040 O.2     1  UNL1       -0.3560
     31  C         26.7300  -24.0520  -11.8770 C.3     1  UNL1        0.2100
@<TRIPOS>BOND
     1     3     2    1
     2     3     4    2
     3     2     1    2
     4    15     5    1
     5     4     5    1
     6     4    13    1
     7     5     6    1
     8     1    30    1
     9     1    14    1
    10    30    31    1
    11    11    10    1
    12    11     7    1
    13    13    14    2
    14    13    12    1
    15     6     7    1
    16     6    12    2
    17    10     9    1
    18     7     8    2
    19     9     8    2
    20     9    16    1
    21    16    17    1
    22    17    18    1
    23    29    28    1
    24    27    28    1
    25    27    26    2
    26    28    23    2
    27    18    19    1
    28    18    20   am
    29    26    25    1
    30    23    22    1
    31    23    24    1
    32    22    20    1
    33    20    21    2
    34    25    24    2
