@<TRIPOS>MOLECULE
1922_out_ligand_01.pdbqt
 40 43 0 0 0
SMALL
GASTEIGER

@<TRIPOS>ATOM
      1  C         22.2400  -22.2960  -11.3910 C.2     1  UNL1        0.2560
      2  O         22.6970  -23.1140  -10.6010 O.2     1  UNL1       -0.2670
      3  N         20.9400  -21.8230  -11.4410 N.am    1  UNL1       -0.3230
      4  H         20.7650  -21.0400  -12.0560 H       1  UNL1        0.1690
      5  C         19.8440  -22.2510  -10.6650 C.2     1  UNL1        0.0350
      6  C         18.5640  -21.9180  -11.1310 C.2     1  UNL1        0.0310
      7  C         17.4220  -22.3230  -10.4350 C.2     1  UNL1        0.0270
      8  C         17.5600  -23.0800   -9.2700 C.2     1  UNL1        0.0800
      9  C         18.8280  -23.3980   -8.7800 C.2     1  UNL1        0.0270
     10  C         19.9650  -22.9890   -9.4840 C.2     1  UNL1        0.0310
     11  S         16.1160  -23.6230   -8.3860 S.O2    1  UNL1        0.2630
     12  O         15.0290  -23.7130   -9.3360 O.2     1  UNL1       -0.2000
     13  O         16.4960  -24.7550   -7.5670 O.2     1  UNL1       -0.2000
     14  N         15.7660  -22.3020   -7.3820 N.pl3   1  UNL1       -0.2790
     15  H         16.1290  -21.4370   -7.7910 H       1  UNL1        0.1790
     16  C         15.9510  -22.4480   -5.9650 C.2     1  UNL1        0.0660
     17  C         14.9180  -22.9860   -5.1920 C.2     1  UNL1        0.0320
     18  C         15.0900  -23.1740   -3.8220 C.2     1  UNL1        0.0040
     19  C         16.2960  -22.8250   -3.2180 C.2     1  UNL1        0.0260
     20  C         17.3320  -22.2770   -3.9800 C.2     1  UNL1        0.0580
     21 CL         18.7970  -21.8690   -3.1560 Cl      1  UNL1       -0.0820
     22  C         17.1650  -22.0820   -5.3570 C.2     1  UNL1        0.0830
     23 CL         18.4230  -21.3880   -6.3320 Cl      1  UNL1       -0.0800
     24  C         23.1590  -21.6970  -12.3970 C.2     1  UNL1        0.0320
     25  C         22.6960  -21.2620  -13.6460 C.2     1  UNL1        0.0190
     26  C         23.5900  -20.7050  -14.5640 C.2     1  UNL1        0.0250
     27  C         24.9430  -20.5890  -14.2430 C.2     1  UNL1        0.0250
     28  C         25.4120  -21.0390  -13.0060 C.2     1  UNL1        0.0250
     29  C         24.5210  -21.5980  -12.0870 C.2     1  UNL1        0.0190
     30  N         25.8150  -20.0000  -15.2260 N.pl3   1  UNL1       -0.1760
     31  C         25.6720  -18.5310  -15.3680 C.3     1  UNL1        0.1360
     32  S         25.8360  -20.8740  -16.7090 S.O2    1  UNL1        0.2470
     33  O         24.5960  -20.6330  -17.4200 O.2     1  UNL1       -0.2050
     34  O         27.1200  -20.6450  -17.3440 O.2     1  UNL1       -0.2050
     35  C         25.7910  -22.5620  -16.1520 C.2     1  UNL1        0.0750
     36  C         24.6690  -23.3430  -16.4490 C.2     1  UNL1        0.0250
     37  C         24.6250  -24.6690  -16.0210 C.2     1  UNL1        0.0020
     38  C         25.6970  -25.2090  -15.3080 C.2     1  UNL1        0.0000
     39  C         26.8190  -24.4270  -15.0230 C.2     1  UNL1        0.0020
     40  C         26.8730  -23.1000  -15.4480 C.2     1  UNL1        0.0250
@<TRIPOS>BOND
     1    33    32    2
     2    34    32    2
     3    32    35    1
     4    32    30    1
     5    36    35    2
     6    36    37    1
     7    35    40    1
     8    37    38    2
     9    40    39    2
    10    31    30    1
    11    38    39    1
    12    30    27    1
    13    26    27    2
    14    26    25    1
    15    27    28    1
    16    25    24    2
    17    28    29    2
    18    24    29    1
    19    24     1    1
    20     4     3    1
    21     3     1   am
    22     3     5    1
    23     1     2    2
    24     6     5    2
    25     6     7    1
    26     5    10    1
    27     7     8    2
    28    10     9    2
    29    12    11    2
    30     8     9    1
    31     8    11    1
    32    11    13    2
    33    11    14    1
    34    15    14    1
    35    14    16    1
    36    23    22    1
    37    16    22    2
    38    16    17    1
    39    22    20    1
    40    17    18    2
    41    20    19    2
    42    20    21    1
    43    18    19    1
