@<TRIPOS>MOLECULE
19221_out_ligand_01.pdbqt
 33 36 0 0 0
SMALL
GASTEIGER

@<TRIPOS>ATOM
      1  C         21.7010  -22.8290  -10.4380 C.2     1  UNL1       -0.0380
      2  C         22.5600  -23.3180   -9.4310 C.2     1  UNL1        0.0090
      3  C         23.9460  -23.3100   -9.5970 C.2     1  UNL1        0.0100
      4  C         24.4640  -22.7970  -10.7760 C.2     1  UNL1       -0.0290
      5  C         23.6340  -22.2860  -11.7740 C.2     1  UNL1        0.0440
      6  C         22.2570  -22.2940  -11.6150 C.2     1  UNL1        0.0390
      7  N         24.4070  -21.7790  -12.8420 N.am    1  UNL1       -0.3090
      8  C         23.8840  -21.1370  -13.9580 C.2     1  UNL1        0.2580
      9  O         22.6940  -21.0570  -14.2530 O.2     1  UNL1       -0.2670
     10  C         25.8260  -22.1590  -12.5990 C.3     1  UNL1        0.0930
     11  C         26.2700  -23.2760  -13.5480 C.3     1  UNL1        0.0330
     12  C         25.9060  -22.6250  -11.1260 C.3     1  UNL1        0.0660
     13  C         20.2020  -22.8140  -10.2450 C.3     1  UNL1        0.1630
     14  N         19.8050  -23.3780   -8.9720 N.am    1  UNL1       -0.3390
     15  C         18.6650  -22.9450   -8.3300 C.2     1  UNL1        0.3210
     16  N         18.5340  -23.5640   -7.1060 N.am    1  UNL1       -0.3080
     17  O         17.9030  -22.1290   -8.8270 O.2     1  UNL1       -0.2470
     18  H         19.0860  -24.3990   -7.0040 H       1  UNL1        0.1700
     19  H         20.5580  -23.6980   -8.3840 H       1  UNL1        0.1640
     20  C         17.5790  -23.2950   -6.0940 C.2     1  UNL1        0.0420
     21  C         17.8910  -22.4930   -4.9910 C.2     1  UNL1        0.0300
     22  C         16.9490  -22.2390   -3.9980 C.2     1  UNL1        0.0030
     23  C         15.6770  -22.7910   -4.0890 C.2     1  UNL1        0.0070
     24  C         15.3280  -23.6100   -5.1740 C.2     1  UNL1       -0.0540
     25  C         13.9320  -24.1730   -5.2100 C.3     1  UNL1        0.0490
     26  C         16.2840  -23.8770   -6.1870 C.2     1  UNL1       -0.0290
     27  C         15.9270  -24.7550   -7.3640 C.3     1  UNL1        0.0510
     28  C         24.8300  -20.4750  -14.8820 C.2     1  UNL1        0.0320
     29  C         25.5790  -19.3730  -14.4640 C.2     1  UNL1        0.0170
     30  C         26.4350  -18.7380  -15.3610 C.2     1  UNL1        0.0010
     31  C         26.5310  -19.1960  -16.6750 C.2     1  UNL1        0.0000
     32  C         25.7620  -20.2800  -17.0990 C.2     1  UNL1        0.0010
     33  C         24.8990  -20.9150  -16.2080 C.2     1  UNL1        0.0170
@<TRIPOS>BOND
     1    32    31    2
     2    32    33    1
     3    31    30    1
     4    33    28    2
     5    30    29    2
     6    28    29    1
     7    28     8    1
     8     9     8    2
     9     8     7   am
    10    11    10    1
    11     7    10    1
    12     7     5    1
    13    10    12    1
    14     5     6    1
    15     5     4    2
    16     6     1    2
    17    12     4    1
    18     4     3    1
    19     1    13    1
    20     1     2    1
    21    13    14    1
    22     3     2    2
    23    14    19    1
    24    14    15   am
    25    17    15    2
    26    15    16   am
    27    27    26    1
    28    16    18    1
    29    16    20    1
    30    26    20    2
    31    26    24    1
    32    20    21    1
    33    25    24    1
    34    24    23    2
    35    21    22    2
    36    23    22    1
