@<TRIPOS>MOLECULE
19226_out_ligand_01.pdbqt
 33 36 0 0 0
SMALL
GASTEIGER

@<TRIPOS>ATOM
      1  C         18.5640  -22.8100   -9.1890 C.2     1  UNL1        0.2580
      2  O         18.2410  -22.8520  -10.3740 O.2     1  UNL1       -0.2670
      3  N         19.8190  -22.4820   -8.6970 N.am    1  UNL1       -0.3130
      4  C         20.1670  -22.2140   -7.2880 C.2     1  UNL1        0.1370
      5  C         21.5850  -21.6220   -7.2690 C.2     1  UNL1        0.0610
      6  C         22.0230  -21.8310   -8.6790 C.2     1  UNL1       -0.0300
      7  C         23.2730  -21.5670   -9.2210 C.2     1  UNL1        0.0100
      8  C         23.4670  -21.8010  -10.5840 C.2     1  UNL1        0.0090
      9  C         22.4200  -22.2900  -11.3940 C.2     1  UNL1       -0.0380
     10  C         21.1550  -22.5270  -10.8280 C.2     1  UNL1        0.0390
     11  C         20.9750  -22.2980   -9.4740 C.2     1  UNL1        0.0440
     12  C         22.6490  -22.5270  -12.8660 C.3     1  UNL1        0.1630
     13  N         23.9320  -22.0050  -13.2760 N.am    1  UNL1       -0.3390
     14  C         24.0160  -20.9930  -14.2060 C.2     1  UNL1        0.3210
     15  O         23.0290  -20.4250  -14.6630 O.2     1  UNL1       -0.2470
     16  N         25.3310  -20.7090  -14.5100 N.am    1  UNL1       -0.3070
     17  H         26.0370  -21.1990  -13.9740 H       1  UNL1        0.1700
     18  H         24.7060  -22.6540  -13.2330 H       1  UNL1        0.1640
     19  C         25.8270  -19.7350  -15.4130 C.2     1  UNL1        0.0590
     20  C         26.1870  -18.4390  -15.0270 C.2     1  UNL1        0.0550
     21  C         26.6760  -17.5300  -15.9730 C.2     1  UNL1        0.0360
     22 CL         27.1210  -15.9380  -15.4790 Cl      1  UNL1       -0.0840
     23  C         26.8100  -17.8960  -17.3100 C.2     1  UNL1        0.0260
     24  C         26.4500  -19.1800  -17.7140 C.2     1  UNL1        0.0280
     25  C         25.9620  -20.0930  -16.7700 C.2     1  UNL1        0.0600
     26 CL         25.5260  -21.6770  -17.3240 Cl      1  UNL1       -0.0820
     27  C         17.5050  -23.1130   -8.2010 C.2     1  UNL1        0.0320
     28  C         16.4960  -22.1810   -7.9380 C.2     1  UNL1        0.0170
     29  C         15.5120  -22.4760   -6.9900 C.2     1  UNL1        0.0070
     30  C         15.5360  -23.6960   -6.2950 C.2     1  UNL1       -0.0620
     31  C         14.4940  -23.9850   -5.2550 C.3     1  UNL1        0.0480
     32  C         16.5750  -24.6060   -6.5390 C.2     1  UNL1        0.0070
     33  C         17.5610  -24.3140   -7.4870 C.2     1  UNL1        0.0170
@<TRIPOS>BOND
     1    24    23    2
     2    24    25    1
     3    26    25    1
     4    23    21    1
     5    25    19    2
     6    21    22    1
     7    21    20    2
     8    19    20    1
     9    19    16    1
    10    15    14    2
    11    16    14   am
    12    16    17    1
    13    14    13   am
    14    13    18    1
    15    13    12    1
    16    12     9    1
    17     9    10    2
    18     9     8    1
    19    10    11    1
    20     8     7    2
    21     2     1    2
    22    11     3    1
    23    11     6    2
    24     7     6    1
    25     1     3   am
    26     1    27    1
    27     3     4    1
    28     6     5    1
    29    27    28    2
    30    27    33    1
    31    28    29    1
    32    33    32    2
    33     4     5    2
    34    29    30    2
    35    32    30    1
    36    30    31    1
