@<TRIPOS>MOLECULE
19238_out_ligand_01.pdbqt
 32 35 0 0 0
SMALL
GASTEIGER

@<TRIPOS>ATOM
      1  C         17.8070  -22.5420  -10.3820 C.2     1  UNL1       -0.0400
      2  C         18.3110  -21.7560  -11.4390 C.2     1  UNL1        0.0110
      3  C         19.6790  -21.7220  -11.7280 C.2     1  UNL1        0.0310
      4  C         20.5390  -22.4750  -10.9490 C.2     1  UNL1        0.0430
      5  C         20.0510  -23.2510   -9.8970 C.2     1  UNL1       -0.0290
      6  C         18.6960  -23.2950   -9.6000 C.2     1  UNL1        0.0180
      7  C         21.1500  -24.0010   -9.2180 C.2     1  UNL1        0.0610
      8  C         22.3950  -23.4770   -9.9440 C.2     1  UNL1        0.1370
      9  N         21.9380  -22.5990  -11.0370 N.am    1  UNL1       -0.3130
     10  C         22.7340  -22.0270  -12.0150 C.2     1  UNL1        0.2580
     11  O         22.3520  -21.3770  -12.9830 O.2     1  UNL1       -0.2670
     12  C         16.3280  -22.5430  -10.0820 C.3     1  UNL1        0.1620
     13  N         16.0790  -22.2100   -8.6950 N.am    1  UNL1       -0.3390
     14  C         15.8600  -23.1940   -7.7680 C.2     1  UNL1        0.3160
     15  O         15.9500  -24.3930   -7.9890 O.2     1  UNL1       -0.2470
     16  N         15.5290  -22.6520   -6.5500 N.am    1  UNL1       -0.3430
     17  H         15.9690  -21.7610   -6.3720 H       1  UNL1        0.1640
     18  H         15.5640  -21.3580   -8.5340 H       1  UNL1        0.1640
     19  C         15.3400  -23.5140   -5.3960 C.3     1  UNL1        0.1290
     20  C         16.6430  -23.7840   -4.6390 C.3     1  UNL1        0.0580
     21  C         17.6760  -22.7210   -4.9220 C.2     1  UNL1       -0.0570
     22  C         18.4930  -22.8150   -6.0560 C.2     1  UNL1        0.0070
     23  C         19.4350  -21.8240   -6.3340 C.2     1  UNL1        0.0010
     24  C         19.5660  -20.7280   -5.4820 C.2     1  UNL1        0.0000
     25  C         18.7550  -20.6230   -4.3530 C.2     1  UNL1        0.0010
     26  C         17.8130  -21.6130   -4.0740 C.2     1  UNL1        0.0070
     27  C         24.1910  -22.2450  -11.8980 C.2     1  UNL1        0.0320
     28  C         24.9690  -21.3870  -11.1150 C.2     1  UNL1        0.0170
     29  C         26.3450  -21.6020  -11.0210 C.2     1  UNL1        0.0010
     30  C         26.9340  -22.6610  -11.7160 C.2     1  UNL1        0.0000
     31  C         26.1550  -23.5020  -12.5140 C.2     1  UNL1        0.0010
     32  C         24.7800  -23.2920  -12.6120 C.2     1  UNL1        0.0170
@<TRIPOS>BOND
     1    11    10    2
     2    32    31    1
     3    32    27    2
     4    31    30    2
     5    10    27    1
     6    10     9   am
     7    27    28    1
     8     3     2    1
     9     3     4    2
    10    30    29    1
    11     2     1    2
    12    28    29    2
    13     9     4    1
    14     9     8    1
    15     4     5    1
    16     1    12    1
    17     1     6    1
    18    12    13    1
    19     8     7    2
    20     5     6    2
    21     5     7    1
    22    13    18    1
    23    13    14   am
    24    15    14    2
    25    14    16   am
    26    16    17    1
    27    16    19    1
    28    23    22    1
    29    23    24    2
    30    22    21    2
    31    24    25    1
    32    19    20    1
    33    21    20    1
    34    21    26    1
    35    25    26    2
