@<TRIPOS>MOLECULE
19248_out_ligand_01.pdbqt
 34 37 0 0 0
SMALL
GASTEIGER

@<TRIPOS>ATOM
      1  C         21.8030  -23.0090   -8.9730 C.2     1  UNL1        0.0320
      2  C         21.3960  -24.3320   -9.1840 C.2     1  UNL1        0.0200
      3  C         20.2550  -24.8240   -8.5410 C.2     1  UNL1        0.0380
      4  C         19.5000  -23.9930   -7.7110 C.2     1  UNL1        0.0780
      5  C         19.9040  -22.6740   -7.4940 C.2     1  UNL1        0.0380
      6  C         21.0470  -22.1820   -8.1310 C.2     1  UNL1        0.0200
      7  C         23.0080  -22.4290   -9.6320 C.2     1  UNL1        0.2510
      8  N         23.6800  -23.2440  -10.5170 N.am    1  UNL1       -0.3530
      9  H         23.4800  -24.2330  -10.5230 H       1  UNL1        0.1630
     10  O         23.3710  -21.2920   -9.3530 O.2     1  UNL1       -0.2680
     11  C         24.9230  -22.8320  -11.1300 C.3     1  UNL1        0.1610
     12  C         24.7660  -22.6960  -12.6220 C.2     1  UNL1       -0.0400
     13  C         25.4220  -23.5700  -13.4990 C.2     1  UNL1        0.0110
     14  C         25.2810  -23.4310  -14.8850 C.2     1  UNL1        0.0370
     15  C         24.4820  -22.4180  -15.4140 C.2     1  UNL1        0.0680
     16  C         23.8380  -21.5380  -14.5420 C.2     1  UNL1        0.0370
     17  C         23.9750  -21.6740  -13.1590 C.2     1  UNL1        0.0110
     18  O         24.2590  -22.1670  -16.7390 O.2     1  UNL1       -0.3520
     19  C         24.4030  -23.2320  -17.6770 C.3     1  UNL1        0.1710
     20  C         23.0450  -23.7220  -18.1530 C.3     1  UNL1        0.0340
     21  O         18.4020  -24.5650   -7.1060 O.2     1  UNL1       -0.2900
     22  C         17.4700  -23.6810   -6.6020 C.2     1  UNL1        0.2060
     23  N         17.6760  -23.2520   -5.3280 N.2     1  UNL1       -0.2330
     24  C         16.7300  -22.4230   -4.8390 C.2     1  UNL1        0.1380
     25  C         15.6200  -22.0450   -5.5740 C.2     1  UNL1        0.1370
     26  N         15.3960  -22.4870   -6.8330 N.2     1  UNL1       -0.2480
     27  C         16.3350  -23.3290   -7.3450 C.2     1  UNL1        0.1510
     28  S         16.0100  -23.9500   -8.9840 S.3     1  UNL1       -0.0660
     29  C         16.9110  -22.7510   -9.9490 C.2     1  UNL1        0.0070
     30  C         18.1430  -23.0760  -10.5260 C.2     1  UNL1        0.0190
     31  C         18.8400  -22.1300  -11.2800 C.2     1  UNL1        0.0010
     32  C         18.3050  -20.8560  -11.4680 C.2     1  UNL1        0.0000
     33  C         17.0720  -20.5290  -10.9040 C.2     1  UNL1        0.0010
     34  C         16.3750  -21.4750  -10.1490 C.2     1  UNL1        0.0190
@<TRIPOS>BOND
     1    20    19    1
     2    19    18    1
     3    18    15    1
     4    15    14    2
     5    15    16    1
     6    14    13    1
     7    16    17    2
     8    13    12    2
     9    17    12    1
    10    12    11    1
    11    32    31    2
    12    32    33    1
    13    31    30    1
    14    11     8    1
    15    33    34    2
    16    30    29    2
    17     9     8    1
    18     8     7   am
    19    34    29    1
    20    29    28    1
    21     7    10    2
    22     7     1    1
    23     2     1    2
    24     2     3    1
    25    28    27    1
    26     1     6    1
    27     3     4    2
    28     6     5    2
    29     4     5    1
    30     4    21    1
    31    27    26    2
    32    27    22    1
    33    21    22    1
    34    26    25    1
    35    22    23    2
    36    25    24    2
    37    23    24    1
