@<TRIPOS>MOLECULE
19247_out_ligand_01.pdbqt
 36 40 0 0 0
SMALL
GASTEIGER

@<TRIPOS>ATOM
      1  O         19.3440  -20.9230  -11.7790 O.2     1  UNL1       -0.2670
      2  C         19.7490  -21.8450  -11.0830 C.2     1  UNL1        0.2560
      3  N         21.0100  -22.4150  -11.1160 N.am    1  UNL1       -0.3230
      4  H         21.1340  -23.2740  -10.5970 H       1  UNL1        0.1690
      5  C         18.8040  -22.4800  -10.1210 C.2     1  UNL1        0.0320
      6  C         19.3270  -23.2210   -9.0570 C.2     1  UNL1        0.0170
      7  C         18.4690  -23.8290   -8.1390 C.2     1  UNL1        0.0100
      8  C         17.0780  -23.7170   -8.2810 C.2     1  UNL1       -0.0300
      9  C         16.5600  -22.9890   -9.3620 C.2     1  UNL1        0.0100
     10  C         17.4170  -22.3770  -10.2820 C.2     1  UNL1        0.0170
     11  C         16.1460  -24.3840   -7.2870 C.3     1  UNL1        0.3110
     12  N         15.2430  -23.4360   -6.6170 N.3     1  UNL1        0.0970
     13  C         14.7540  -23.9590   -5.3310 C.3     1  UNL1        0.2770
     14  C         15.8440  -24.1520   -4.2640 C.3     1  UNL1        0.0690
     15  C         16.8360  -23.0170   -4.2250 C.2     1  UNL1       -0.0490
     16  C         17.7650  -22.9340   -3.1770 C.2     1  UNL1        0.0070
     17  C         16.8770  -22.0740   -5.2680 C.2     1  UNL1       -0.0240
     18  C         18.7110  -21.9100   -3.1540 C.2     1  UNL1        0.0010
     19  C         18.7420  -20.9650   -4.1770 C.2     1  UNL1        0.0010
     20  C         17.8270  -21.0440   -5.2260 C.2     1  UNL1        0.0090
     21  C         15.8620  -22.1160   -6.3920 C.3     1  UNL1        0.3110
     22  C         22.1200  -21.9880  -11.8730 C.2     1  UNL1        0.0350
     23  C         23.3840  -22.1010  -11.2780 C.2     1  UNL1        0.0310
     24  C         24.5350  -21.6960  -11.9600 C.2     1  UNL1        0.0270
     25  C         24.4240  -21.1840  -13.2540 C.2     1  UNL1        0.0790
     26  C         23.1690  -21.0320  -13.8450 C.2     1  UNL1        0.0270
     27  C         22.0220  -21.4420  -13.1560 C.2     1  UNL1        0.0310
     28  S         25.8820  -20.6410  -14.1200 S.O2    1  UNL1        0.2610
     29  O         27.0070  -20.8260  -13.2280 O.2     1  UNL1       -0.2000
     30  O         25.5900  -19.3470  -14.6990 O.2     1  UNL1       -0.2000
     31  N         26.0290  -21.7570  -15.3820 N.3     1  UNL1       -0.3030
     32  C         26.2040  -23.1950  -15.0420 C.3     1  UNL1        0.1610
     33  C         25.0620  -24.0350  -15.6260 C.3     1  UNL1        0.1880
     34  O         24.9560  -23.9430  -17.0540 O.3     1  UNL1       -0.3880
     35  C         25.4110  -22.6890  -17.5830 C.3     1  UNL1        0.1880
     36  C         25.2190  -21.5230  -16.6070 C.3     1  UNL1        0.1610
@<TRIPOS>BOND
     1    35    34    1
     2    35    36    1
     3    34    33    1
     4    36    31    1
     5    33    32    1
     6    31    32    1
     7    31    28    1
     8    30    28    2
     9    28    25    1
    10    28    29    2
    11    26    25    2
    12    26    27    1
    13    25    24    1
    14    27    22    2
    15    24    23    2
    16    22    23    1
    17    22     3    1
    18     1     2    2
    19     3     2   am
    20     3     4    1
    21     2     5    1
    22    10     5    2
    23    10     9    1
    24     5     6    1
    25     9     8    2
    26     6     7    2
    27     8     7    1
    28     8    11    1
    29    11    12    1
    30    12    21    1
    31    12    13    1
    32    21    17    1
    33    13    14    1
    34    17    20    1
    35    17    15    2
    36    20    19    2
    37    14    15    1
    38    15    16    1
    39    19    18    1
    40    16    18    2
