@<TRIPOS>MOLECULE
19261_out_ligand_01.pdbqt
 39 43 0 0 0
SMALL
GASTEIGER

@<TRIPOS>ATOM
      1  C         21.1110  -21.5220  -12.5870 C.2     1  UNL1        0.0360
      2  C         22.4060  -21.4520  -12.2240 C.2     1  UNL1        0.0740
      3  S         22.9670  -21.7020  -10.6230 S.3     1  UNL1       -0.0830
      4  C         24.4940  -22.5270  -10.9830 C.2     1  UNL1        0.0320
      5  C         25.0140  -23.3440   -9.9620 C.2     1  UNL1        0.0210
      6  C         26.2310  -23.9970  -10.1190 C.2     1  UNL1        0.0020
      7  C         26.9410  -23.8330  -11.2980 C.2     1  UNL1        0.0020
      8  C         26.4310  -23.0190  -12.3150 C.2     1  UNL1        0.0310
      9  C         25.1980  -22.3520  -12.1850 C.2     1  UNL1        0.0550
     10  N         24.6880  -21.5120  -13.2350 N.am    1  UNL1       -0.3080
     11  C         23.3810  -21.0200  -13.2740 C.2     1  UNL1        0.2650
     12  O         22.9880  -20.2660  -14.1720 O.2     1  UNL1       -0.2670
     13  C         19.9880  -21.8770  -11.7150 C.2     1  UNL1       -0.0350
     14  C         18.7720  -21.1910  -11.8050 C.2     1  UNL1        0.0120
     15  C         17.7040  -21.5330  -10.9680 C.2     1  UNL1        0.0180
     16  C         17.8470  -22.5710  -10.0390 C.2     1  UNL1        0.0320
     17  C         19.0700  -23.2450   -9.9380 C.2     1  UNL1        0.0180
     18  C         20.1360  -22.9010  -10.7740 C.2     1  UNL1        0.0120
     19  C         16.7420  -22.9700   -9.1220 C.2     1  UNL1        0.2510
     20  N         17.0930  -23.7520   -8.0400 N.am    1  UNL1       -0.3570
     21  H         18.0690  -23.8520   -7.8010 H       1  UNL1        0.1620
     22  O         15.5970  -22.5860   -9.3320 O.2     1  UNL1       -0.2680
     23  C         16.1130  -24.1290   -7.0360 C.3     1  UNL1        0.1270
     24  C         16.6250  -23.9130   -5.6090 C.3     1  UNL1        0.0580
     25  C         17.6730  -22.8290   -5.5530 C.2     1  UNL1       -0.0570
     26  C         17.5970  -21.8250   -4.5790 C.2     1  UNL1        0.0070
     27  C         18.5540  -20.8080   -4.5350 C.2     1  UNL1        0.0070
     28  C         19.5930  -20.7690   -5.4700 C.2     1  UNL1       -0.0620
     29  C         20.6410  -19.6980   -5.3980 C.3     1  UNL1        0.0480
     30  C         19.6750  -21.7780   -6.4370 C.2     1  UNL1        0.0070
     31  C         18.7200  -22.7960   -6.4830 C.2     1  UNL1        0.0070
     32  C         25.5640  -21.1150  -14.3490 C.3     1  UNL1        0.1740
     33  C         25.1780  -21.7360  -15.6700 C.2     1  UNL1       -0.0010
     34  C         24.7920  -23.0840  -15.7580 C.2     1  UNL1        0.0120
     35  C         24.4580  -23.6470  -16.9910 C.2     1  UNL1        0.0010
     36  C         24.5120  -22.8780  -18.1530 C.2     1  UNL1        0.0030
     37  C         24.9070  -21.5440  -18.0810 C.2     1  UNL1        0.0430
     38  C         25.2390  -20.9890  -16.8480 C.2     1  UNL1        0.1240
     39  F         25.6220  -19.7030  -16.8060 F       1  UNL1       -0.2050
@<TRIPOS>BOND
     1    36    37    2
     2    36    35    1
     3    37    38    1
     4    35    34    2
     5    38    39    1
     6    38    33    2
     7    34    33    1
     8    33    32    1
     9    32    10    1
    10    12    11    2
    11    11    10   am
    12    11     2    1
    13    10     9    1
    14     1     2    2
    15     1    13    1
    16     8     9    1
    17     8     7    2
    18     2     3    1
    19     9     4    2
    20    14    13    2
    21    14    15    1
    22    13    18    1
    23     7     6    1
    24     4     3    1
    25     4     5    1
    26    15    16    2
    27    18    17    2
    28     6     5    2
    29    16    17    1
    30    16    19    1
    31    22    19    2
    32    19    20   am
    33    20    21    1
    34    20    23    1
    35    23    24    1
    36    31    30    1
    37    31    25    2
    38    30    28    2
    39    24    25    1
    40    25    26    1
    41    28    29    1
    42    28    27    1
    43    26    27    2
