@<TRIPOS>MOLECULE
19264_out_ligand_01.pdbqt
 30 33 0 0 0
SMALL
GASTEIGER

@<TRIPOS>ATOM
      1  C         20.7430  -22.1640  -10.7340 C.2     1  UNL1       -0.0380
      2  C         21.3280  -22.8510   -9.6480 C.2     1  UNL1        0.0090
      3  C         22.6680  -23.2420   -9.6820 C.2     1  UNL1        0.0100
      4  C         23.4090  -22.9460  -10.8160 C.2     1  UNL1       -0.0300
      5  C         22.8410  -22.2670  -11.8950 C.2     1  UNL1        0.0440
      6  C         21.5170  -21.8650  -11.8660 C.2     1  UNL1        0.0390
      7  N         23.7930  -22.1040  -12.9190 N.am    1  UNL1       -0.3130
      8  C         23.5970  -21.4020  -14.1010 C.2     1  UNL1        0.2590
      9  O         22.6100  -20.7410  -14.4020 O.2     1  UNL1       -0.2670
     10  C         25.0170  -22.8270  -12.5280 C.3     1  UNL1        0.1370
     11  C         24.8590  -23.2190  -11.0490 C.3     1  UNL1        0.0610
     12  C         19.3020  -21.7290  -10.6600 C.3     1  UNL1        0.1610
     13  N         18.7510  -22.0230   -9.3520 N.am    1  UNL1       -0.3530
     14  C         17.5950  -22.7600   -9.1990 C.2     1  UNL1        0.2510
     15  O         16.9390  -23.1910  -10.1410 O.2     1  UNL1       -0.2680
     16  H         19.3470  -21.8380   -8.5560 H       1  UNL1        0.1630
     17  C         17.1690  -23.0540   -7.7990 C.2     1  UNL1        0.0320
     18  C         17.9350  -23.8360   -6.9240 C.2     1  UNL1        0.0170
     19  C         17.4890  -24.0650   -5.6170 C.2     1  UNL1        0.0070
     20  C         16.2870  -23.5060   -5.1640 C.2     1  UNL1       -0.0620
     21  C         15.8110  -23.7730   -3.7680 C.3     1  UNL1        0.0480
     22  C         15.5240  -22.7260   -6.0420 C.2     1  UNL1        0.0070
     23  C         15.9660  -22.4950   -7.3470 C.2     1  UNL1        0.0170
     24  C         24.7030  -21.4510  -15.0830 C.2     1  UNL1        0.0380
     25  C         24.6490  -22.4250  -16.0850 C.2     1  UNL1        0.0170
     26  C         25.6760  -22.5050  -17.0270 C.2     1  UNL1        0.0010
     27  C         26.7440  -21.6080  -16.9680 C.2     1  UNL1        0.0010
     28  C         26.7870  -20.6250  -15.9760 C.2     1  UNL1        0.0070
     29  C         25.7650  -20.5300  -15.0180 C.2     1  UNL1       -0.0460
     30  C         25.8070  -19.4500  -13.9770 C.3     1  UNL1        0.0490
@<TRIPOS>BOND
     1    26    27    2
     2    26    25    1
     3    27    28    1
     4    25    24    2
     5    28    29    2
     6    24    29    1
     7    24     8    1
     8    29    30    1
     9     9     8    2
    10     8     7   am
    11     7    10    1
    12     7     5    1
    13    10    11    1
    14     5     6    1
    15     5     4    2
    16     6     1    2
    17    11     4    1
    18     4     3    1
    19     1    12    1
    20     1     2    1
    21    12    13    1
    22    15    14    2
    23     3     2    2
    24    13    14   am
    25    13    16    1
    26    14    17    1
    27    17    23    2
    28    17    18    1
    29    23    22    1
    30    18    19    2
    31    22    20    2
    32    19    20    1
    33    20    21    1
