@<TRIPOS>MOLECULE
19278_out_ligand_01.pdbqt
 34 37 0 0 0
SMALL
GASTEIGER

@<TRIPOS>ATOM
      1  C         17.9730  -22.1550  -10.2540 C.ar    1  UNL1        0.1690
      2  N         18.6870  -23.0480   -9.6530 N.ar    1  UNL1       -0.2280
      3  C         20.0370  -23.0230   -9.9230 C.ar    1  UNL1        0.0520
      4  C         20.6290  -22.1520  -10.7570 C.ar    1  UNL1        0.0630
      5  C         19.7740  -21.1520  -11.4250 C.ar    1  UNL1        0.2570
      6  O         20.2300  -20.2850  -12.1630 O.2     1  UNL1       -0.2670
      7  N         18.4470  -21.2440  -11.1390 N.ar    1  UNL1       -0.3020
      8  C         22.1040  -22.1080  -11.0250 C.3     1  UNL1        0.3190
      9  N         22.8380  -23.2820  -10.4980 N.3     1  UNL1        0.0970
     10  C         22.3710  -23.6070   -9.1410 C.3     1  UNL1        0.2790
     11  C         20.8890  -24.0090   -9.1640 C.3     1  UNL1        0.0900
     12  H         17.8270  -20.5540  -11.5290 H       1  UNL1        0.1710
     13  S         16.2670  -21.9960   -9.9730 S.3     1  UNL1       -0.0830
     14  C         15.8810  -23.7320   -9.5880 C.3     1  UNL1        0.1850
     15  C         15.9900  -24.0020   -8.0870 C.2     1  UNL1        0.2310
     16  N         16.2090  -22.8500   -7.3460 N.am    1  UNL1       -0.3260
     17  H         16.2860  -21.9930   -7.8750 H       1  UNL1        0.1690
     18  O         15.8830  -25.1400   -7.6420 O.2     1  UNL1       -0.2720
     19  C         16.2500  -22.7090   -5.9380 C.2     1  UNL1        0.0410
     20  C         15.1530  -23.0300   -5.1320 C.2     1  UNL1        0.0300
     21  C         15.2000  -22.8440   -3.7510 C.2     1  UNL1        0.0030
     22  C         16.3460  -22.3380   -3.1540 C.2     1  UNL1        0.0070
     23  C         17.4680  -22.0080   -3.9270 C.2     1  UNL1       -0.0540
     24  C         18.6850  -21.4730   -3.2180 C.3     1  UNL1        0.0490
     25  C         17.4320  -22.2010   -5.3330 C.2     1  UNL1       -0.0290
     26  C         18.6410  -21.8700   -6.1780 C.3     1  UNL1        0.0510
     27  C         24.2910  -23.0510  -10.5090 C.3     1  UNL1        0.3110
     28  C         24.8220  -22.7140  -11.8880 C.2     1  UNL1       -0.0300
     29  C         24.7900  -23.6650  -12.9220 C.2     1  UNL1        0.0120
     30  C         25.2920  -23.3480  -14.1850 C.2     1  UNL1        0.0430
     31  C         25.8250  -22.0850  -14.4160 C.2     1  UNL1        0.1160
     32  F         26.3090  -21.7860  -15.6290 F       1  UNL1       -0.2060
     33  C         25.8650  -21.1310  -13.4070 C.2     1  UNL1        0.0430
     34  C         25.3640  -21.4440  -12.1440 C.2     1  UNL1        0.0120
@<TRIPOS>BOND
     1    32    31    1
     2    31    30    2
     3    31    33    1
     4    30    29    1
     5    33    34    2
     6    29    28    2
     7     6     5    2
     8    34    28    1
     9    28    27    1
    10    12     7    1
    11     5     7   ar
    12     5     4   ar
    13     7     1   ar
    14     8     4    1
    15     8     9    1
    16     4     3   ar
    17    27     9    1
    18     9    10    1
    19     1    13    1
    20     1     2   ar
    21    13    14    1
    22     3     2   ar
    23     3    11    1
    24    14    15    1
    25    11    10    1
    26    15    18    2
    27    15    16   am
    28    17    16    1
    29    16    19    1
    30    26    25    1
    31    19    25    2
    32    19    20    1
    33    25    23    1
    34    20    21    2
    35    23    24    1
    36    23    22    2
    37    21    22    1
