@<TRIPOS>MOLECULE
19270_out_ligand_01.pdbqt
 33 36 0 0 0
SMALL
GASTEIGER

@<TRIPOS>ATOM
      1  C         18.5650  -22.8580   -9.2320 C.2     1  UNL1        0.2580
      2  O         18.2390  -22.8970  -10.4170 O.2     1  UNL1       -0.2670
      3  N         19.8180  -22.5400   -8.7390 N.am    1  UNL1       -0.3130
      4  C         20.1790  -22.3310   -7.3240 C.3     1  UNL1        0.1370
      5  C         21.5880  -21.7210   -7.2970 C.3     1  UNL1        0.0610
      6  C         22.0280  -21.9060   -8.7140 C.2     1  UNL1       -0.0300
      7  C         23.2800  -21.6520   -9.2470 C.2     1  UNL1        0.0100
      8  C         23.4730  -21.8560  -10.6160 C.2     1  UNL1        0.0090
      9  C         22.4150  -22.2930  -11.4420 C.2     1  UNL1       -0.0380
     10  C         21.1490  -22.5300  -10.8800 C.2     1  UNL1        0.0390
     11  C         20.9740  -22.3390   -9.5190 C.2     1  UNL1        0.0440
     12  C         22.6440  -22.5080  -12.9170 C.3     1  UNL1        0.1630
     13  N         23.9450  -22.0190  -13.3260 N.am    1  UNL1       -0.3390
     14  C         24.0540  -20.9840  -14.2310 C.2     1  UNL1        0.3210
     15  O         23.0790  -20.3900  -14.6680 O.2     1  UNL1       -0.2470
     16  N         25.3750  -20.7250  -14.5260 N.am    1  UNL1       -0.3080
     17  H         26.0400  -21.2100  -13.9460 H       1  UNL1        0.1700
     18  H         24.6900  -22.7000  -13.3120 H       1  UNL1        0.1640
     19  C         25.8940  -19.7650  -15.4280 C.2     1  UNL1        0.0430
     20  C         26.2150  -18.4590  -15.0300 C.2     1  UNL1        0.0540
     21  C         26.7310  -17.5410  -15.9460 C.2     1  UNL1        0.0360
     22 CL         27.1210  -15.9430  -15.4320 Cl      1  UNL1       -0.0840
     23  C         26.9320  -17.9020  -17.2710 C.2     1  UNL1        0.0240
     24  C         26.6110  -19.1940  -17.6850 C.2     1  UNL1        0.0110
     25  C         26.0900  -20.1340  -16.7790 C.2     1  UNL1       -0.0350
     26  C         25.7620  -21.5120  -17.2960 C.3     1  UNL1        0.0500
     27  C         17.5060  -23.1430   -8.2410 C.2     1  UNL1        0.0320
     28  C         17.5790  -24.3230   -7.4940 C.2     1  UNL1        0.0170
     29  C         16.5940  -24.5990   -6.5430 C.2     1  UNL1        0.0070
     30  C         15.5450  -23.6900   -6.3190 C.2     1  UNL1       -0.0620
     31  C         14.4900  -24.0040   -5.2970 C.3     1  UNL1        0.0480
     32  C         15.4930  -22.5030   -7.0660 C.2     1  UNL1        0.0070
     33  C         16.4740  -22.2240   -8.0200 C.2     1  UNL1        0.0170
@<TRIPOS>BOND
     1    24    23    2
     2    24    25    1
     3    26    25    1
     4    23    21    1
     5    25    19    2
     6    21    22    1
     7    21    20    2
     8    19    20    1
     9    19    16    1
    10    15    14    2
    11    16    14   am
    12    16    17    1
    13    14    13   am
    14    13    18    1
    15    13    12    1
    16    12     9    1
    17     9    10    2
    18     9     8    1
    19    10    11    1
    20     8     7    2
    21     2     1    2
    22    11     3    1
    23    11     6    2
    24     7     6    1
    25     1     3   am
    26     1    27    1
    27     3     4    1
    28     6     5    1
    29    27    33    2
    30    27    28    1
    31    33    32    1
    32    28    29    2
    33     4     5    1
    34    32    30    2
    35    29    30    1
    36    30    31    1
