@<TRIPOS>MOLECULE
19283_out_ligand_01.pdbqt
 33 36 0 0 0
SMALL
GASTEIGER

@<TRIPOS>ATOM
      1  S         18.9770  -22.3390  -10.3610 S.O2    1  UNL1        0.2630
      2  O         18.3010  -21.1780  -10.9010 O.2     1  UNL1       -0.2000
      3  O         18.4020  -23.6630  -10.4530 O.2     1  UNL1       -0.2000
      4  C         20.6190  -22.3450  -11.0730 C.2     1  UNL1        0.0870
      5  C         20.8160  -21.6140  -12.2610 C.2     1  UNL1        0.0560
      6  C         22.1100  -21.5650  -12.7930 C.ar    1  UNL1        0.0450
      7  N         22.5820  -20.9230  -13.9190 N.ar    1  UNL1       -0.3580
      8  C         23.1920  -22.2140  -12.1940 C.ar    1  UNL1        0.0070
      9  C         23.9260  -21.1410  -14.0410 C.ar    1  UNL1        0.0240
     10  H         22.0130  -20.3710  -14.5480 H       1  UNL1        0.1660
     11  C         24.3360  -21.9410  -12.9930 C.ar    1  UNL1        0.0450
     12  C         24.7890  -20.6030  -15.1260 C.3     1  UNL1        0.0580
     13  C         25.7280  -22.3490  -12.8580 C.2     1  UNL1        0.1620
     14  C         26.6620  -21.9220  -13.9910 C.3     1  UNL1        0.0840
     15  O         26.1280  -23.0450  -11.9260 O.2     1  UNL1       -0.2920
     16  C         26.2460  -20.5880  -14.6330 C.3     1  UNL1        0.0140
     17  C         22.9640  -22.9540  -11.0160 C.2     1  UNL1        0.0230
     18  C         21.6740  -23.0390  -10.4540 C.2     1  UNL1       -0.0380
     19  C         21.5050  -23.8620   -9.2060 C.3     1  UNL1        0.0500
     20  N         19.2190  -22.0000   -8.7300 N.pl3   1  UNL1       -0.2810
     21  H         19.8370  -21.1990   -8.6040 H       1  UNL1        0.1790
     22  C         18.2660  -22.3030   -7.7160 C.2     1  UNL1        0.0420
     23  C         16.8830  -22.2020   -7.8980 C.2     1  UNL1        0.0310
     24  C         16.0020  -22.5910   -6.8840 C.2     1  UNL1        0.0270
     25  C         16.5100  -23.0940   -5.6850 C.2     1  UNL1        0.0740
     26  C         17.8840  -23.2410   -5.5020 C.2     1  UNL1        0.0270
     27  C         18.7570  -22.8520   -6.5240 C.2     1  UNL1        0.0310
     28  S         15.3820  -23.5890   -4.4080 S.O2    1  UNL1        0.2390
     29  O         16.1180  -24.3330   -3.4120 O.2     1  UNL1       -0.2060
     30  O         14.1870  -24.0990   -5.0350 O.2     1  UNL1       -0.2060
     31  N         15.0140  -22.1130   -3.6890 N.3     1  UNL1       -0.2250
     32  H         15.5490  -21.3300   -4.0630 H       1  UNL1        0.1360
     33  H         15.1210  -22.1990   -2.6770 H       1  UNL1        0.1360
@<TRIPOS>BOND
     1    12    16    1
     2    12     9    1
     3    16    14    1
     4    10     7    1
     5     9     7   ar
     6     9    11   ar
     7    14    13    1
     8     7     6   ar
     9    11    13    1
    10    11     8   ar
    11    13    15    2
    12     6     5    1
    13     6     8   ar
    14     5     4    2
    15     8    17    1
    16     4    18    1
    17     4     1    1
    18    17    18    2
    19     2     1    2
    20    18    19    1
    21     3     1    2
    22     1    20    1
    23    20    21    1
    24    20    22    1
    25    23    22    2
    26    23    24    1
    27    22    27    1
    28    24    25    2
    29    27    26    2
    30    25    26    1
    31    25    28    1
    32    30    28    2
    33    28    31    1
    34    28    29    2
    35    32    31    1
    36    31    33    1
