@<TRIPOS>MOLECULE
19282_out_ligand_01.pdbqt
 37 41 0 0 0
SMALL
GASTEIGER

@<TRIPOS>ATOM
      1  C         18.0550  -24.9230   -7.2350 C.3     1  UNL1        0.1710
      2  C         19.2750  -24.1900   -7.7460 C.2     1  UNL1       -0.0400
      3  C         20.2090  -24.8480   -8.5600 C.2     1  UNL1        0.0100
      4  C         21.3510  -24.1820   -9.0090 C.2     1  UNL1        0.0170
      5  C         21.5740  -22.8450   -8.6620 C.2     1  UNL1        0.0320
      6  C         20.6450  -22.1800   -7.8520 C.2     1  UNL1        0.0170
      7  C         19.4990  -22.8460   -7.4070 C.2     1  UNL1        0.0100
      8  C         22.8170  -22.1860   -9.1510 C.2     1  UNL1        0.2520
      9  N         23.5510  -22.8820  -10.0940 N.am    1  UNL1       -0.3520
     10  H         23.3610  -23.8690  -10.2120 H       1  UNL1        0.1630
     11  O         23.1560  -21.0990   -8.6950 O.2     1  UNL1       -0.2680
     12  C         24.8600  -22.4030  -10.5330 C.3     1  UNL1        0.0880
     13  C         24.6700  -21.1480  -11.4010 C.3     1  UNL1        0.0250
     14  C         25.9220  -20.8280  -12.2020 C.3     1  UNL1        0.0020
     15  C         26.3030  -21.9610  -13.1570 C.3     1  UNL1        0.0050
     16  C         25.6850  -23.3170  -12.7760 C.3     1  UNL1       -0.0130
     17  C         26.3700  -24.4540  -13.5400 C.3     1  UNL1        0.0100
     18  C         25.6500  -23.5410  -11.2470 C.3     1  UNL1        0.0080
     19  C         27.0460  -23.6920  -10.6250 C.3     1  UNL1        0.0120
     20  N         17.0140  -24.0030   -6.8120 N.ar    1  UNL1       -0.3040
     21  C         16.0590  -23.3820   -7.5770 C.ar    1  UNL1        0.1710
     22  N         15.2460  -22.6390   -6.8580 N.ar    1  UNL1       -0.2210
     23  C         15.7020  -22.7630   -5.5730 C.ar    1  UNL1        0.1050
     24  C         15.2440  -22.2050   -4.3740 C.2     1  UNL1        0.0370
     25  C         16.8100  -23.6010   -5.5160 C.ar    1  UNL1        0.1610
     26  C         15.9410  -22.5350   -3.2090 C.2     1  UNL1        0.0220
     27  C         17.0380  -23.3870   -3.2910 C.2     1  UNL1        0.1190
     28  N         17.5180  -23.9560   -4.4240 N.2     1  UNL1       -0.2410
     29  S         15.9540  -23.5710   -9.2950 S.3     1  UNL1       -0.0870
     30  C         16.3020  -21.8690   -9.8260 C.3     1  UNL1        0.1210
     31  C         17.6420  -21.7750  -10.5120 C.2     1  UNL1       -0.0460
     32  C         18.3060  -22.9320  -10.9510 C.2     1  UNL1        0.0080
     33  C         19.5390  -22.8430  -11.6030 C.2     1  UNL1        0.0040
     34  C         20.1180  -21.5950  -11.8290 C.2     1  UNL1        0.0420
     35  C         19.4600  -20.4480  -11.4000 C.2     1  UNL1        0.1170
     36  F         20.0130  -19.2480  -11.6280 F       1  UNL1       -0.2060
     37  C         18.2330  -20.5250  -10.7490 C.2     1  UNL1        0.0500
@<TRIPOS>BOND
     1    17    16    1
     2    15    16    1
     3    15    14    1
     4    16    18    1
     5    14    13    1
     6    34    33    2
     7    34    35    1
     8    36    35    1
     9    33    32    1
    10    13    12    1
    11    35    37    2
    12    18    19    1
    13    18    12    1
    14    32    31    2
    15    37    31    1
    16    12     9    1
    17    31    30    1
    18    10     9    1
    19     9     8   am
    20    30    29    1
    21    29    21    1
    22     8    11    2
    23     8     5    1
    24     4     5    2
    25     4     3    1
    26     5     6    1
    27     3     2    2
    28     6     7    2
    29     2     7    1
    30     2     1    1
    31    21    22   ar
    32    21    20   ar
    33     1    20    1
    34    22    23   ar
    35    20    25   ar
    36    23    25   ar
    37    23    24    1
    38    25    28    1
    39    28    27    2
    40    24    26    2
    41    27    26    1
