@<TRIPOS>MOLECULE
19294_out_ligand_01.pdbqt
 34 37 0 0 0
SMALL
GASTEIGER

@<TRIPOS>ATOM
      1  N         20.9420  -23.2540   -9.7930 N.pl3   1  UNL1       -0.3310
      2  C         22.2460  -23.0820  -10.2220 C.2     1  UNL1        0.1130
      3  C         22.6490  -22.2640  -11.2050 C.2     1  UNL1        0.0810
      4  C         21.5890  -21.5400  -11.9510 C.2     1  UNL1        0.2010
      5  O         21.8460  -20.8310  -12.9170 O.2     1  UNL1       -0.2860
      6  C         20.1880  -21.7070  -11.5010 C.2     1  UNL1        0.0610
      7  C         19.1540  -21.0260  -12.1520 C.2     1  UNL1        0.0210
      8  C         17.8470  -21.1960  -11.7080 C.2     1  UNL1        0.0280
      9  C         17.6160  -22.0350  -10.6240 C.2     1  UNL1        0.0330
     10  C         16.2140  -22.2270  -10.1100 C.3     1  UNL1        0.0700
     11  N         18.6110  -22.7210   -9.9950 N.2     1  UNL1       -0.2350
     12  C         19.8920  -22.5580  -10.4290 C.2     1  UNL1        0.1440
     13  C         20.5570  -24.2760   -8.8070 C.3     1  UNL1        0.2330
     14  C         19.6380  -23.6860   -7.7290 C.2     1  UNL1        0.2400
     15  N         18.4390  -24.3750   -7.6240 N.am    1  UNL1       -0.3260
     16  H         18.4080  -25.2590   -8.1340 H       1  UNL1        0.1690
     17  O         19.9850  -22.7190   -7.0540 O.2     1  UNL1       -0.2710
     18  C         17.3500  -24.1000   -6.7760 C.2     1  UNL1        0.0360
     19  C         16.0320  -24.4640   -7.0540 C.2     1  UNL1        0.0290
     20  C         15.0100  -24.1470   -6.1540 C.2     1  UNL1        0.0040
     21  C         15.3030  -23.4810   -4.9590 C.2     1  UNL1        0.0180
     22  C         16.6180  -23.1260   -4.6600 C.2     1  UNL1        0.0020
     23  C         17.6330  -23.4200   -5.5800 C.2     1  UNL1        0.0480
     24  S         17.0570  -22.2620   -3.1530 S.3     1  UNL1       -0.1340
     25  C         18.4700  -21.2840   -3.7340 C.3     1  UNL1        0.0950
     26  C         24.1030  -22.2250  -11.5120 C.2     1  UNL1        0.1970
     27  O         24.9210  -21.9100  -10.6410 O.2     1  UNL1       -0.2860
     28  C         24.5930  -22.5450  -12.8810 C.2     1  UNL1        0.0150
     29  C         24.8810  -23.8900  -13.1780 C.2     1  UNL1        0.0180
     30  C         25.3620  -24.2420  -14.4400 C.2     1  UNL1        0.0430
     31  C         25.5640  -23.2520  -15.3950 C.2     1  UNL1        0.1160
     32  F         26.0020  -23.5910  -16.6120 F       1  UNL1       -0.2060
     33  C         25.3110  -21.9130  -15.1070 C.2     1  UNL1        0.0430
     34  C         24.8380  -21.5540  -13.8440 C.2     1  UNL1        0.0180
@<TRIPOS>BOND
     1    32    31    1
     2    31    33    2
     3    31    30    1
     4    33    34    1
     5    30    29    2
     6    34    28    2
     7    29    28    1
     8     5     4    2
     9    28    26    1
    10     7     8    1
    11     7     6    2
    12     4     6    1
    13     4     3    1
    14     8     9    2
    15    26     3    1
    16    26    27    2
    17     6    12    1
    18     3     2    2
    19     9    10    1
    20     9    11    1
    21    12    11    2
    22    12     1    1
    23     2     1    1
    24     1    13    1
    25    13    14    1
    26    16    15    1
    27    14    15   am
    28    14    17    2
    29    15    18    1
    30    19    18    2
    31    19    20    1
    32    18    23    1
    33    20    21    2
    34    23    22    2
    35    21    22    1
    36    22    24    1
    37    25    24    1
