@<TRIPOS>MOLECULE
19297_out_ligand_01.pdbqt
 32 35 0 0 0
SMALL
GASTEIGER

@<TRIPOS>ATOM
      1  C         19.8860  -22.6920   -9.9770 C.2     1  UNL1        0.0900
      2  C         18.6610  -22.0490  -10.2360 C.2     1  UNL1        0.0680
      3  C         18.5440  -21.2090  -11.3290 C.2     1  UNL1        0.1170
      4  F         17.3850  -20.5780  -11.5560 F       1  UNL1       -0.2060
      5  C         19.6170  -20.9940  -12.1750 C.2     1  UNL1        0.0430
      6  C         20.8250  -21.6530  -11.9400 C.2     1  UNL1        0.0130
      7  C         20.9870  -22.5380  -10.8510 C.2     1  UNL1       -0.0160
      8  S         19.9290  -23.6660   -8.4720 S.O2    1  UNL1        0.2630
      9  O         20.7520  -24.8270   -8.7450 O.2     1  UNL1       -0.2000
     10  O         20.1890  -22.8120   -7.3370 O.2     1  UNL1       -0.2000
     11  N         18.3420  -24.2370   -8.3500 N.pl3   1  UNL1       -0.2810
     12  H         17.9330  -24.4450   -9.2600 H       1  UNL1        0.1790
     13  C         17.4920  -23.7620   -7.3110 C.2     1  UNL1        0.0440
     14  C         16.3710  -23.0100   -7.6600 C.2     1  UNL1        0.0310
     15  C         15.5380  -22.4930   -6.6660 C.2     1  UNL1        0.0110
     16  C         15.8090  -22.7320   -5.3090 C.2     1  UNL1       -0.0400
     17  C         14.8900  -22.1710   -4.2620 C.3     1  UNL1        0.0500
     18  C         16.9310  -23.5070   -4.9740 C.2     1  UNL1        0.0420
     19  C         17.7660  -24.0220   -5.9700 C.2     1  UNL1        0.0540
     20 CL         17.3160  -23.8650   -3.3280 Cl      1  UNL1       -0.0840
     21  C         22.2970  -23.2810  -10.6370 C.3     1  UNL1        0.1760
     22  N         23.4920  -22.5760  -11.0630 N.am    1  UNL1       -0.2740
     23  C         24.1720  -22.8280  -12.2220 C.2     1  UNL1        0.2630
     24  O         23.9780  -23.6840  -13.0640 O.2     1  UNL1       -0.2670
     25  C         25.2500  -21.8520  -12.2980 C.2     1  UNL1        0.0670
     26  C         26.2370  -21.6350  -13.2350 C.2     1  UNL1        0.0210
     27  C         25.1710  -21.0520  -11.1830 C.2     1  UNL1        0.1400
     28  C         27.1210  -20.5830  -12.9810 C.2     1  UNL1        0.0200
     29  C         26.9650  -19.8220  -11.8140 C.2     1  UNL1        0.1170
     30  N         25.9970  -20.0320  -10.8880 N.2     1  UNL1       -0.2540
     31  C         24.0290  -21.5120  -10.3790 C.2     1  UNL1        0.2800
     32  O         23.6550  -21.0390   -9.3210 O.2     1  UNL1       -0.2650
@<TRIPOS>BOND
     1    26    28    1
     2    26    25    2
     3    24    23    2
     4    28    29    2
     5    25    23    1
     6    25    27    1
     7    23    22   am
     8     5     6    2
     9     5     3    1
    10     6     7    1
    11    29    30    1
    12     4     3    1
    13     3     2    2
    14    27    30    2
    15    27    31    1
    16    22    21    1
    17    22    31   am
    18     7    21    1
    19     7     1    2
    20    31    32    2
    21     2     1    1
    22     1     8    1
    23    12    11    1
    24     9     8    2
    25     8    11    1
    26     8    10    2
    27    11    13    1
    28    14    13    2
    29    14    15    1
    30    13    19    1
    31    15    16    2
    32    19    18    2
    33    16    18    1
    34    16    17    1
    35    18    20    1
