@<TRIPOS>MOLECULE
1929_out_ligand_01.pdbqt
 31 34 0 0 0
SMALL
GASTEIGER

@<TRIPOS>ATOM
      1  C         20.4920  -22.3110   -9.3840 C.2     1  UNL1        0.0340
      2  C         20.8480  -22.2970  -10.7420 C.2     1  UNL1        0.0300
      3  C         22.1910  -22.2310  -11.1310 C.2     1  UNL1        0.0190
      4  C         23.1970  -22.1840  -10.1610 C.2     1  UNL1        0.0320
      5  C         22.8450  -22.1880   -8.8070 C.2     1  UNL1        0.0190
      6  C         21.5010  -22.2550   -8.4240 C.2     1  UNL1        0.0300
      7  N         19.1160  -22.3580   -9.0830 N.am    1  UNL1       -0.3270
      8  C         18.4380  -23.3350   -8.3740 C.2     1  UNL1        0.2260
      9  O         18.9110  -24.3880   -7.9530 O.2     1  UNL1       -0.2730
     10  H         18.5700  -21.5450   -9.3630 H       1  UNL1        0.1690
     11  C         16.9570  -23.0270   -8.1730 C.3     1  UNL1        0.1420
     12  C         16.5090  -23.1080   -6.7220 C.2     1  UNL1       -0.0380
     13  C         15.3850  -23.9130   -6.4500 C.2     1  UNL1        0.0080
     14  C         14.9290  -24.0900   -5.1520 C.2     1  UNL1        0.0010
     15  C         15.5850  -23.4610   -4.0990 C.2     1  UNL1        0.0120
     16  C         16.7010  -22.6450   -4.3310 C.2     1  UNL1       -0.0250
     17  C         17.3460  -22.0300   -3.2430 C.2     1  UNL1        0.0120
     18  C         17.1820  -22.4490   -5.6530 C.2     1  UNL1       -0.0190
     19  C         18.4620  -21.2160   -3.4320 C.2     1  UNL1        0.0010
     20  C         18.9460  -21.0050   -4.7120 C.2     1  UNL1        0.0010
     21  C         18.3150  -21.6120   -5.8090 C.2     1  UNL1        0.0130
     22  C         24.6390  -22.0850  -10.5180 C.2     1  UNL1        0.2510
     23  O         25.1850  -20.9920  -10.5730 O.2     1  UNL1       -0.2680
     24  N         25.2980  -23.2740  -10.7510 N.am    1  UNL1       -0.3540
     25  H         24.8680  -24.1310  -10.4320 H       1  UNL1        0.1620
     26  C         26.7290  -23.2990  -11.0020 C.3     1  UNL1        0.1550
     27  C         27.1200  -23.6730  -12.4420 C.3     1  UNL1        0.1390
     28  C         26.9720  -22.5230  -13.4360 C.3     1  UNL1        0.0350
     29  C         25.6360  -22.7960  -14.0860 C.3     1  UNL1        0.0290
     30  C         25.6200  -24.3060  -14.1210 C.3     1  UNL1        0.1680
     31  O         26.2380  -24.7280  -12.8970 O.3     1  UNL1       -0.3840
@<TRIPOS>BOND
     1    30    29    1
     2    30    31    1
     3    29    28    1
     4    28    27    1
     5    31    27    1
     6    27    26    1
     7     3     2    1
     8     3     4    2
     9    26    24    1
    10    24    22   am
    11    24    25    1
    12     2     1    2
    13    23    22    2
    14    22     4    1
    15     4     5    1
    16     1     7    1
    17     1     6    1
    18    10     7    1
    19     7     8   am
    20     5     6    2
    21     8    11    1
    22     8     9    2
    23    11    12    1
    24    12    13    2
    25    12    18    1
    26    13    14    1
    27    21    18    1
    28    21    20    2
    29    18    16    2
    30    14    15    2
    31    20    19    1
    32    16    15    1
    33    16    17    1
    34    19    17    2
