@<TRIPOS>MOLECULE
19292_out_ligand_01.pdbqt
 32 35 0 0 0
SMALL
GASTEIGER

@<TRIPOS>ATOM
      1  C         23.7720  -21.4110  -13.7610 C.2     1  UNL1        0.2580
      2  O         22.6230  -21.3910  -14.1950 O.2     1  UNL1       -0.2670
      3  N         24.1720  -21.9180  -12.5350 N.am    1  UNL1       -0.3130
      4  C         25.5610  -22.1070  -12.0720 C.2     1  UNL1        0.1370
      5  C         25.5070  -22.8940  -10.7550 C.2     1  UNL1        0.0610
      6  C         24.0420  -22.9130  -10.4660 C.2     1  UNL1       -0.0300
      7  C         23.4140  -23.4160   -9.3380 C.2     1  UNL1        0.0100
      8  C         22.0200  -23.3750   -9.2810 C.2     1  UNL1        0.0090
      9  C         21.2640  -22.8410  -10.3460 C.2     1  UNL1       -0.0380
     10  C         21.9220  -22.3430  -11.4810 C.2     1  UNL1        0.0390
     11  C         23.3070  -22.3780  -11.5240 C.2     1  UNL1        0.0440
     12  C         19.7560  -22.8390  -10.2800 C.3     1  UNL1        0.1630
     13  N         19.2960  -23.4300   -9.0410 N.am    1  UNL1       -0.3390
     14  C         18.1470  -22.9730   -8.4270 C.2     1  UNL1        0.3210
     15  O         17.4190  -22.1350   -8.9420 O.2     1  UNL1       -0.2470
     16  N         17.9620  -23.6000   -7.2140 N.am    1  UNL1       -0.3080
     17  H         18.5880  -24.3680   -7.0390 H       1  UNL1        0.1700
     18  H         20.0230  -23.7790   -8.4370 H       1  UNL1        0.1640
     19  C         16.9470  -23.3690   -6.2550 C.2     1  UNL1        0.0420
     20  C         15.7070  -24.0190   -6.3040 C.2     1  UNL1        0.0300
     21  C         14.7190  -23.7640   -5.3490 C.2     1  UNL1        0.0020
     22  C         14.9550  -22.8490   -4.3310 C.2     1  UNL1        0.0010
     23  C         16.1810  -22.1890   -4.2670 C.2     1  UNL1        0.0090
     24  C         17.1870  -22.4380   -5.2200 C.2     1  UNL1       -0.0350
     25  C         18.4880  -21.6880   -5.0920 C.3     1  UNL1        0.0500
     26  C         24.8230  -20.8630  -14.6490 C.2     1  UNL1        0.0330
     27  C         25.2550  -21.6320  -15.7330 C.2     1  UNL1        0.0170
     28  C         26.2330  -21.1270  -16.5890 C.2     1  UNL1        0.0020
     29  C         26.7620  -19.8520  -16.3710 C.2     1  UNL1        0.0070
     30  C         26.3060  -19.0590  -15.3080 C.2     1  UNL1       -0.0610
     31  C         26.8880  -17.6950  -15.0820 C.3     1  UNL1        0.0480
     32  C         25.3300  -19.5740  -14.4450 C.2     1  UNL1        0.0230
@<TRIPOS>BOND
     1    28    29    2
     2    28    27    1
     3    29    30    1
     4    27    26    2
     5    30    31    1
     6    30    32    2
     7    26    32    1
     8    26     1    1
     9     2     1    2
    10     1     3   am
    11     3     4    1
    12     3    11    1
    13     4     5    2
    14    11    10    1
    15    11     6    2
    16    10     9    2
    17     5     6    1
    18     6     7    1
    19     9    12    1
    20     9     8    1
    21    12    13    1
    22     7     8    2
    23    13    18    1
    24    13    14   am
    25    15    14    2
    26    14    16   am
    27    16    17    1
    28    16    19    1
    29    20    19    2
    30    20    21    1
    31    19    24    1
    32    21    22    2
    33    24    25    1
    34    24    23    2
    35    22    23    1
