@<TRIPOS>MOLECULE
19318_out_ligand_01.pdbqt
 32 35 0 0 0
SMALL
GASTEIGER

@<TRIPOS>ATOM
      1  C         23.3390  -22.7610   -9.2450 C.2     1  UNL1       -0.0400
      2  C         22.9760  -21.7250   -8.3570 C.2     1  UNL1        0.0110
      3  C         21.7440  -21.7370   -7.6940 C.2     1  UNL1        0.0310
      4  C         20.8790  -22.7910   -7.9270 C.2     1  UNL1        0.0430
      5  C         21.2300  -23.8190   -8.8030 C.2     1  UNL1       -0.0290
      6  C         22.4470  -23.8180   -9.4710 C.2     1  UNL1        0.0180
      7  C         20.1370  -24.8330   -8.9210 C.2     1  UNL1        0.0610
      8  C         19.1000  -24.3060   -7.9210 C.2     1  UNL1        0.1370
      9  N         19.5990  -23.0230   -7.3900 N.am    1  UNL1       -0.3130
     10  C         18.9160  -22.1660   -6.5430 C.2     1  UNL1        0.2580
     11  O         19.2920  -21.0680   -6.1450 O.2     1  UNL1       -0.2670
     12  C         24.6640  -22.7000   -9.9630 C.3     1  UNL1        0.1610
     13  N         24.4940  -23.0070  -11.3630 N.am    1  UNL1       -0.3530
     14  C         25.5380  -23.0500  -12.2520 C.2     1  UNL1        0.2540
     15  O         26.7110  -22.9130  -11.9110 O.2     1  UNL1       -0.2680
     16  H         23.5500  -23.0760  -11.7280 H       1  UNL1        0.1630
     17  C         25.1940  -23.2380  -13.6960 C.2     1  UNL1        0.0650
     18  C         25.5370  -24.4740  -14.2720 C.2     1  UNL1        0.0200
     19  C         25.2820  -24.7300  -15.6210 C.2     1  UNL1        0.0010
     20  C         24.6880  -23.7510  -16.4130 C.2     1  UNL1        0.0030
     21  C         24.3360  -22.5220  -15.8530 C.2     1  UNL1        0.0380
     22  C         24.5550  -22.2720  -14.4930 C.2     1  UNL1        0.0840
     23  O         24.2080  -21.0530  -13.9620 O.2     1  UNL1       -0.3500
     24  C         22.8110  -20.7480  -14.0930 C.3     1  UNL1        0.1710
     25  C         22.0050  -21.3780  -12.9670 C.3     1  UNL1        0.0340
     26  C         17.5850  -22.6120   -6.0840 C.2     1  UNL1        0.0320
     27  C         17.4620  -23.3380   -4.8940 C.2     1  UNL1        0.0200
     28  C         16.1960  -23.7450   -4.4690 C.2     1  UNL1        0.0430
     29  C         15.0770  -23.4150   -5.2310 C.2     1  UNL1        0.1160
     30  F         13.8660  -23.8130   -4.8230 F       1  UNL1       -0.2060
     31  C         15.1950  -22.6770   -6.4060 C.2     1  UNL1        0.0430
     32  C         16.4570  -22.2630   -6.8340 C.2     1  UNL1        0.0200
@<TRIPOS>BOND
     1    20    21    2
     2    20    19    1
     3    21    22    1
     4    19    18    2
     5    22    23    1
     6    22    17    2
     7    18    17    1
     8    24    23    1
     9    24    25    1
    10    17    14    1
    11    14    15    2
    12    14    13   am
    13    16    13    1
    14    13    12    1
    15    12     1    1
    16     6     1    2
    17     6     5    1
    18     1     2    1
    19     7     5    1
    20     7     8    2
    21     5     4    2
    22     2     3    2
    23     4     3    1
    24     4     9    1
    25     8     9    1
    26     9    10   am
    27    32    31    1
    28    32    26    2
    29    10    11    2
    30    10    26    1
    31    31    29    2
    32    26    27    1
    33    29    30    1
    34    29    28    1
    35    27    28    2
