@<TRIPOS>MOLECULE
19326_out_ligand_01.pdbqt
 33 36 0 0 0
SMALL
GASTEIGER

@<TRIPOS>ATOM
      1  C         15.7290  -23.3470   -9.6930 C.3     1  UNL1        0.0330
      2  C         16.5900  -22.1360   -9.3090 C.3     1  UNL1        0.0930
      3  C         16.9440  -21.3140  -10.5660 C.3     1  UNL1        0.0660
      4  C         18.3690  -21.7010  -10.7940 C.2     1  UNL1       -0.0290
      5  C         19.1510  -21.4210  -11.9020 C.2     1  UNL1        0.0100
      6  C         20.4900  -21.8160  -11.8870 C.2     1  UNL1        0.0090
      7  C         21.0500  -22.4480  -10.7550 C.2     1  UNL1       -0.0380
      8  C         20.2310  -22.7220   -9.6450 C.2     1  UNL1        0.0390
      9  C         18.8930  -22.3620   -9.6820 C.2     1  UNL1        0.0440
     10  N         17.8870  -22.5570   -8.7090 N.am    1  UNL1       -0.3090
     11  C         18.0800  -23.1950   -7.4890 C.2     1  UNL1        0.2580
     12  O         19.1000  -23.7810   -7.1290 O.2     1  UNL1       -0.2670
     13  C         22.4950  -22.8820  -10.7410 C.3     1  UNL1        0.1610
     14  N         23.3910  -21.8710  -11.2680 N.am    1  UNL1       -0.3530
     15  C         24.5650  -22.2020  -11.9010 C.2     1  UNL1        0.2520
     16  O         24.9430  -23.3490  -12.1060 O.2     1  UNL1       -0.2680
     17  H         23.1320  -20.9050  -11.1210 H       1  UNL1        0.1630
     18  C         25.3720  -21.0720  -12.4310 C.2     1  UNL1        0.0470
     19  C         26.3020  -20.5090  -11.5390 C.2     1  UNL1        0.0180
     20  C         27.1200  -19.4530  -11.9420 C.2     1  UNL1        0.0010
     21  C         27.0110  -18.9460  -13.2340 C.2     1  UNL1        0.0010
     22  C         26.0720  -19.4830  -14.1170 C.2     1  UNL1        0.0170
     23  C         25.2290  -20.5440  -13.7270 C.2     1  UNL1        0.0630
     24  C         24.1990  -21.0660  -14.6880 C.3     1  UNL1        0.4180
     25  F         22.9140  -20.8420  -14.2800 F       1  UNL1       -0.1660
     26  F         24.2970  -20.4610  -15.9090 F       1  UNL1       -0.1660
     27  F         24.2860  -22.4040  -14.9040 F       1  UNL1       -0.1660
     28  C         16.9610  -23.1830   -6.5230 C.2     1  UNL1        0.0320
     29  C         16.8590  -22.1680   -5.5630 C.2     1  UNL1        0.0170
     30  C         15.8040  -22.1890   -4.6500 C.2     1  UNL1        0.0010
     31  C         14.8750  -23.2310   -4.6780 C.2     1  UNL1        0.0000
     32  C         14.9950  -24.2570   -5.6180 C.2     1  UNL1        0.0010
     33  C         16.0390  -24.2360   -6.5430 C.2     1  UNL1        0.0170
@<TRIPOS>BOND
     1    26    24    1
     2    27    24    1
     3    24    25    1
     4    24    23    1
     5    22    23    1
     6    22    21    2
     7    23    18    2
     8    21    20    1
     9    18    15    1
    10    18    19    1
    11    16    15    2
    12    20    19    2
    13     5     6    1
    14     5     4    2
    15    15    14   am
    16     6     7    2
    17    14    17    1
    18    14    13    1
    19     4     3    1
    20     4     9    1
    21     7    13    1
    22     7     8    1
    23     3     2    1
    24     1     2    1
    25     9     8    2
    26     9    10    1
    27     2    10    1
    28    10    11   am
    29    11    12    2
    30    11    28    1
    31    33    28    2
    32    33    32    1
    33    28    29    1
    34    32    31    2
    35    29    30    2
    36    31    30    1
