@<TRIPOS>MOLECULE
19343_out_ligand_01.pdbqt
 33 36 0 0 0
SMALL
GASTEIGER

@<TRIPOS>ATOM
      1  C         19.9200  -23.2730   -8.3490 C.2     1  UNL1        0.2580
      2  O         20.9120  -23.9810   -8.2000 O.2     1  UNL1       -0.2670
      3  N         19.6210  -22.5120   -9.4710 N.am    1  UNL1       -0.3090
      4  C         20.5130  -22.2710  -10.5390 C.2     1  UNL1        0.0440
      5  C         21.8170  -22.7110  -10.7050 C.2     1  UNL1        0.0390
      6  C         22.5320  -22.3130  -11.8490 C.2     1  UNL1       -0.0380
      7  C         21.9170  -21.4640  -12.7910 C.2     1  UNL1        0.0090
      8  C         20.6050  -21.0230  -12.6150 C.2     1  UNL1        0.0100
      9  C         19.9180  -21.4410  -11.4870 C.2     1  UNL1       -0.0290
     10  C         18.5470  -21.0250  -11.0650 C.3     1  UNL1        0.0660
     11  C         18.2970  -21.9370   -9.8430 C.3     1  UNL1        0.0930
     12  C         17.2930  -23.0400  -10.1880 C.3     1  UNL1        0.0330
     13  C         23.9640  -22.7490  -12.0390 C.3     1  UNL1        0.1610
     14  N         24.5760  -22.0830  -13.1640 N.am    1  UNL1       -0.3530
     15  C         25.5140  -21.0890  -13.0300 C.2     1  UNL1        0.2540
     16  O         25.9100  -20.7100  -11.9330 O.2     1  UNL1       -0.2680
     17  H         24.2610  -22.3270  -14.0970 H       1  UNL1        0.1630
     18  C         26.0510  -20.4620  -14.2850 C.2     1  UNL1        0.0650
     19  C         26.1680  -19.0590  -14.2680 C.2     1  UNL1        0.0200
     20  C         26.6540  -18.3630  -15.3750 C.2     1  UNL1        0.0010
     21  C         27.0320  -19.0610  -16.5130 C.2     1  UNL1        0.0030
     22  C         26.9260  -20.4540  -16.5470 C.2     1  UNL1        0.0380
     23  C         26.4420  -21.1700  -15.4410 C.2     1  UNL1        0.0840
     24  O         26.3110  -22.5380  -15.4340 O.2     1  UNL1       -0.3550
     25  C         25.5270  -23.1380  -16.4640 C.3     1  UNL1        0.2100
     26  C         18.9670  -23.2400   -7.2160 C.2     1  UNL1        0.0320
     27  C         18.9400  -22.1150   -6.3850 C.2     1  UNL1        0.0200
     28  C         18.0300  -22.0490   -5.3250 C.2     1  UNL1        0.0380
     29  C         17.1320  -23.0970   -5.1080 C.2     1  UNL1        0.0680
     30  C         17.1530  -24.2110   -5.9540 C.2     1  UNL1        0.0380
     31  C         18.0570  -24.2800   -7.0160 C.2     1  UNL1        0.0200
     32  O         16.2030  -23.1550   -4.1040 O.2     1  UNL1       -0.3560
     33  C         15.0450  -22.3450   -4.2710 C.3     1  UNL1        0.2100
@<TRIPOS>BOND
     1    22    21    2
     2    22    23    1
     3    21    20    1
     4    25    24    1
     5    23    24    1
     6    23    18    2
     7    20    19    2
     8    18    19    1
     9    18    15    1
    10    17    14    1
    11    14    15   am
    12    14    13    1
    13    15    16    2
    14     7     8    2
    15     7     6    1
    16     8     9    1
    17    13     6    1
    18     6     5    2
    19     9    10    1
    20     9     4    2
    21    10    11    1
    22     5     4    1
    23     4     3    1
    24    12    11    1
    25    11     3    1
    26     3     1   am
    27     1     2    2
    28     1    26    1
    29    26    31    2
    30    26    27    1
    31    31    30    1
    32    27    28    2
    33    30    29    2
    34    28    29    1
    35    29    32    1
    36    33    32    1
