@<TRIPOS>MOLECULE
19348_out_ligand_01.pdbqt
 34 37 0 0 0
SMALL
GASTEIGER

@<TRIPOS>ATOM
      1  C         23.1200  -22.8340  -10.2690 C.2     1  UNL1        0.0970
      2  C         23.2930  -23.9500   -9.4070 C.2     1  UNL1        0.1600
      3  N         22.1470  -24.4330   -8.9130 N.2     1  UNL1       -0.1810
      4  N         21.2180  -23.6090   -9.4460 N.pl3   1  UNL1       -0.2410
      5  C         21.7490  -22.6670  -10.2900 C.2     1  UNL1        0.1430
      6  N         20.9150  -21.8230  -10.9390 N.pl3   1  UNL1       -0.3350
      7  CA        19.5320  -21.9140  -10.8540 C.3     1  UNL1        0.1060
      8  C         18.9470  -22.8180  -10.0440 C.2     1  UNL1        0.0410
      9  C         19.7730  -23.7590   -9.1840 C.2     1  UNL1        0.1600
     10  H         21.2700  -21.1340  -11.6120 H       1  UNL1        0.1680
     11  C         24.0840  -22.0300  -11.0130 C.2     1  UNL1        0.2610
     12  N         24.2650  -22.4370  -12.3250 N.am    1  UNL1       -0.3220
     13  H         23.7790  -23.2730  -12.6020 H       1  UNL1        0.1690
     14  O         24.6670  -21.0990  -10.4660 O.2     1  UNL1       -0.2670
     15  C         25.0840  -21.8510  -13.3210 C.2     1  UNL1        0.0410
     16  C         25.0670  -20.4770  -13.5910 C.2     1  UNL1        0.0300
     17  C         25.8740  -19.9250  -14.5910 C.2     1  UNL1        0.0020
     18  C         26.7090  -20.7400  -15.3410 C.2     1  UNL1        0.0010
     19  C         26.7410  -22.1090  -15.0890 C.2     1  UNL1        0.0090
     20  C         25.9410  -22.6830  -14.0810 C.2     1  UNL1       -0.0320
     21  C         26.0420  -24.1810  -13.8870 C.3     1  UNL1        0.0360
     22  C         25.4830  -24.9530  -15.0750 C.3     1  UNL1        0.0100
     23  C         19.4570  -23.5280   -7.7240 C.2     1  UNL1        0.0050
     24  C         18.7210  -22.5000   -7.2660 C.2     1  UNL1        0.0100
     25  C         18.4070  -22.2850   -5.8480 C.2     1  UNL1       -0.0360
     26  C         18.8200  -21.1390   -5.1550 C.2     1  UNL1        0.0110
     27  C         18.4740  -20.9560   -3.8140 C.2     1  UNL1        0.0010
     28  C         17.7020  -21.9110   -3.1540 C.2     1  UNL1        0.0000
     29  C         17.2730  -23.0470   -3.8360 C.2     1  UNL1        0.0010
     30  C         17.6190  -23.2310   -5.1780 C.2     1  UNL1        0.0110
     31  C         18.7310  -20.9780  -11.6990 C.2     1  UNL1        0.1930
     32  O         17.5130  -20.9260  -11.7130 O.2     1  UNL1       -0.6450
     33  OXT       19.4710  -20.1660  -12.4720 O.3     1  UNL1       -0.7720
     34  HXT       19.9230  -19.5850  -11.8240 H       1  UNL1        0.1670
@<TRIPOS>BOND
     1    18    19    2
     2    18    17    1
     3    19    20    1
     4    22    21    1
     5    17    16    2
     6    20    21    1
     7    20    15    2
     8    16    15    1
     9    15    12    1
    10    13    12    1
    11    33    34    1
    12    33    31    1
    13    12    11   am
    14    32    31    2
    15    31     7    1
    16    10     6    1
    17    11    14    2
    18    11     1    1
    19     6     7    1
    20     6     5    1
    21     7     8    1
    22     5     1    2
    23     5     4    1
    24     1     2    1
    25     8     9    2
    26     4     9    1
    27     4     3    1
    28     2     3    2
    29     9    23    1
    30    23    24    2
    31    24    25    1
    32    25    30    2
    33    25    26    1
    34    30    29    1
    35    26    27    2
    36    29    28    2
    37    27    28    1
