@<TRIPOS>MOLECULE
19347_out_ligand_01.pdbqt
 32 35 0 0 0
SMALL
GASTEIGER

@<TRIPOS>ATOM
      1  C         22.3720  -23.2220   -8.9510 C.2     1  UNL1       -0.0400
      2  C         21.3900  -24.2140   -9.1550 C.2     1  UNL1        0.0110
      3  C         20.1570  -24.1600   -8.4950 C.2     1  UNL1        0.0310
      4  C         19.9120  -23.1040   -7.6360 C.2     1  UNL1        0.0430
      5  C         20.8750  -22.1150   -7.4320 C.2     1  UNL1       -0.0290
      6  C         22.1040  -22.1570   -8.0780 C.2     1  UNL1        0.0180
      7  C         20.4110  -21.0980   -6.4410 C.2     1  UNL1        0.0610
      8  C         18.9740  -21.5550   -6.1610 C.2     1  UNL1        0.1370
      9  N         18.7630  -22.8290   -6.8730 N.am    1  UNL1       -0.3130
     10  C         17.6490  -23.6470   -6.7760 C.2     1  UNL1        0.2580
     11  O         17.5060  -24.7520   -7.2890 O.2     1  UNL1       -0.2670
     12  C         23.6860  -23.2980   -9.6900 C.3     1  UNL1        0.1620
     13  N         23.4770  -23.2740  -11.1220 N.am    1  UNL1       -0.3390
     14  C         24.3330  -22.5680  -11.9460 C.2     1  UNL1        0.3210
     15  N         23.9850  -22.7520  -13.2680 N.am    1  UNL1       -0.3080
     16  O         25.2390  -21.8710  -11.5130 O.2     1  UNL1       -0.2470
     17  H         23.0730  -23.1520  -13.4070 H       1  UNL1        0.1700
     18  H         23.1010  -24.1230  -11.5160 H       1  UNL1        0.1640
     19  C         24.6580  -22.2840  -14.4190 C.2     1  UNL1        0.0420
     20  C         24.5860  -20.9500  -14.8340 C.2     1  UNL1        0.0300
     21  C         25.2720  -20.5090  -15.9690 C.2     1  UNL1        0.0090
     22  C         26.0600  -21.3900  -16.7080 C.2     1  UNL1       -0.0610
     23  C         26.7690  -20.9250  -17.9450 C.3     1  UNL1        0.0480
     24  C         26.1330  -22.7280  -16.3050 C.2     1  UNL1        0.0150
     25  C         25.4480  -23.1870  -15.1640 C.2     1  UNL1       -0.0350
     26  C         25.5820  -24.6380  -14.7890 C.3     1  UNL1        0.0500
     27  C         16.5290  -23.1520   -5.9480 C.2     1  UNL1        0.0320
     28  C         15.4510  -22.4930   -6.5460 C.2     1  UNL1        0.0170
     29  C         14.3990  -22.0380   -5.7510 C.2     1  UNL1        0.0010
     30  C         14.4230  -22.2540   -4.3710 C.2     1  UNL1        0.0000
     31  C         15.4940  -22.9310   -3.7820 C.2     1  UNL1        0.0010
     32  C         16.5480  -23.3880   -4.5720 C.2     1  UNL1        0.0170
@<TRIPOS>BOND
     1    23    22    1
     2    22    24    2
     3    22    21    1
     4    24    25    1
     5    21    20    2
     6    25    26    1
     7    25    19    2
     8    20    19    1
     9    19    15    1
    10    17    15    1
    11    15    14   am
    12    14    16    2
    13    14    13   am
    14    18    13    1
    15    13    12    1
    16    12     1    1
    17     2     1    2
    18     2     3    1
    19     1     6    1
    20     3     4    2
    21     6     5    2
    22     4     5    1
    23     4     9    1
    24     5     7    1
    25    11    10    2
    26     9    10   am
    27     9     8    1
    28    10    27    1
    29    28    27    2
    30    28    29    1
    31     7     8    2
    32    27    32    1
    33    29    30    2
    34    32    31    2
    35    30    31    1
