@<TRIPOS>MOLECULE
19340_out_ligand_01.pdbqt
 32 35 0 0 0
SMALL
GASTEIGER

@<TRIPOS>ATOM
      1  C         20.2540  -22.3090  -10.7150 C.2     1  UNL1        0.0320
      2  C         20.0430  -21.4240  -11.7770 C.2     1  UNL1        0.0190
      3  C         21.0820  -21.1490  -12.6740 C.2     1  UNL1        0.0300
      4  C         22.3390  -21.7500  -12.5230 C.2     1  UNL1        0.0360
      5  C         22.5360  -22.6500  -11.4740 C.2     1  UNL1        0.0300
      6  C         21.4980  -22.9310  -10.5770 C.2     1  UNL1        0.0190
      7  N         23.3250  -21.4280  -13.4740 N.am    1  UNL1       -0.3090
      8  C         24.6580  -21.1440  -13.2530 C.2     1  UNL1        0.3270
      9  O         25.1510  -20.9650  -12.1420 O.2     1  UNL1       -0.2460
     10  N         25.4020  -20.9540  -14.4290 N.am    1  UNL1       -0.2980
     11  C         26.6130  -20.1360  -14.3340 C.3     1  UNL1        0.1440
     12  C         25.1680  -21.5950  -15.6920 C.2     1  UNL1        0.0550
     13  C         26.5580  -18.9620  -15.2940 C.3     1  UNL1        0.1000
     14  S         26.6090  -19.5260  -17.0170 S.3     1  UNL1       -0.1260
     15  C         25.6690  -21.0490  -16.8950 C.2     1  UNL1        0.0270
     16  C         25.4320  -21.7100  -18.1130 C.2     1  UNL1        0.0210
     17  C         24.7240  -22.9090  -18.1530 C.2     1  UNL1        0.0020
     18  C         24.2560  -23.4690  -16.9720 C.2     1  UNL1        0.0020
     19  C         24.4850  -22.8240  -15.7550 C.2     1  UNL1        0.0310
     20  H         23.0040  -21.2270  -14.4110 H       1  UNL1        0.1700
     21  C         19.1800  -22.6400   -9.7380 C.2     1  UNL1        0.2510
     22  O         18.0350  -22.2470   -9.9260 O.2     1  UNL1       -0.2680
     23  N         19.5550  -23.4220   -8.6660 N.am    1  UNL1       -0.3530
     24  H         20.4390  -23.9070   -8.7070 H       1  UNL1        0.1630
     25  C         18.5770  -23.9290   -7.7300 C.3     1  UNL1        0.1610
     26  C         18.5180  -23.0640   -6.4960 C.2     1  UNL1       -0.0400
     27  C         17.7340  -23.4370   -5.3930 C.2     1  UNL1        0.0120
     28  C         17.6690  -22.6180   -4.2640 C.2     1  UNL1        0.0430
     29  C         18.3830  -21.4260   -4.2390 C.2     1  UNL1        0.1160
     30  F         18.3170  -20.6430   -3.1550 F       1  UNL1       -0.2060
     31  C         19.1590  -21.0340   -5.3230 C.2     1  UNL1        0.0430
     32  C         19.2250  -21.8510   -6.4520 C.2     1  UNL1        0.0120
@<TRIPOS>BOND
     1    17    16    2
     2    17    18    1
     3    16    15    1
     4    14    15    1
     5    14    13    1
     6    18    19    2
     7    15    12    2
     8    19    12    1
     9    12    10    1
    10    13    11    1
    11    10    11    1
    12    10     8   am
    13    20     7    1
    14     7     8   am
    15     7     4    1
    16     8     9    2
    17     3     4    2
    18     3     2    1
    19     4     5    1
    20     2     1    2
    21     5     6    2
    22     1     6    1
    23     1    21    1
    24    22    21    2
    25    21    23   am
    26    24    23    1
    27    23    25    1
    28    25    26    1
    29    26    32    2
    30    26    27    1
    31    32    31    1
    32    27    28    2
    33    31    29    2
    34    28    29    1
    35    29    30    1
