@<TRIPOS>MOLECULE
19356_out_ligand_01.pdbqt
 30 33 0 0 0
SMALL
GASTEIGER

@<TRIPOS>ATOM
      1  C         18.6320  -22.9220   -9.2660 C.2     1  UNL1        0.2580
      2  O         18.2360  -23.0230  -10.4230 O.2     1  UNL1       -0.2670
      3  N         19.9130  -22.5830   -8.8610 N.am    1  UNL1       -0.3130
      4  C         20.3550  -22.3360   -7.4740 C.2     1  UNL1        0.1370
      5  C         21.7880  -21.7960   -7.5350 C.2     1  UNL1        0.0610
      6  C         22.1170  -21.9450   -8.9840 C.2     1  UNL1       -0.0290
      7  C         23.3300  -21.6700   -9.6030 C.2     1  UNL1        0.0180
      8  C         23.4350  -21.8450  -10.9900 C.2     1  UNL1       -0.0400
      9  C         22.3070  -22.2690  -11.7240 C.2     1  UNL1        0.0110
     10  C         21.0900  -22.5360  -11.0880 C.2     1  UNL1        0.0310
     11  C         21.0100  -22.3720   -9.7160 C.2     1  UNL1        0.0430
     12  C         24.7230  -21.5240  -11.7000 C.3     1  UNL1        0.1610
     13  N         24.5430  -21.5920  -13.1310 N.am    1  UNL1       -0.3530
     14  C         25.6080  -21.8360  -13.9640 C.2     1  UNL1        0.2530
     15  O         26.7730  -21.8620  -13.5830 O.2     1  UNL1       -0.2680
     16  H         23.6000  -21.6910  -13.4840 H       1  UNL1        0.1630
     17  C         25.2970  -22.0070  -15.4060 C.2     1  UNL1        0.0490
     18  C         25.2340  -20.8260  -16.1650 C.2     1  UNL1        0.0180
     19  C         24.9340  -20.8700  -17.5270 C.2     1  UNL1        0.0010
     20  C         24.7030  -22.0960  -18.1470 C.2     1  UNL1        0.0010
     21  C         24.7830  -23.2770  -17.4070 C.2     1  UNL1        0.0200
     22  C         25.0850  -23.2400  -16.0380 C.2     1  UNL1        0.0260
     23 BR         25.2450  -24.9180  -15.1600 Br      1  UNL1       -0.0500
     24  C         17.6360  -23.1570   -8.2010 C.2     1  UNL1        0.0320
     25  C         16.6280  -22.2200   -7.9580 C.2     1  UNL1        0.0170
     26  C         15.7000  -22.4550   -6.9420 C.2     1  UNL1        0.0070
     27  C         15.7770  -23.6210   -6.1660 C.2     1  UNL1       -0.0620
     28  C         14.8030  -23.8500   -5.0470 C.3     1  UNL1        0.0480
     29  C         16.8160  -24.5340   -6.3980 C.2     1  UNL1        0.0070
     30  C         17.7450  -24.3050   -7.4130 C.2     1  UNL1        0.0170
@<TRIPOS>BOND
     1    20    19    2
     2    20    21    1
     3    19    18    1
     4    21    22    2
     5    18    17    2
     6    22    17    1
     7    22    23    1
     8    17    14    1
     9    14    15    2
    10    14    13   am
    11    16    13    1
    12    13    12    1
    13     9    10    2
    14     9     8    1
    15    12     8    1
    16    10    11    1
    17     8     7    2
    18     2     1    2
    19    11     6    2
    20    11     3    1
    21     7     6    1
    22     1     3   am
    23     1    24    1
    24     6     5    1
    25     3     4    1
    26    24    25    2
    27    24    30    1
    28    25    26    1
    29     5     4    2
    30    30    29    2
    31    26    27    2
    32    29    27    1
    33    27    28    1
