@<TRIPOS>MOLECULE
19359_out_ligand_01.pdbqt
 39 43 0 0 0
SMALL
GASTEIGER

@<TRIPOS>ATOM
      1  C         22.2100  -21.6870   -7.9860 C.3     1  UNL1        0.1930
      2  C         23.1530  -22.2930   -8.9660 C.2     1  UNL1        0.0720
      3  C         23.8150  -23.4970   -9.0410 C.2     1  UNL1        0.0370
      4  C         24.5720  -23.4640  -10.2400 C.2     1  UNL1        0.0450
      5  C         24.3140  -22.2460  -10.8480 C.2     1  UNL1        0.1430
      6  O         23.4510  -21.5330  -10.0580 O.2     1  UNL1       -0.3080
      7  C         24.7440  -21.6380  -12.0940 C.2     1  UNL1        0.2760
      8  O         23.9880  -21.0300  -12.8490 O.2     1  UNL1       -0.2650
      9  N         26.0840  -21.7950  -12.3890 N.am    1  UNL1       -0.3470
     10  H         26.6690  -22.3490  -11.7830 H       1  UNL1        0.1630
     11  C         26.6310  -21.4270  -13.6880 C.3     1  UNL1        0.1180
     12  C         26.5960  -19.8960  -13.8180 C.3     1  UNL1        0.0300
     13  C         26.8160  -19.4510  -15.2550 C.3     1  UNL1        0.0070
     14  C         25.7000  -19.9870  -16.1470 C.3     1  UNL1        0.0390
     15  C         25.4700  -21.4680  -15.9670 C.2     1  UNL1       -0.0500
     16  C         24.8060  -22.1790  -16.9810 C.2     1  UNL1        0.0070
     17  C         25.8860  -22.1410  -14.8040 C.2     1  UNL1       -0.0290
     18  C         24.6010  -23.5560  -16.8710 C.2     1  UNL1        0.0010
     19  C         25.0550  -24.2360  -15.7470 C.2     1  UNL1        0.0010
     20  C         25.6920  -23.5340  -14.7220 C.2     1  UNL1        0.0100
     21  N         20.9410  -22.4160   -7.9610 N.am    1  UNL1       -0.3240
     22  C         20.0220  -22.0740   -6.9680 C.2     1  UNL1        0.3230
     23  O         20.2330  -21.1400   -6.1940 O.2     1  UNL1       -0.2470
     24  N         18.9060  -22.8820   -6.9280 N.am    1  UNL1       -0.3090
     25  H         19.0630  -23.8190   -7.2610 H       1  UNL1        0.1700
     26  C         20.5990  -23.1830   -9.1630 C.3     1  UNL1        0.1660
     27  C         19.6820  -22.4570  -10.1220 C.2     1  UNL1       -0.0400
     28  C         18.3060  -22.7380  -10.1100 C.2     1  UNL1        0.0090
     29  C         17.4370  -22.0700  -10.9760 C.2     1  UNL1        0.0010
     30  C         17.9290  -21.1090  -11.8550 C.2     1  UNL1        0.0000
     31  C         19.2920  -20.8130  -11.8690 C.2     1  UNL1        0.0010
     32  C         20.1620  -21.4790  -11.0040 C.2     1  UNL1        0.0090
     33  C         17.7550  -22.7040   -6.1330 C.2     1  UNL1        0.0360
     34  C         17.7730  -22.7100   -4.7340 C.2     1  UNL1        0.0320
     35  C         16.5920  -22.5160   -4.0120 C.2     1  UNL1        0.0440
     36  C         15.3970  -22.3080   -4.6890 C.2     1  UNL1        0.1160
     37  F         14.2650  -22.1320   -3.9920 F       1  UNL1       -0.2060
     38  C         15.3600  -22.2960   -6.0770 C.2     1  UNL1        0.0440
     39  C         16.5410  -22.4850   -6.8010 C.2     1  UNL1        0.0320
@<TRIPOS>BOND
     1    16    18    1
     2    16    15    2
     3    18    19    2
     4    14    15    1
     5    14    13    1
     6    15    17    1
     7    19    20    1
     8    13    12    1
     9    17    20    2
    10    17    11    1
    11    12    11    1
    12    11     9    1
    13     8     7    2
    14     9     7   am
    15     9    10    1
    16     7     5    1
    17    31    30    2
    18    31    32    1
    19    30    29    1
    20    32    27    2
    21    29    28    2
    22     5     4    2
    23     5     6    1
    24     4     3    1
    25    27    28    1
    26    27    26    1
    27     6     2    1
    28    26    21    1
    29     3     2    2
    30     2     1    1
    31     1    21    1
    32    21    22   am
    33    25    24    1
    34    22    24   am
    35    22    23    2
    36    24    33    1
    37    39    33    2
    38    39    38    1
    39    33    34    1
    40    38    36    2
    41    34    35    2
    42    36    35    1
    43    36    37    1
