@<TRIPOS>MOLECULE
19387_out_ligand_01.pdbqt
 31 34 0 0 0
SMALL
GASTEIGER

@<TRIPOS>ATOM
      1  C         21.9140  -23.3360   -8.7270 C.ar    1  UNL1        0.1960
      2  N         21.6950  -24.5540   -9.1670 N.ar    1  UNL1       -0.1220
      3  N         20.4750  -24.9620   -8.6740 N.ar    1  UNL1       -0.1230
      4  C         20.0000  -23.9790   -7.9360 C.ar    1  UNL1        0.2270
      5  C         18.7430  -23.9360   -7.2130 C.2     1  UNL1        0.3000
      6  O         17.9350  -24.8610   -7.2730 O.2     1  UNL1       -0.2630
      7  N         18.5240  -22.7150   -6.4720 N.am    1  UNL1       -0.2850
      8  C         19.4750  -21.6800   -6.5190 C.2     1  UNL1        0.1180
      9  C         20.6130  -21.7730   -7.2210 C.2     1  UNL1        0.1190
     10  N         20.8750  -22.9260   -7.9330 N.ar    1  UNL1       -0.2770
     11  S         23.3200  -22.3950   -9.0740 S.3     1  UNL1       -0.0810
     12  C         23.5610  -22.7660  -10.8360 C.3     1  UNL1        0.1850
     13  C         22.5460  -22.1230  -11.7670 C.2     1  UNL1        0.2270
     14  O         22.8970  -21.6460  -12.8440 O.2     1  UNL1       -0.2730
     15  N         21.2320  -22.1830  -11.3670 N.am    1  UNL1       -0.3560
     16  H         21.0760  -22.2810  -10.3690 H       1  UNL1        0.1620
     17  C         20.2350  -21.4210  -12.0840 C.3     1  UNL1        0.1610
     18  C         18.8710  -21.6420  -11.4870 C.2     1  UNL1       -0.0400
     19  C         18.5740  -22.8290  -10.8020 C.2     1  UNL1        0.0120
     20  C         17.3160  -23.0130  -10.2240 C.2     1  UNL1        0.0430
     21  C         16.3610  -22.0090  -10.3260 C.2     1  UNL1        0.1160
     22  F         15.1560  -22.1880   -9.7670 F       1  UNL1       -0.2060
     23  C         16.6390  -20.8220  -10.9910 C.2     1  UNL1        0.0430
     24  C         17.8950  -20.6350  -11.5700 C.2     1  UNL1        0.0120
     25  C         17.3120  -22.5600   -5.6910 C.2     1  UNL1        0.0450
     26  C         17.3360  -22.7100   -4.2900 C.2     1  UNL1        0.0300
     27  C         16.1730  -22.5830   -3.5180 C.2     1  UNL1        0.0050
     28  C         14.9590  -22.3100   -4.1370 C.2     1  UNL1        0.0420
     29  C         14.9210  -22.1620   -5.5150 C.2     1  UNL1        0.1180
     30  F         13.7500  -21.9130   -6.1140 F       1  UNL1       -0.2060
     31  C         16.0750  -22.2830   -6.2890 C.2     1  UNL1        0.0720
@<TRIPOS>BOND
     1    14    13    2
     2    17    18    1
     3    17    15    1
     4    13    15   am
     5    13    12    1
     6    24    18    2
     7    24    23    1
     8    18    19    1
     9    15    16    1
    10    23    21    2
    11    12    11    1
    12    19    20    2
    13    21    20    1
    14    21    22    1
    15     2     1   ar
    16     2     3   ar
    17    11     1    1
    18     1    10   ar
    19     3     4   ar
    20     4    10   ar
    21     4     5    1
    22    10     9    1
    23     6     5    2
    24     9     8    2
    25     5     7   am
    26     8     7    1
    27     7    25    1
    28    31    25    2
    29    31    29    1
    30    30    29    1
    31    25    26    1
    32    29    28    2
    33    26    27    2
    34    28    27    1
