@<TRIPOS>MOLECULE
19392_out_ligand_01.pdbqt
 35 38 0 0 0
SMALL
GASTEIGER

@<TRIPOS>ATOM
      1  C         21.9130  -23.0070   -8.8660 C.2     1  UNL1        0.0320
      2  C         21.5600  -24.3380   -9.1300 C.2     1  UNL1        0.0200
      3  C         20.3750  -24.8620   -8.6070 C.2     1  UNL1        0.0380
      4  C         19.5590  -24.0620   -7.8100 C.2     1  UNL1        0.0780
      5  C         19.8950  -22.7320   -7.5520 C.2     1  UNL1        0.0380
      6  C         21.0820  -22.2100   -8.0690 C.2     1  UNL1        0.0200
      7  O         18.3730  -24.5920   -7.3630 O.2     1  UNL1       -0.2900
      8  C         17.4920  -23.7260   -6.7210 C.2     1  UNL1        0.2060
      9  N         17.7590  -23.3160   -5.4520 N.2     1  UNL1       -0.2330
     10  C         16.8450  -22.4870   -4.9030 C.2     1  UNL1        0.1380
     11  C         15.7090  -22.0830   -5.5810 C.2     1  UNL1        0.1370
     12  N         15.4260  -22.4950   -6.8370 N.2     1  UNL1       -0.2480
     13  C         16.3350  -23.3350   -7.4050 C.2     1  UNL1        0.1510
     14  S         15.9420  -23.8890   -9.0560 S.3     1  UNL1       -0.0660
     15  C         16.9390  -22.7590  -10.0100 C.2     1  UNL1        0.0070
     16  C         18.1530  -23.1960  -10.5540 C.2     1  UNL1        0.0220
     17  C         18.9420  -22.3220  -11.3040 C.2     1  UNL1        0.0430
     18  C         18.5170  -21.0130  -11.4990 C.2     1  UNL1        0.1160
     19  F         19.2730  -20.1740  -12.2190 F       1  UNL1       -0.2060
     20  C         17.3190  -20.5600  -10.9590 C.2     1  UNL1        0.0430
     21  C         16.5280  -21.4340  -10.2090 C.2     1  UNL1        0.0220
     22  C         23.1640  -22.4080   -9.4030 C.2     1  UNL1        0.2510
     23  N         23.9970  -23.2660  -10.0900 N.am    1  UNL1       -0.3530
     24  H         23.6260  -24.1570  -10.3870 H       1  UNL1        0.1630
     25  O         23.3830  -21.2130   -9.2560 O.2     1  UNL1       -0.2680
     26  C         25.1470  -22.7700  -10.8140 C.3     1  UNL1        0.1610
     27  C         24.8550  -22.6880  -12.2910 C.2     1  UNL1       -0.0400
     28  C         25.4090  -23.6260  -13.1730 C.2     1  UNL1        0.0110
     29  C         25.1680  -23.5470  -14.5490 C.2     1  UNL1        0.0370
     30  C         24.3740  -22.5240  -15.0640 C.2     1  UNL1        0.0680
     31  C         23.8320  -21.5780  -14.1890 C.2     1  UNL1        0.0370
     32  C         24.0690  -21.6530  -12.8140 C.2     1  UNL1        0.0110
     33  O         24.0640  -22.3190  -16.3800 O.2     1  UNL1       -0.3520
     34  C         24.3620  -23.3480  -17.3240 C.3     1  UNL1        0.1710
     35  C         23.1250  -23.7270  -18.1180 C.3     1  UNL1        0.0340
@<TRIPOS>BOND
     1    35    34    1
     2    34    33    1
     3    33    30    1
     4    30    29    2
     5    30    31    1
     6    29    28    1
     7    31    32    2
     8    28    27    2
     9    32    27    1
    10    27    26    1
    11    19    18    1
    12    18    17    2
    13    18    20    1
    14    17    16    1
    15    20    21    2
    16    26    23    1
    17    16    15    2
    18    24    23    1
    19    21    15    1
    20    23    22   am
    21    15    14    1
    22    22    25    2
    23    22     1    1
    24     2     1    2
    25     2     3    1
    26    14    13    1
    27     1     6    1
    28     3     4    2
    29     6     5    2
    30     4     5    1
    31     4     7    1
    32    13    12    2
    33    13     8    1
    34     7     8    1
    35    12    11    1
    36     8     9    2
    37    11    10    2
    38     9    10    1
