@<TRIPOS>MOLECULE
19415_out_ligand_01.pdbqt
 32 36 0 0 0
SMALL
GASTEIGER

@<TRIPOS>ATOM
      1  C         20.8700  -22.5370  -10.3920 C.2     1  UNL1        0.1220
      2  N         20.9060  -21.9490  -11.5580 N.2     1  UNL1       -0.2500
      3  C         19.7230  -21.4140  -12.0320 C.2     1  UNL1        0.1370
      4  C         18.5720  -21.4270  -11.3420 C.2     1  UNL1        0.1380
      5  N         18.5400  -22.0310  -10.0970 N.pl3   1  UNL1       -0.2400
      6  N         17.4990  -22.1370   -9.2450 N.2     1  UNL1       -0.1670
      7  C         17.9710  -22.8360   -8.2040 C.2     1  UNL1        0.0910
      8  C         19.3370  -23.1650   -8.3800 C.2     1  UNL1        0.0690
      9  C         19.6770  -22.6230   -9.5970 C.2     1  UNL1        0.0950
     10  S         22.3090  -23.2550   -9.7180 S.3     1  UNL1       -0.0990
     11  C         23.3600  -21.7840   -9.5630 C.3     1  UNL1        0.1840
     12  C         24.3140  -21.6720  -10.7440 C.2     1  UNL1        0.2310
     13  O         25.2680  -20.8990  -10.7140 O.2     1  UNL1       -0.2720
     14  N         23.9700  -22.5020  -11.7980 N.am    1  UNL1       -0.3260
     15  H         23.0840  -23.0000  -11.6980 H       1  UNL1        0.1690
     16  C         24.6170  -22.6360  -13.0440 C.2     1  UNL1        0.0370
     17  C         25.6720  -23.5580  -13.1190 C.2     1  UNL1        0.0290
     18  C         26.3610  -23.7630  -14.3200 C.2     1  UNL1        0.0050
     19  C         26.0040  -23.0410  -15.4560 C.2     1  UNL1        0.0420
     20  C         24.9690  -22.1190  -15.3770 C.2     1  UNL1        0.1180
     21  F         24.6420  -21.4080  -16.4650 F       1  UNL1       -0.2060
     22  C         24.2710  -21.9110  -14.1870 C.2     1  UNL1        0.0710
     23  C         17.1320  -23.1500   -7.0530 C.2     1  UNL1        0.0050
     24  C         16.0460  -24.0140   -7.2710 C.2     1  UNL1        0.0150
     25  C         15.1780  -24.3280   -6.2320 C.2     1  UNL1        0.0020
     26  C         15.3930  -23.7870   -4.9660 C.2     1  UNL1        0.0120
     27  C         16.4800  -22.9320   -4.7150 C.2     1  UNL1       -0.0250
     28  C         16.6800  -22.4090   -3.4270 C.2     1  UNL1        0.0120
     29  C         17.3740  -22.6000   -5.7630 C.2     1  UNL1       -0.0130
     30  C         17.7540  -21.5640   -3.1530 C.2     1  UNL1        0.0010
     31  C         18.6460  -21.2340   -4.1650 C.2     1  UNL1        0.0010
     32  C         18.4600  -21.7440   -5.4520 C.2     1  UNL1        0.0130
@<TRIPOS>BOND
     1    21    20    1
     2    19    20    2
     3    19    18    1
     4    20    22    1
     5    18    17    2
     6    22    16    2
     7    17    16    1
     8    16    14    1
     9     3     2    1
    10     3     4    2
    11    14    15    1
    12    14    12   am
    13     2     1    2
    14     4     5    1
    15    12    13    2
    16    12    11    1
    17     1    10    1
    18     1     9    1
    19     5     9    1
    20     5     6    1
    21    10    11    1
    22     9     8    2
    23     6     7    2
    24     8     7    1
    25     7    23    1
    26    24    23    2
    27    24    25    1
    28    23    29    1
    29    25    26    2
    30    29    32    1
    31    29    27    2
    32    32    31    2
    33    26    27    1
    34    27    28    1
    35    31    30    1
    36    28    30    2
