@<TRIPOS>MOLECULE
19410_out_ligand_01.pdbqt
 32 35 0 0 0
SMALL
GASTEIGER

@<TRIPOS>ATOM
      1  C         15.3280  -24.4180   -7.8820 C.3     1  UNL1        0.0480
      2  C         16.7180  -23.8700   -8.0180 C.2     1  UNL1       -0.0600
      3  C         17.6340  -23.9930   -6.9700 C.2     1  UNL1        0.0090
      4  C         18.9080  -23.4390   -7.0850 C.2     1  UNL1        0.0400
      5  C         19.2870  -22.7730   -8.2550 C.2     1  UNL1        0.1020
      6  C         18.3880  -22.6410   -9.3120 C.2     1  UNL1        0.0690
      7  C         17.0970  -23.1710   -9.1740 C.2     1  UNL1        0.0390
      8  N         18.6740  -21.9570  -10.4990 N.am    1  UNL1       -0.3200
      9  C         19.8800  -21.6760  -11.0840 C.2     1  UNL1        0.2590
     10  O         19.8900  -21.0560  -12.1490 O.2     1  UNL1       -0.2670
     11  C         21.1480  -22.2190  -10.5540 C.2     1  UNL1        0.0680
     12  C         22.1710  -22.4820  -11.4840 C.2     1  UNL1        0.0440
     13  C         23.3980  -22.9950  -11.0640 C.2     1  UNL1        0.0240
     14  C         23.6200  -23.2420   -9.7120 C.2     1  UNL1        0.0270
     15  C         22.6180  -22.9610   -8.7820 C.2     1  UNL1        0.0400
     16  C         21.3800  -22.4620   -9.2040 C.2     1  UNL1        0.0920
     17  O         20.5000  -22.1380   -8.2110 O.2     1  UNL1       -0.3070
     18  H         17.8950  -21.7130  -11.1000 H       1  UNL1        0.1690
     19  N         24.4170  -23.2650  -12.0340 N.pl3   1  UNL1       -0.1810
     20  H         24.0450  -23.4900  -12.9570 H       1  UNL1        0.1460
     21  S         25.6050  -22.0500  -12.2000 S.O2    1  UNL1        0.2460
     22  O         26.9210  -22.6100  -11.9820 O.2     1  UNL1       -0.2060
     23  O         25.1370  -20.9070  -11.4430 O.2     1  UNL1       -0.2060
     24  C         25.4410  -21.6660  -13.9380 C.2     1  UNL1        0.0810
     25  C         24.8770  -22.6450  -14.7720 C.2     1  UNL1        0.0320
     26  C         24.7150  -22.4170  -16.1470 C.2     1  UNL1       -0.0550
     27  C         24.1010  -23.4890  -17.0050 C.3     1  UNL1        0.0490
     28  C         25.1190  -21.1840  -16.6870 C.2     1  UNL1       -0.0560
     29  C         24.9580  -20.8810  -18.1530 C.3     1  UNL1        0.0490
     30  C         25.6770  -20.2080  -15.8410 C.2     1  UNL1        0.0150
     31  C         25.8530  -20.4310  -14.4650 C.2     1  UNL1       -0.0390
     32  C         26.4300  -19.3230  -13.6290 C.3     1  UNL1        0.0500
@<TRIPOS>BOND
     1    29    28    1
     2    27    26    1
     3    28    26    2
     4    28    30    1
     5    26    25    1
     6    30    31    2
     7    25    24    2
     8    31    24    1
     9    31    32    1
    10    24    21    1
    11    20    19    1
    12    21    19    1
    13    21    22    2
    14    21    23    2
    15    10     9    2
    16    19    13    1
    17    12    13    1
    18    12    11    2
    19    18     8    1
    20     9    11    1
    21     9     8   am
    22    13    14    2
    23    11    16    1
    24     8     6    1
    25    14    15    1
    26     6     7    1
    27     6     5    2
    28    16    15    2
    29    16    17    1
    30     7     2    2
    31     5    17    1
    32     5     4    1
    33     2     1    1
    34     2     3    1
    35     4     3    2
