@<TRIPOS>MOLECULE
19425_out_ligand_01.pdbqt
 35 38 0 0 0
SMALL
GASTEIGER

@<TRIPOS>ATOM
      1  C         22.6270  -22.1730  -11.4650 C.2     1  UNL1        0.0820
      2  C         22.3020  -23.0470  -10.4990 C.2     1  UNL1        0.1130
      3  N         21.0260  -23.2850  -10.0200 N.pl3   1  UNL1       -0.3310
      4  C         19.9280  -22.5940  -10.5700 C.2     1  UNL1        0.1440
      5  N         18.6720  -22.8480  -10.1110 N.2     1  UNL1       -0.2350
      6  C         17.6280  -22.1650  -10.6500 C.2     1  UNL1        0.0330
      7  C         16.2600  -22.4590  -10.1050 C.3     1  UNL1        0.0700
      8  C         17.7830  -21.2310  -11.6660 C.2     1  UNL1        0.0280
      9  C         19.0610  -20.9830  -12.1500 C.2     1  UNL1        0.0210
     10  C         20.1450  -21.6690  -11.5970 C.2     1  UNL1        0.0610
     11  C         21.5140  -21.4370  -12.1110 C.2     1  UNL1        0.2010
     12  O         21.6880  -20.6780  -13.0600 O.2     1  UNL1       -0.2860
     13  C         20.7470  -24.2310   -8.9250 C.3     1  UNL1        0.2330
     14  C         19.8340  -23.6150   -7.8580 C.2     1  UNL1        0.2400
     15  O         20.1510  -22.5790   -7.2790 O.2     1  UNL1       -0.2710
     16  N         18.6610  -24.3270   -7.6760 N.am    1  UNL1       -0.3260
     17  H         18.6000  -25.1960   -8.2100 H       1  UNL1        0.1690
     18  C         17.5990  -24.0530   -6.7960 C.2     1  UNL1        0.0360
     19  C         16.2700  -24.3890   -7.0500 C.2     1  UNL1        0.0290
     20  C         15.2730  -24.0720   -6.1220 C.2     1  UNL1        0.0040
     21  C         15.6000  -23.4220   -4.9310 C.2     1  UNL1        0.0180
     22  C         16.9280  -23.0950   -4.6550 C.2     1  UNL1        0.0020
     23  C         17.9180  -23.4010   -5.5970 C.2     1  UNL1        0.0480
     24  S         17.4070  -22.2560   -3.1530 S.3     1  UNL1       -0.1340
     25  C         18.5590  -21.0260   -3.8210 C.3     1  UNL1        0.0950
     26  C         24.0620  -22.0270  -11.8190 C.2     1  UNL1        0.2000
     27  O         24.8550  -21.4610  -11.0680 O.2     1  UNL1       -0.2860
     28  C         24.5560  -22.5840  -13.0990 C.2     1  UNL1        0.0480
     29  C         24.8610  -23.9520  -13.1240 C.2     1  UNL1        0.0180
     30  C         25.3420  -24.5400  -14.2910 C.2     1  UNL1        0.0010
     31  C         25.5310  -23.7600  -15.4280 C.2     1  UNL1        0.0030
     32  C         25.2510  -22.3890  -15.4010 C.2     1  UNL1        0.0380
     33  C         24.7680  -21.7820  -14.2360 C.2     1  UNL1        0.0820
     34  O         24.5170  -20.4400  -14.1090 O.2     1  UNL1       -0.3550
     35  C         25.6330  -19.5600  -14.1570 C.3     1  UNL1        0.2100
@<TRIPOS>BOND
     1    31    32    2
     2    31    30    1
     3    32    33    1
     4    30    29    2
     5    33    34    1
     6    33    28    2
     7    35    34    1
     8    29    28    1
     9    28    26    1
    10    12    11    2
    11     9     8    2
    12     9    10    1
    13    11    10    1
    14    11     1    1
    15    26     1    1
    16    26    27    2
    17     8     6    1
    18    10     4    2
    19     1     2    2
    20     6     5    2
    21     6     7    1
    22     4     5    1
    23     4     3    1
    24     2     3    1
    25     3    13    1
    26    13    14    1
    27    17    16    1
    28    14    16   am
    29    14    15    2
    30    16    18    1
    31    19    18    2
    32    19    20    1
    33    18    23    1
    34    20    21    2
    35    23    22    2
    36    21    22    1
    37    22    24    1
    38    25    24    1
