@<TRIPOS>MOLECULE
19420_out_ligand_01.pdbqt
 34 38 0 0 0
SMALL
GASTEIGER

@<TRIPOS>ATOM
      1  N         16.9940  -23.8470   -6.9970 N.ar    1  UNL1       -0.3190
      2  C         16.1350  -23.1840   -7.8400 C.ar    1  UNL1        0.1700
      3  N         15.2550  -22.4670   -7.1780 N.ar    1  UNL1       -0.2220
      4  C         15.5670  -22.6400   -5.8540 C.ar    1  UNL1        0.0890
      5  C         14.9590  -22.0940   -4.7250 C.2     1  UNL1        0.0530
      6  C         15.5160  -22.4520   -3.5090 C.2     1  UNL1        0.1180
      7  N         16.5810  -23.2740   -3.3590 N.2     1  UNL1       -0.2710
      8  C         17.1700  -23.8050   -4.4570 C.2     1  UNL1        0.1480
      9  C         16.6590  -23.4890   -5.7070 C.ar    1  UNL1        0.0830
     10  S         16.2170  -23.3060   -9.5660 S.3     1  UNL1       -0.0870
     11  C         16.7270  -21.6250  -10.0250 C.3     1  UNL1        0.1210
     12  C         18.0670  -21.5970  -10.7200 C.2     1  UNL1       -0.0480
     13  C         18.8000  -22.7800  -10.9090 C.2     1  UNL1        0.0090
     14  C         20.0430  -22.7530  -11.5500 C.2     1  UNL1        0.0170
     15  C         20.5730  -21.5380  -11.9990 C.2     1  UNL1        0.0320
     16  C         19.8440  -20.3570  -11.8220 C.2     1  UNL1        0.0170
     17  C         18.6030  -20.3860  -11.1810 C.2     1  UNL1        0.0090
     18  C         21.8850  -21.4590  -12.6990 C.2     1  UNL1        0.2520
     19  O         22.0000  -20.7860  -13.7160 O.2     1  UNL1       -0.2680
     20  N         22.9280  -22.1550  -12.1250 N.am    1  UNL1       -0.3520
     21  H         22.7920  -22.6300  -11.2450 H       1  UNL1        0.1630
     22  C         24.2410  -22.2050  -12.7510 C.3     1  UNL1        0.0840
     23  C         25.0220  -23.4450  -12.3200 C.3     1  UNL1        0.0250
     24  C         25.5880  -23.0820  -10.9490 C.3     1  UNL1        0.0020
     25  C         25.7010  -21.5570  -10.9300 C.3     1  UNL1        0.0020
     26  C         25.1380  -21.0710  -12.2640 C.3     1  UNL1        0.0250
     27  C         18.1060  -24.7100   -7.3680 C.3     1  UNL1        0.1700
     28  C         19.3660  -23.9370   -7.6720 C.2     1  UNL1       -0.0400
     29  C         19.5370  -22.6140   -7.2400 C.2     1  UNL1        0.0090
     30  C         20.7020  -21.9070   -7.5470 C.2     1  UNL1        0.0070
     31  C         21.7230  -22.5080   -8.2890 C.2     1  UNL1       -0.0620
     32  C         22.9620  -21.7410   -8.6410 C.3     1  UNL1        0.0480
     33  C         21.5480  -23.8190   -8.7430 C.2     1  UNL1        0.0070
     34  C         20.3840  -24.5270   -8.4360 C.2     1  UNL1        0.0090
@<TRIPOS>BOND
     1    19    18    2
     2    22    23    1
     3    22    26    1
     4    22    20    1
     5    18    20   am
     6    18    15    1
     7    23    24    1
     8    26    25    1
     9    20    21    1
    10    15    16    2
    11    15    14    1
    12    16    17    1
    13    14    13    2
    14    17    12    2
    15    24    25    1
    16    13    12    1
    17    12    11    1
    18    11    10    1
    19    10     2    1
    20    33    34    1
    21    33    31    2
    22    32    31    1
    23    34    28    2
    24    31    30    1
    25     2     3   ar
    26     2     1   ar
    27    28    27    1
    28    28    29    1
    29    30    29    2
    30    27     1    1
    31     3     4   ar
    32     1     9   ar
    33     4     9   ar
    34     4     5    1
    35     9     8    1
    36     5     6    2
    37     8     7    2
    38     6     7    1
