@<TRIPOS>MOLECULE
19421_out_ligand_01.pdbqt
 31 34 0 0 0
SMALL
GASTEIGER

@<TRIPOS>ATOM
      1  N         23.9330  -21.7750  -12.8920 N.am    1  UNL1       -0.2440
      2  C         24.6200  -22.4160  -11.8790 C.2     1  UNL1        0.2660
      3  O         25.7980  -22.6800  -11.7190 O.2     1  UNL1       -0.2670
      4  C         23.6420  -22.7970  -10.8650 C.2     1  UNL1        0.0480
      5  C         23.8130  -23.4670   -9.6670 C.2     1  UNL1        0.0190
      6  C         22.6720  -23.7000   -8.8890 C.2     1  UNL1        0.0180
      7  C         21.4000  -23.2530   -9.3220 C.2     1  UNL1        0.0330
      8  C         21.2600  -22.5900  -10.5510 C.2     1  UNL1        0.0350
      9  C         22.4060  -22.3750  -11.2950 C.2     1  UNL1        0.0490
     10  C         22.5860  -21.7180  -12.5850 C.2     1  UNL1        0.2660
     11  O         21.6290  -21.2410  -13.1670 O.2     1  UNL1       -0.2670
     12  C         20.1740  -23.5060   -8.5160 C.2     1  UNL1        0.2560
     13  O         19.7890  -24.6630   -8.4060 O.2     1  UNL1       -0.2670
     14  N         19.5710  -22.3740   -7.9980 N.am    1  UNL1       -0.3230
     15  H         19.9410  -21.4790   -8.2900 H       1  UNL1        0.1690
     16  C         18.4280  -22.3200   -7.1720 C.2     1  UNL1        0.0350
     17  C         18.6410  -22.1550   -5.7950 C.2     1  UNL1        0.0320
     18  C         17.5640  -22.0950   -4.9050 C.2     1  UNL1        0.0380
     19  C         16.2580  -22.2070   -5.3950 C.2     1  UNL1        0.1030
     20  C         16.0310  -22.3770   -6.7640 C.2     1  UNL1        0.0380
     21  C         17.1180  -22.4350   -7.6450 C.2     1  UNL1        0.0320
     22  N         15.1220  -22.1470   -4.4660 N.pl3   1  UNL1       -0.1160
     23  O         14.0720  -21.6310   -4.8740 O.2     1  UNL1       -0.5320
     24  O         15.2810  -22.6150   -3.3290 O.2     1  UNL1       -0.5320
     25  C         24.5300  -21.2420  -14.0810 C.2     1  UNL1        0.0460
     26  C         25.2690  -20.0470  -14.0610 C.2     1  UNL1        0.0300
     27  C         25.8480  -19.5210  -15.2220 C.2     1  UNL1        0.0030
     28  C         25.7070  -20.1810  -16.4380 C.2     1  UNL1        0.0070
     29  C         24.9950  -21.3770  -16.4970 C.2     1  UNL1       -0.0600
     30  C         24.8060  -22.0880  -17.8060 C.3     1  UNL1        0.0480
     31  C         24.4050  -21.8870  -15.3250 C.2     1  UNL1        0.0370
@<TRIPOS>BOND
     1    30    29    1
     2    29    28    2
     3    29    31    1
     4    28    27    1
     5    31    25    2
     6    27    26    2
     7    25    26    1
     8    25     1    1
     9    11    10    2
    10     1    10   am
    11     1     2   am
    12    10     9    1
    13     2     3    2
    14     2     4    1
    15     9     4    2
    16     9     8    1
    17     4     5    1
    18     8     7    2
    19     5     6    2
    20     7     6    1
    21     7    12    1
    22    12    13    2
    23    12    14   am
    24    15    14    1
    25    14    16    1
    26    21    16    2
    27    21    20    1
    28    16    17    1
    29    20    19    2
    30    17    18    2
    31    19    18    1
    32    19    22    1
    33    23    22    2
    34    22    24    2
