@<TRIPOS>MOLECULE
19424_out_ligand_01.pdbqt
 33 36 0 0 0
SMALL
GASTEIGER

@<TRIPOS>ATOM
      1  C         20.9830  -21.8260  -11.5880 C.2     1  UNL1       -0.0380
      2  C         20.0240  -21.3430  -12.5040 C.2     1  UNL1        0.0090
      3  C         18.6840  -21.2110  -12.1390 C.2     1  UNL1        0.0100
      4  C         18.3140  -21.5840  -10.8550 C.2     1  UNL1       -0.0290
      5  C         19.2490  -22.0730   -9.9400 C.2     1  UNL1        0.0440
      6  C         20.5840  -22.1940  -10.2910 C.2     1  UNL1        0.0390
      7  N         18.6210  -22.3670   -8.7100 N.am    1  UNL1       -0.3090
      8  C         19.2800  -22.8340   -7.5780 C.2     1  UNL1        0.2580
      9  O         20.4590  -23.1750   -7.5160 O.2     1  UNL1       -0.2670
     10  C         17.1500  -22.2290   -8.9060 C.3     1  UNL1        0.0930
     11  C         16.4680  -23.6000   -8.9750 C.3     1  UNL1        0.0330
     12  C         16.9600  -21.4630  -10.2340 C.3     1  UNL1        0.0660
     13  C         22.4190  -21.9780  -12.0150 C.3     1  UNL1        0.1630
     14  N         22.6350  -21.3430  -13.2950 N.am    1  UNL1       -0.3390
     15  C         23.8610  -21.4630  -13.9140 C.2     1  UNL1        0.3210
     16  N         23.8340  -20.8810  -15.1580 N.am    1  UNL1       -0.3060
     17  O         24.8150  -22.0110  -13.3780 O.2     1  UNL1       -0.2470
     18  H         23.0350  -20.2980  -15.3720 H       1  UNL1        0.1710
     19  H         21.8420  -21.3530  -13.9190 H       1  UNL1        0.1640
     20  C         24.8500  -20.8440  -16.1360 C.2     1  UNL1        0.0690
     21  C         25.8520  -19.8720  -16.1680 C.2     1  UNL1        0.0320
     22  C         26.8340  -19.9090  -17.1590 C.2     1  UNL1        0.0020
     23  C         26.8210  -20.9150  -18.1200 C.2     1  UNL1        0.0030
     24  C         25.8250  -21.8920  -18.0990 C.2     1  UNL1        0.0390
     25  C         24.8370  -21.8650  -17.1100 C.2     1  UNL1        0.0950
     26  O         23.8150  -22.7800  -16.9940 O.2     1  UNL1       -0.3540
     27  C         23.4920  -23.5400  -18.1530 C.3     1  UNL1        0.2100
     28  C         18.5060  -22.9280   -6.3210 C.2     1  UNL1        0.0320
     29  C         17.7890  -24.0880   -6.0140 C.2     1  UNL1        0.0170
     30  C         17.0460  -24.1480   -4.8340 C.2     1  UNL1        0.0010
     31  C         17.0120  -23.0490   -3.9750 C.2     1  UNL1        0.0000
     32  C         17.7020  -21.8800   -4.3010 C.2     1  UNL1        0.0010
     33  C         18.4430  -21.8140   -5.4800 C.2     1  UNL1        0.0170
@<TRIPOS>BOND
     1    27    26    1
     2    23    24    2
     3    23    22    1
     4    24    25    1
     5    22    21    2
     6    25    26    1
     7    25    20    2
     8    21    20    1
     9    20    16    1
    10    18    16    1
    11    16    15   am
    12    19    14    1
    13    15    17    2
    14    15    14   am
    15    14    13    1
    16     2     3    1
    17     2     1    2
    18     3     4    2
    19    13     1    1
    20     1     6    1
    21     4    12    1
    22     4     5    1
    23     6     5    2
    24    12    10    1
    25     5     7    1
    26    11    10    1
    27    10     7    1
    28     7     8   am
    29     8     9    2
    30     8    28    1
    31    28    29    2
    32    28    33    1
    33    29    30    1
    34    33    32    2
    35    30    31    2
    36    32    31    1
