@<TRIPOS>MOLECULE
19431_out_ligand_01.pdbqt
 32 35 0 0 0
SMALL
GASTEIGER

@<TRIPOS>ATOM
      1  C         22.3560  -23.2950   -8.9910 C.2     1  UNL1       -0.0400
      2  C         21.3760  -24.2940   -9.1800 C.2     1  UNL1        0.0110
      3  C         20.1490  -24.2400   -8.5100 C.2     1  UNL1        0.0310
      4  C         19.9080  -23.1790   -7.6550 C.2     1  UNL1        0.0430
      5  C         20.8680  -22.1840   -7.4680 C.2     1  UNL1       -0.0290
      6  C         22.0930  -22.2280   -8.1210 C.2     1  UNL1        0.0180
      7  C         20.4000  -21.1520   -6.4950 C.2     1  UNL1        0.0610
      8  C         18.9750  -21.6260   -6.1800 C.2     1  UNL1        0.1370
      9  N         18.7670  -22.9050   -6.8810 N.am    1  UNL1       -0.3130
     10  C         17.6450  -23.7130   -6.7880 C.2     1  UNL1        0.2580
     11  O         17.4800  -24.8080   -7.3180 O.2     1  UNL1       -0.2670
     12  C         23.6800  -23.3930   -9.7080 C.3     1  UNL1        0.1620
     13  N         23.5170  -23.1450  -11.1250 N.am    1  UNL1       -0.3390
     14  C         24.4570  -22.4240  -11.8330 C.2     1  UNL1        0.3200
     15  N         24.0500  -22.2440  -13.1380 N.am    1  UNL1       -0.3090
     16  O         25.5030  -22.0380  -11.3330 O.2     1  UNL1       -0.2470
     17  H         23.2300  -22.7620  -13.4120 H       1  UNL1        0.1700
     18  H         22.5640  -23.0850  -11.4490 H       1  UNL1        0.1640
     19  C         24.7050  -21.5190  -14.1550 C.2     1  UNL1        0.0370
     20  C         25.1700  -20.2120  -14.0020 C.2     1  UNL1        0.0290
     21  C         25.7980  -19.5560  -15.0650 C.2     1  UNL1        0.0040
     22  C         25.9710  -20.2040  -16.2880 C.2     1  UNL1        0.0180
     23  C         25.5210  -21.5140  -16.4530 C.2     1  UNL1        0.0020
     24  C         24.8790  -22.1600  -15.3890 C.2     1  UNL1        0.0480
     25  S         25.7030  -22.3770  -18.0070 S.3     1  UNL1       -0.1340
     26  C         24.1320  -23.2800  -18.0490 C.3     1  UNL1        0.0950
     27  C         16.5400  -23.2090   -5.9490 C.2     1  UNL1        0.0320
     28  C         15.4840  -22.5200   -6.5530 C.2     1  UNL1        0.0170
     29  C         14.4440  -22.0340   -5.7610 C.2     1  UNL1        0.0010
     30  C         14.4670  -22.2340   -4.3780 C.2     1  UNL1        0.0000
     31  C         15.5310  -22.9130   -3.7790 C.2     1  UNL1        0.0010
     32  C         16.5780  -23.3980   -4.5640 C.2     1  UNL1        0.0170
@<TRIPOS>BOND
     1    26    25    1
     2    25    23    1
     3    23    22    2
     4    23    24    1
     5    22    21    1
     6    24    19    2
     7    21    20    2
     8    19    20    1
     9    19    15    1
    10    17    15    1
    11    15    14   am
    12    14    16    2
    13    14    13   am
    14    18    13    1
    15    13    12    1
    16    12     1    1
    17     2     1    2
    18     2     3    1
    19     1     6    1
    20     3     4    2
    21     6     5    2
    22     4     5    1
    23     4     9    1
    24     5     7    1
    25    11    10    2
    26     9    10   am
    27     9     8    1
    28    10    27    1
    29    28    27    2
    30    28    29    1
    31     7     8    2
    32    27    32    1
    33    29    30    2
    34    32    31    2
    35    30    31    1
