@<TRIPOS>MOLECULE
19435_out_ligand_01.pdbqt
 32 35 0 0 0
SMALL
GASTEIGER

@<TRIPOS>ATOM
      1  C         21.2050  -23.0800  -10.3910 C.2     1  UNL1       -0.0380
      2  C         22.0120  -23.4770   -9.3030 C.2     1  UNL1        0.0090
      3  C         23.4020  -23.3390   -9.3440 C.2     1  UNL1        0.0100
      4  C         23.9780  -22.7930  -10.4790 C.2     1  UNL1       -0.0300
      5  C         23.1960  -22.3740  -11.5540 C.2     1  UNL1        0.0440
      6  C         21.8180  -22.5060  -11.5220 C.2     1  UNL1        0.0390
      7  N         24.0120  -21.8550  -12.5760 N.am    1  UNL1       -0.3130
      8  C         23.5580  -21.2430  -13.7320 C.2     1  UNL1        0.2580
      9  O         22.3930  -20.9600  -13.9980 O.2     1  UNL1       -0.2670
     10  C         25.4210  -22.0340  -12.1750 C.2     1  UNL1        0.1370
     11  C         25.4270  -22.5220  -10.7210 C.2     1  UNL1        0.0610
     12  C         19.6950  -23.1830  -10.3660 C.3     1  UNL1        0.1630
     13  N         19.0610  -22.3800   -9.3410 N.am    1  UNL1       -0.3390
     14  C         18.7320  -22.9280   -8.1170 C.2     1  UNL1        0.3210
     15  N         18.1990  -21.9620   -7.2870 N.am    1  UNL1       -0.3080
     16  O         18.8890  -24.1130   -7.8590 O.2     1  UNL1       -0.2470
     17  H         17.8870  -21.1320   -7.7620 H       1  UNL1        0.1700
     18  H         19.2580  -21.3930   -9.3550 H       1  UNL1        0.1640
     19  C         17.8430  -22.0890   -5.9240 C.2     1  UNL1        0.0420
     20  C         18.5820  -21.3720   -4.9570 C.2     1  UNL1       -0.0350
     21  C         18.2490  -21.5080   -3.5990 C.2     1  UNL1        0.0090
     22  C         19.7220  -20.4610   -5.3240 C.3     1  UNL1        0.0500
     23  C         17.2020  -22.3360   -3.1950 C.2     1  UNL1        0.0070
     24  C         16.4630  -23.0410   -4.1430 C.2     1  UNL1       -0.0600
     25  C         15.3570  -23.9640   -3.7200 C.3     1  UNL1        0.0480
     26  C         16.8010  -22.9230   -5.5000 C.2     1  UNL1        0.0370
     27  C         24.5780  -20.8590  -14.7310 C.2     1  UNL1        0.0320
     28  C         24.8060  -21.6630  -15.8530 C.2     1  UNL1        0.0170
     29  C         25.7640  -21.2790  -16.7910 C.2     1  UNL1        0.0010
     30  C         26.4800  -20.0920  -16.6110 C.2     1  UNL1        0.0000
     31  C         26.2320  -19.2810  -15.5020 C.2     1  UNL1        0.0010
     32  C         25.2750  -19.6590  -14.5620 C.2     1  UNL1        0.0170
@<TRIPOS>BOND
     1    29    30    2
     2    29    28    1
     3    30    31    1
     4    28    27    2
     5    31    32    2
     6    27    32    1
     7    27     8    1
     8     9     8    2
     9     8     7   am
    10     7    10    1
    11     7     5    1
    12    10    11    2
    13     5     6    1
    14     5     4    2
    15     6     1    2
    16    11     4    1
    17     4     3    1
    18     1    12    1
    19     1     2    1
    20    12    13    1
    21    18    13    1
    22     3     2    2
    23    13    14   am
    24    14    16    2
    25    14    15   am
    26    17    15    1
    27    15    19    1
    28    19    26    2
    29    19    20    1
    30    26    24    1
    31    22    20    1
    32    20    21    2
    33    24    25    1
    34    24    23    2
    35    21    23    1
