@<TRIPOS>MOLECULE
19447_out_ligand_01.pdbqt
 30 33 0 0 0
SMALL
GASTEIGER

@<TRIPOS>ATOM
      1  C         20.7710  -22.3280  -11.0030 C.2     1  UNL1        0.0350
      2  C         20.2170  -23.2400  -10.0950 C.2     1  UNL1        0.0300
      3  C         18.8720  -23.1540   -9.7240 C.2     1  UNL1        0.0090
      4  C         18.0520  -22.1600  -10.2700 C.2     1  UNL1       -0.0580
      5  C         18.6020  -21.2600  -11.1890 C.2     1  UNL1        0.0090
      6  C         19.9520  -21.3410  -11.5480 C.2     1  UNL1        0.0300
      7  N         22.1350  -22.4820  -11.3260 N.am    1  UNL1       -0.3230
      8  C         23.2100  -21.8580  -10.7200 C.2     1  UNL1        0.2560
      9  O         23.1880  -21.1380   -9.7300 O.2     1  UNL1       -0.2670
     10  H         22.3500  -23.1890  -12.0160 H       1  UNL1        0.1690
     11  C         24.5260  -22.1680  -11.3390 C.2     1  UNL1        0.0350
     12  C         25.6000  -21.3040  -11.1010 C.2     1  UNL1        0.0170
     13  C         26.8460  -21.5830  -11.6560 C.2     1  UNL1        0.0040
     14  C         27.0100  -22.7130  -12.4590 C.2     1  UNL1        0.0370
     15  C         25.9330  -23.5640  -12.7280 C.2     1  UNL1        0.0690
     16  C         24.6860  -23.2920  -12.1640 C.2     1  UNL1        0.0530
     17  O         26.2290  -24.6180  -13.5470 O.2     1  UNL1       -0.3560
     18  C         25.4670  -24.7420  -14.7430 C.3     1  UNL1        0.2100
     19  C         16.6040  -22.0350   -9.8500 C.3     1  UNL1        0.0460
     20  C         16.0590  -23.3030   -9.1830 C.3     1  UNL1        0.0830
     21  C         16.1040  -23.2240   -7.6940 C.ar    1  UNL1        0.1050
     22  N         15.2820  -22.5490   -6.9170 N.ar    1  UNL1       -0.2330
     23  C         15.7420  -22.7410   -5.6370 C.ar    1  UNL1        0.0850
     24  C         15.2530  -22.2420   -4.4220 C.2     1  UNL1        0.0340
     25  C         16.8660  -23.5590   -5.6300 C.ar    1  UNL1        0.0620
     26  C         15.9180  -22.5840   -3.2380 C.2     1  UNL1        0.0020
     27  C         17.0470  -23.4100   -3.2640 C.2     1  UNL1        0.0020
     28  C         17.5500  -23.9200   -4.4670 C.2     1  UNL1        0.0320
     29  N         17.0730  -23.8570   -6.9520 N.ar    1  UNL1       -0.3430
     30  H         17.8450  -24.3910   -7.3250 H       1  UNL1        0.1670
@<TRIPOS>BOND
     1    18    17    1
     2    17    15    1
     3    15    14    2
     4    15    16    1
     5    14    13    1
     6    16    11    2
     7    10     7    1
     8    13    12    2
     9     6     5    1
    10     6     1    2
    11    11    12    1
    12    11     8    1
    13     7     1    1
    14     7     8   am
    15     5     4    2
    16     1     2    1
    17     8     9    2
    18     4    19    1
    19     4     3    1
    20     2     3    2
    21    19    20    1
    22    20    21    1
    23    21    29   ar
    24    21    22   ar
    25    30    29    1
    26    29    25   ar
    27    22    23   ar
    28    23    25   ar
    29    23    24    1
    30    25    28    1
    31    28    27    2
    32    24    26    2
    33    27    26    1
