@<TRIPOS>MOLECULE
19453_out_ligand_01.pdbqt
 33 36 0 0 0
SMALL
GASTEIGER

@<TRIPOS>ATOM
      1  C         21.3250  -22.3300  -10.2140 C.2     1  UNL1       -0.0380
      2  C         20.9050  -21.6660  -11.3860 C.2     1  UNL1        0.0090
      3  C         19.5560  -21.3880  -11.6120 C.2     1  UNL1        0.0100
      4  C         18.6350  -21.7820  -10.6540 C.2     1  UNL1       -0.0290
      5  C         19.0310  -22.4370   -9.4880 C.2     1  UNL1        0.0440
      6  C         20.3690  -22.7190   -9.2580 C.2     1  UNL1        0.0390
      7  N         17.9130  -22.6800   -8.6560 N.am    1  UNL1       -0.3090
      8  C         17.9800  -23.2680   -7.4000 C.2     1  UNL1        0.2580
      9  O         18.9630  -23.8300   -6.9220 O.2     1  UNL1       -0.2670
     10  C         16.6870  -22.2980   -9.4130 C.3     1  UNL1        0.0930
     11  C         15.8790  -23.5300   -9.8250 C.3     1  UNL1        0.0330
     12  C         17.1650  -21.5150  -10.6570 C.3     1  UNL1        0.0660
     13  C         22.7870  -22.6290   -9.9920 C.3     1  UNL1        0.1630
     14  N         23.3470  -23.3480  -11.1230 N.am    1  UNL1       -0.3390
     15  C         24.0910  -22.6850  -12.0800 C.2     1  UNL1        0.3200
     16  N         24.4510  -23.5430  -13.0970 N.am    1  UNL1       -0.3090
     17  O         24.3790  -21.4990  -11.9850 O.2     1  UNL1       -0.2470
     18  H         24.2570  -24.5190  -12.9200 H       1  UNL1        0.1700
     19  H         22.7900  -24.1260  -11.4470 H       1  UNL1        0.1640
     20  C         25.1530  -23.2330  -14.2780 C.2     1  UNL1        0.0370
     21  C         26.4770  -22.7990  -14.3050 C.2     1  UNL1        0.0300
     22  C         27.1060  -22.5040  -15.5210 C.2     1  UNL1        0.0110
     23  C         26.4230  -22.6380  -16.7360 C.2     1  UNL1       -0.0400
     24  C         27.1200  -22.2910  -18.0200 C.3     1  UNL1        0.0500
     25  C         25.0890  -23.0660  -16.7020 C.2     1  UNL1        0.0420
     26  C         24.4630  -23.3650  -15.4870 C.2     1  UNL1        0.0540
     27 CL         24.1590  -23.2380  -18.1510 Cl      1  UNL1       -0.0840
     28  C         16.7770  -23.2040   -6.5360 C.2     1  UNL1        0.0320
     29  C         15.9110  -24.3050   -6.4930 C.2     1  UNL1        0.0170
     30  C         14.7950  -24.2740   -5.6560 C.2     1  UNL1        0.0010
     31  C         14.5540  -23.1550   -4.8490 C.2     1  UNL1        0.0000
     32  C         15.4340  -22.0720   -4.8700 C.2     1  UNL1        0.0010
     33  C         16.5570  -22.0990   -5.7030 C.2     1  UNL1        0.0170
@<TRIPOS>BOND
     1    27    25    1
     2    24    23    1
     3    23    25    2
     4    23    22    1
     5    25    26    1
     6    22    21    2
     7    26    20    2
     8    21    20    1
     9    20    16    1
    10    16    18    1
    11    16    15   am
    12    15    17    2
    13    15    14   am
    14     3     2    1
    15     3     4    2
    16    19    14    1
    17     2     1    2
    18    14    13    1
    19    12     4    1
    20    12    10    1
    21     4     5    1
    22     1    13    1
    23     1     6    1
    24    11    10    1
    25     5     6    2
    26     5     7    1
    27    10     7    1
    28     7     8   am
    29     8     9    2
    30     8    28    1
    31    28    29    2
    32    28    33    1
    33    29    30    1
    34    33    32    2
    35    30    31    2
    36    32    31    1
