@<TRIPOS>MOLECULE
19465_out_ligand_01.pdbqt
 36 40 0 0 0
SMALL
GASTEIGER

@<TRIPOS>ATOM
      1  S         16.2820  -23.3270   -9.5350 S.3     1  UNL1       -0.0870
      2  C         16.2510  -23.1060   -7.8160 C.ar    1  UNL1        0.1700
      3  N         17.2270  -23.5810   -6.9710 N.ar    1  UNL1       -0.3190
      4  C         16.7990  -23.3280   -5.6800 C.ar    1  UNL1        0.0830
      5  C         17.3020  -23.6240   -4.4210 C.2     1  UNL1        0.1480
      6  C         15.6130  -22.6200   -5.8380 C.ar    1  UNL1        0.0890
      7  N         16.6270  -23.1950   -3.3300 N.2     1  UNL1       -0.2710
      8  C         15.4780  -22.4980   -3.4910 C.2     1  UNL1        0.1180
      9  C         14.9160  -22.1750   -4.7150 C.2     1  UNL1        0.0530
     10  N         15.2980  -22.4810   -7.1630 N.ar    1  UNL1       -0.2220
     11  C         18.4280  -24.3320   -7.3220 C.3     1  UNL1        0.1700
     12  C         19.6620  -23.4800   -7.5430 C.2     1  UNL1       -0.0340
     13  C         19.7010  -22.2110   -6.9310 C.2     1  UNL1        0.0090
     14  C         20.7970  -21.3620   -7.0850 C.2     1  UNL1        0.0010
     15  C         21.8760  -21.7620   -7.8620 C.2     1  UNL1        0.0010
     16  C         21.8510  -23.0040   -8.4930 C.2     1  UNL1        0.0070
     17  C         20.7480  -23.8680   -8.3590 C.2     1  UNL1       -0.0540
     18  C         20.7960  -25.1860   -9.0820 C.3     1  UNL1        0.0490
     19  C         16.6740  -21.6560  -10.1230 C.3     1  UNL1        0.1210
     20  C         18.0300  -21.5770  -10.7840 C.2     1  UNL1       -0.0480
     21  C         18.5270  -20.3500  -11.2430 C.2     1  UNL1        0.0090
     22  C         19.7820  -20.2760  -11.8530 C.2     1  UNL1        0.0170
     23  C         20.5500  -21.4310  -12.0280 C.2     1  UNL1        0.0320
     24  C         20.0650  -22.6610  -11.5650 C.2     1  UNL1        0.0170
     25  C         18.8100  -22.7320  -10.9540 C.2     1  UNL1        0.0090
     26  C         21.8840  -21.3010  -12.6760 C.2     1  UNL1        0.2520
     27  O         21.9650  -20.9680  -13.8520 O.2     1  UNL1       -0.2680
     28  N         22.9790  -21.5950  -11.8890 N.am    1  UNL1       -0.3520
     29  H         22.8430  -21.8750  -10.9290 H       1  UNL1        0.1630
     30  C         24.3440  -21.3990  -12.3650 C.3     1  UNL1        0.0840
     31  C         24.7630  -22.5430  -13.3000 C.3     1  UNL1        0.0250
     32  C         24.9550  -23.9140  -12.6560 C.3     1  UNL1        0.0020
     33  C         25.8040  -23.9580  -11.3880 C.3     1  UNL1        0.0000
     34  C         27.0220  -23.0360  -11.3880 C.2     1  UNL1        0.0000
     35  C         26.7410  -21.5260  -11.4080 C.2     1  UNL1        0.0020
     36  C         25.2860  -21.1230  -11.1780 C.3     1  UNL1        0.0250
@<TRIPOS>BOND
     1    27    26    2
     2    31    32    1
     3    31    30    1
     4    26    23    1
     5    26    28   am
     6    32    33    1
     7    30    28    1
     8    30    36    1
     9    23    22    2
    10    23    24    1
    11    28    29    1
    12    22    21    1
    13    24    25    2
    14    35    34    2
    15    35    36    1
    16    34    33    1
    17    21    20    2
    18    25    20    1
    19    20    19    1
    20    19     1    1
    21     1     2    1
    22    18    17    1
    23    16    17    1
    24    16    15    2
    25    17    12    2
    26    15    14    1
    27     2    10   ar
    28     2     3   ar
    29    12    11    1
    30    12    13    1
    31    11     3    1
    32    10     6   ar
    33    14    13    2
    34     3     4   ar
    35     6     4   ar
    36     6     9    1
    37     4     5    1
    38     9     8    2
    39     5     7    2
    40     8     7    1
