@<TRIPOS>MOLECULE
19470_out_ligand_01.pdbqt
 35 39 0 0 0
SMALL
GASTEIGER

@<TRIPOS>ATOM
      1  C         23.2150  -22.8780  -10.8080 C.2     1  UNL1        0.0540
      2  C         21.8880  -22.7520  -10.6100 C.2     1  UNL1        0.1450
      3  O         21.1390  -21.8700  -11.3630 O.2     1  UNL1       -0.3030
      4  C         19.7990  -21.7760  -11.1150 C.2     1  UNL1        0.1030
      5  C         19.1020  -20.8680  -11.9220 C.2     1  UNL1        0.0390
      6  C         17.7310  -20.6970  -11.7580 C.2     1  UNL1        0.0030
      7  C         17.0630  -21.4350  -10.7880 C.2     1  UNL1        0.0020
      8  C         17.7640  -22.3400   -9.9810 C.2     1  UNL1        0.0330
      9  C         19.1460  -22.5210  -10.1310 C.2     1  UNL1        0.0710
     10  N         19.9010  -23.4270   -9.3320 N.am    1  UNL1       -0.3050
     11  C         21.2690  -23.5820   -9.5240 C.2     1  UNL1        0.2820
     12  O         21.9590  -24.3460   -8.8480 O.2     1  UNL1       -0.2650
     13  C         23.9960  -22.1380  -11.8080 C.2     1  UNL1       -0.0330
     14  C         23.6100  -22.0760  -13.1530 C.2     1  UNL1        0.0120
     15  C         24.3880  -21.3820  -14.0860 C.2     1  UNL1        0.0180
     16  C         25.5730  -20.7560  -13.6830 C.2     1  UNL1        0.0320
     17  C         25.9620  -20.8150  -12.3400 C.2     1  UNL1        0.0180
     18  C         25.1830  -21.5110  -11.4110 C.2     1  UNL1        0.0120
     19  C         26.4310  -20.0000  -14.6360 C.2     1  UNL1        0.2520
     20  O         27.1210  -20.6000  -15.4530 O.2     1  UNL1       -0.2680
     21  N         26.3620  -18.6220  -14.5600 N.am    1  UNL1       -0.3520
     22  H         25.5770  -18.2150  -14.0710 H       1  UNL1        0.1630
     23  C         27.0490  -17.7930  -15.5330 C.3     1  UNL1        0.0840
     24  C         27.1120  -16.3290  -15.0930 C.3     1  UNL1        0.0250
     25  C         27.0960  -15.5540  -16.4000 C.3     1  UNL1        0.0020
     26  C         26.0830  -16.3210  -17.2330 C.3     1  UNL1        0.0020
     27  C         26.3520  -17.7870  -16.9040 C.3     1  UNL1        0.0250
     28  C         19.2700  -24.2040   -8.2630 C.3     1  UNL1        0.1740
     29  C         18.8600  -23.3730   -7.0680 C.2     1  UNL1       -0.0010
     30  C         19.5000  -22.1610   -6.7650 C.2     1  UNL1        0.0120
     31  C         19.1180  -21.4160   -5.6460 C.2     1  UNL1        0.0010
     32  C         18.1010  -21.8760   -4.8100 C.2     1  UNL1        0.0030
     33  C         17.4700  -23.0860   -5.0900 C.2     1  UNL1        0.0430
     34  C         17.8560  -23.8220   -6.2070 C.2     1  UNL1        0.1240
     35  F         17.2380  -24.9880   -6.4490 F       1  UNL1       -0.2050
@<TRIPOS>BOND
     1    26    27    1
     2    26    25    1
     3    27    23    1
     4    25    24    1
     5    23    24    1
     6    23    21    1
     7    20    19    2
     8    19    21   am
     9    19    16    1
    10    21    22    1
    11    15    16    2
    12    15    14    1
    13    16    17    1
    14    14    13    2
    15    17    18    2
    16     5     6    1
    17     5     4    2
    18    13    18    1
    19    13     1    1
    20     6     7    2
    21     3     4    1
    22     3     2    1
    23     4     9    1
    24     1     2    2
    25     7     8    1
    26     2    11    1
    27     9     8    2
    28     9    10    1
    29    11    10   am
    30    11    12    2
    31    10    28    1
    32    28    29    1
    33    29    30    2
    34    29    34    1
    35    30    31    1
    36    35    34    1
    37    34    33    2
    38    31    32    2
    39    33    32    1
