@<TRIPOS>MOLECULE
19479_out_ligand_01.pdbqt
 33 36 0 0 0
SMALL
GASTEIGER

@<TRIPOS>ATOM
      1  C         21.1280  -23.1580   -9.8400 C.2     1  UNL1       -0.0380
      2  C         20.8290  -22.4930  -11.0480 C.2     1  UNL1        0.0090
      3  C         19.5360  -22.0420  -11.3210 C.2     1  UNL1        0.0100
      4  C         18.5490  -22.2640  -10.3740 C.2     1  UNL1       -0.0290
      5  C         18.8240  -22.9300   -9.1790 C.2     1  UNL1        0.0440
      6  C         20.1060  -23.3760   -8.8990 C.2     1  UNL1        0.0390
      7  N         17.6590  -23.0070   -8.3790 N.am    1  UNL1       -0.3090
      8  C         17.6040  -23.5840   -7.1170 C.2     1  UNL1        0.2580
      9  O         18.4880  -24.2560   -6.5910 O.2     1  UNL1       -0.2670
     10  C         16.5160  -22.4970   -9.1870 C.3     1  UNL1        0.0930
     11  C         15.5980  -23.6400   -9.6380 C.3     1  UNL1        0.0330
     12  C         17.1340  -21.7830  -10.4120 C.3     1  UNL1        0.0660
     13  C         22.5430  -23.5900   -9.5360 C.3     1  UNL1        0.1630
     14  N         23.4520  -23.2480  -10.6090 N.am    1  UNL1       -0.3390
     15  C         24.0050  -21.9870  -10.7010 C.2     1  UNL1        0.3200
     16  N         24.8320  -21.8910  -11.7980 N.am    1  UNL1       -0.3090
     17  O         23.7760  -21.1100   -9.8760 O.2     1  UNL1       -0.2470
     18  H         24.9630  -22.7440  -12.3220 H       1  UNL1        0.1700
     19  H         23.3610  -23.7860  -11.4560 H       1  UNL1        0.1640
     20  C         25.5980  -20.7780  -12.2110 C.2     1  UNL1        0.0370
     21  C         26.3650  -19.9970  -11.3460 C.2     1  UNL1        0.0290
     22  C         27.1200  -18.9290  -11.8380 C.2     1  UNL1        0.0040
     23  C         27.1060  -18.6250  -13.2000 C.2     1  UNL1        0.0180
     24  C         26.3250  -19.3800  -14.0780 C.2     1  UNL1        0.0020
     25  C         25.5850  -20.4610  -13.5780 C.2     1  UNL1        0.0480
     26  S         26.2750  -19.0470  -15.8330 S.3     1  UNL1       -0.1340
     27  C         26.6030  -17.2620  -15.8430 C.3     1  UNL1        0.0950
     28  C         16.3760  -23.3750   -6.3160 C.2     1  UNL1        0.0320
     29  C         15.4610  -24.4250   -6.1870 C.2     1  UNL1        0.0170
     30  C         14.3180  -24.2540   -5.4060 C.2     1  UNL1        0.0010
     31  C         14.1040  -23.0450   -4.7380 C.2     1  UNL1        0.0000
     32  C         15.0380  -22.0120   -4.8380 C.2     1  UNL1        0.0010
     33  C         16.1800  -22.1760   -5.6210 C.2     1  UNL1        0.0170
@<TRIPOS>BOND
     1    27    26    1
     2    26    24    1
     3    24    25    1
     4    24    23    2
     5    25    20    2
     6    23    22    1
     7    18    16    1
     8    20    16    1
     9    20    21    1
    10    22    21    2
    11    16    15   am
    12    19    14    1
    13     3     2    1
    14     3     4    2
    15     2     1    2
    16    15    14   am
    17    15    17    2
    18    14    13    1
    19    12     4    1
    20    12    10    1
    21     4     5    1
    22     1    13    1
    23     1     6    1
    24    11    10    1
    25    10     7    1
    26     5     6    2
    27     5     7    1
    28     7     8   am
    29     8     9    2
    30     8    28    1
    31    28    29    2
    32    28    33    1
    33    29    30    1
    34    33    32    2
    35    30    31    2
    36    32    31    1
