@<TRIPOS>MOLECULE
19486_out_ligand_01.pdbqt
 32 36 0 0 0
SMALL
GASTEIGER

@<TRIPOS>ATOM
      1  C         20.1240  -22.5500   -7.5270 C.2     1  UNL1        0.0320
      2  C         20.1530  -23.6740   -8.3630 C.2     1  UNL1        0.0170
      3  C         21.2880  -23.9420   -9.1350 C.2     1  UNL1        0.0100
      4  C         22.4050  -23.0950   -9.0790 C.2     1  UNL1       -0.0400
      5  C         22.3730  -21.9810   -8.2270 C.2     1  UNL1        0.0100
      6  C         21.2420  -21.7130   -7.4510 C.2     1  UNL1        0.0170
      7  C         23.6410  -23.3900   -9.9020 C.3     1  UNL1        0.1700
      8  N         23.5630  -22.8260  -11.2490 N.am    1  UNL1       -0.3170
      9  C         22.4620  -22.0490  -11.5980 C.2     1  UNL1        0.1140
     10  C         22.3480  -21.5350  -12.8290 C.2     1  UNL1        0.1360
     11  N         23.3280  -21.7740  -13.7780 N.ar    1  UNL1       -0.2370
     12  N         23.3620  -21.3260  -15.0610 N.ar    1  UNL1       -0.1720
     13  C         24.4360  -22.5430  -13.4750 C.ar    1  UNL1        0.1340
     14  C         24.4920  -21.8330  -15.5570 C.ar    1  UNL1        0.0640
     15  C         25.2100  -22.5940  -14.6130 C.ar    1  UNL1        0.0030
     16  C         24.9580  -21.5900  -16.9500 C.3     1  UNL1        0.0620
     17  C         26.4950  -23.2790  -14.9080 C.3     1  UNL1        0.0430
     18  C         27.1170  -22.7430  -16.2110 C.3     1  UNL1        0.0050
     19  C         26.0740  -22.5810  -17.3330 C.3     1  UNL1        0.0060
     20  C         24.5980  -23.1220  -12.1620 C.2     1  UNL1        0.2770
     21  O         25.5650  -23.8200  -11.8630 O.2     1  UNL1       -0.2650
     22  C         18.9370  -22.2310   -6.6860 C.2     1  UNL1        0.2560
     23  O         19.0200  -21.3030   -5.8910 O.2     1  UNL1       -0.2670
     24  N         17.8270  -23.0210   -6.9280 N.am    1  UNL1       -0.3230
     25  H         17.8810  -23.6540   -7.7150 H       1  UNL1        0.1690
     26  C         16.5830  -22.9760   -6.2620 C.2     1  UNL1        0.0370
     27  C         15.4990  -22.2000   -6.6820 C.2     1  UNL1        0.0290
     28  C         14.2970  -22.2030   -5.9630 C.2     1  UNL1        0.0050
     29  C         14.1720  -22.9790   -4.8150 C.2     1  UNL1        0.0420
     30  C         15.2510  -23.7460   -4.3970 C.2     1  UNL1        0.1180
     31  F         15.1390  -24.4950   -3.2910 F       1  UNL1       -0.2060
     32  C         16.4500  -23.7510   -5.1040 C.2     1  UNL1        0.0710
@<TRIPOS>BOND
     1    19    16    1
     2    19    18    1
     3    16    14    1
     4    18    17    1
     5    14    12   ar
     6    14    15   ar
     7    12    11   ar
     8    17    15    1
     9    15    13   ar
    10    11    13   ar
    11    11    10    1
    12    13    20    1
    13    10     9    2
    14    20    21    2
    15    20     8   am
    16     9     8    1
    17     8     7    1
    18     7     4    1
    19     3     4    2
    20     3     2    1
    21     4     5    1
    22     2     1    2
    23     5     6    2
    24    25    24    1
    25     1     6    1
    26     1    22    1
    27    24    22   am
    28    24    26    1
    29    22    23    2
    30    27    26    2
    31    27    28    1
    32    26    32    1
    33    28    29    2
    34    32    30    2
    35    29    30    1
    36    30    31    1
