@<TRIPOS>MOLECULE
19491_out_ligand_01.pdbqt
 30 33 0 0 0
SMALL
GASTEIGER

@<TRIPOS>ATOM
      1  C         21.5370  -22.3040  -11.4270 C.2     1  UNL1        0.0320
      2  C         20.7090  -21.4760  -12.1940 C.2     1  UNL1        0.0180
      3  C         19.3730  -21.2900  -11.8290 C.2     1  UNL1        0.0190
      4  C         18.8680  -21.9100  -10.6820 C.2     1  UNL1        0.0450
      5  C         19.7020  -22.7150   -9.8910 C.2     1  UNL1       -0.0380
      6  C         21.0360  -22.9190  -10.2710 C.2     1  UNL1        0.0250
      7  C         19.1260  -23.3650   -8.6640 C.3     1  UNL1        0.0770
      8  C         18.0450  -22.4450   -8.0940 C.3     1  UNL1        0.1690
      9  O         17.0500  -22.1940   -9.1110 O.3     1  UNL1       -0.3070
     10  C         17.4330  -21.7320  -10.3280 C.2     1  UNL1        0.2940
     11  O         16.6440  -21.2220  -11.1100 O.2     1  UNL1       -0.2590
     12  C         22.9550  -22.4800  -11.8490 C.2     1  UNL1        0.2560
     13  N         23.3020  -21.8030  -13.0040 N.am    1  UNL1       -0.3230
     14  H         22.6160  -21.1660  -13.3870 H       1  UNL1        0.1690
     15  O         23.6830  -23.1660  -11.1430 O.2     1  UNL1       -0.2670
     16  C         24.5500  -21.8190  -13.6640 C.2     1  UNL1        0.0370
     17  C         25.5800  -21.0570  -13.0960 C.2     1  UNL1        0.0290
     18  C         26.8410  -21.0140  -13.6910 C.2     1  UNL1        0.0050
     19  C         27.0780  -21.7310  -14.8600 C.2     1  UNL1        0.0370
     20  C         26.0640  -22.4930  -15.4410 C.2     1  UNL1        0.0700
     21  C         24.8010  -22.5320  -14.8430 C.2     1  UNL1        0.0660
     22  O         26.4310  -23.1450  -16.5880 O.2     1  UNL1       -0.3560
     23  C         25.9750  -22.5900  -17.8170 C.3     1  UNL1        0.2100
     24  C         17.3130  -22.9550   -6.8610 C.2     1  UNL1       -0.0280
     25  C         17.9590  -23.2960   -5.6600 C.2     1  UNL1        0.0130
     26  C         17.2250  -23.7450   -4.5590 C.2     1  UNL1        0.0430
     27  C         15.8430  -23.8560   -4.6480 C.2     1  UNL1        0.1160
     28  F         15.1460  -24.2850   -3.5880 F       1  UNL1       -0.2060
     29  C         15.1780  -23.5250   -5.8190 C.2     1  UNL1        0.0430
     30  C         15.9100  -23.0770   -6.9190 C.2     1  UNL1        0.0130
@<TRIPOS>BOND
     1    23    22    1
     2    22    20    1
     3    20    19    2
     4    20    21    1
     5    19    18    1
     6    21    16    2
     7    18    17    2
     8    16    17    1
     9    16    13    1
    10    14    13    1
    11    13    12   am
    12     2     3    1
    13     2     1    2
    14    12     1    1
    15    12    15    2
    16     3     4    2
    17     1     6    1
    18    11    10    2
    19     4    10    1
    20     4     5    1
    21    10     9    1
    22     6     5    2
    23     5     7    1
    24     9     8    1
    25     7     8    1
    26     8    24    1
    27    30    24    2
    28    30    29    1
    29    24    25    1
    30    29    27    2
    31    25    26    2
    32    27    26    1
    33    27    28    1
