@<TRIPOS>MOLECULE
19526_out_ligand_01.pdbqt
 30 33 0 0 0
SMALL
GASTEIGER

@<TRIPOS>ATOM
      1  C         26.7600  -22.8520  -11.0910 C.3     1  UNL1        0.0480
      2  C         25.3110  -22.9500  -10.7050 C.2     1  UNL1       -0.0610
      3  C         24.9380  -23.6050   -9.5290 C.2     1  UNL1        0.0090
      4  C         23.5990  -23.6830   -9.1320 C.2     1  UNL1        0.0310
      5  C         22.6430  -23.0720   -9.9500 C.ar    1  UNL1        0.0430
      6  N         21.2810  -22.9920   -9.8080 N.ar    1  UNL1       -0.3520
      7  C         20.7240  -22.2900  -10.8470 C.ar    1  UNL1        0.0950
      8  C         19.3130  -22.0770  -10.9110 C.2     1  UNL1        0.2230
      9  N         18.4720  -22.5430  -10.0090 N.2     1  UNL1       -0.2030
     10  C         17.2590  -22.1110  -10.4840 C.2     1  UNL1        0.1580
     11  N         17.3170  -21.3950  -11.6120 N.4     1  UNL1       -0.1110
     12  O         18.6810  -21.3760  -11.9050 O.2     1  UNL1       -0.1890
     13  C         21.7500  -21.8980  -11.6920 C.ar    1  UNL1       -0.0180
     14  C         21.6170  -21.1120  -12.9500 C.3     1  UNL1        0.0520
     15  C         22.9710  -22.3960  -11.1230 C.ar    1  UNL1       -0.0010
     16  C         24.3300  -22.3320  -11.5000 C.2     1  UNL1        0.0210
     17  H         20.7500  -23.3910   -9.0450 H       1  UNL1        0.1660
     18  C         15.9830  -22.3900   -9.7800 C.3     1  UNL1        0.1030
     19  C         16.1250  -22.4310   -8.2560 C.3     1  UNL1        0.1330
     20  N         16.4830  -23.7520   -7.7110 N.am    1  UNL1       -0.3520
     21  C         15.6500  -24.8810   -8.1000 C.3     1  UNL1        0.1520
     22  C         17.3560  -23.9490   -6.6380 C.2     1  UNL1        0.2540
     23  O         17.4830  -25.0140   -6.0400 O.2     1  UNL1       -0.2670
     24  C         18.1830  -22.8120   -6.1840 C.2     1  UNL1        0.0380
     25  C         19.3240  -22.4990   -6.9330 C.2     1  UNL1        0.0170
     26  C         20.1420  -21.4430   -6.5380 C.2     1  UNL1        0.0010
     27  C         19.8140  -20.6970   -5.4060 C.2     1  UNL1        0.0010
     28  C         18.6600  -20.9930   -4.6740 C.2     1  UNL1        0.0070
     29  C         17.8180  -22.0470   -5.0610 C.2     1  UNL1       -0.0460
     30  C         16.5710  -22.3390   -4.2790 C.3     1  UNL1        0.0490
@<TRIPOS>BOND
     1    14    13    1
     2    12    11    1
     3    12     8    1
     4    13    15   ar
     5    13     7   ar
     6    11    10    1
     7    16    15    1
     8    16     2    2
     9    15     5   ar
    10     1     2    1
    11     8     7    1
    12     8     9    2
    13     7     6   ar
    14     2     3    1
    15    10     9    2
    16    10    18    1
    17     5     6   ar
    18     5     4    1
    19     6    17    1
    20    18    19    1
    21     3     4    2
    22    19    20    1
    23    21    20    1
    24    20    22   am
    25    25    26    1
    26    25    24    2
    27    22    24    1
    28    22    23    2
    29    26    27    2
    30    24    29    1
    31    27    28    1
    32    29    28    2
    33    29    30    1
