@<TRIPOS>MOLECULE
19547_out_ligand_01.pdbqt
 33 36 0 0 0
SMALL
GASTEIGER

@<TRIPOS>ATOM
      1  C         20.0930  -22.1680  -10.9370 C.2     1  UNL1       -0.0380
      2  C         19.1760  -21.7160  -11.9120 C.2     1  UNL1        0.0090
      3  C         17.8050  -21.6500  -11.6400 C.2     1  UNL1        0.0100
      4  C         17.3670  -21.9980  -10.3740 C.2     1  UNL1       -0.0300
      5  C         18.2610  -22.4270   -9.3920 C.2     1  UNL1        0.0440
      6  C         19.6170  -22.5200   -9.6570 C.2     1  UNL1        0.0390
      7  N         17.5740  -22.6780   -8.1870 N.am    1  UNL1       -0.3130
      8  C         18.1410  -23.1780   -7.0290 C.2     1  UNL1        0.2580
      9  O         19.2800  -23.6220   -6.9090 O.2     1  UNL1       -0.2670
     10  C         16.1620  -22.2890   -8.3770 C.3     1  UNL1        0.1370
     11  C         15.9580  -22.0250   -9.8740 C.3     1  UNL1        0.0610
     12  C         21.5810  -22.2100  -11.2070 C.3     1  UNL1        0.1630
     13  N         21.9200  -21.7880  -12.5540 N.am    1  UNL1       -0.3390
     14  C         23.2330  -21.6000  -12.9350 C.2     1  UNL1        0.3210
     15  N         23.3090  -21.0800  -14.2050 N.am    1  UNL1       -0.3060
     16  O         24.1730  -21.8670  -12.1980 O.2     1  UNL1       -0.2470
     17  H         22.4530  -21.0400  -14.7440 H       1  UNL1        0.1710
     18  H         21.2100  -21.2670  -13.0480 H       1  UNL1        0.1640
     19  C         24.4570  -20.6740  -14.9270 C.2     1  UNL1        0.0700
     20  C         25.2100  -19.5430  -14.6020 C.2     1  UNL1        0.0390
     21  C         26.3400  -19.1950  -15.3530 C.2     1  UNL1       -0.0600
     22  C         26.6910  -19.9780  -16.4580 C.2     1  UNL1        0.0090
     23  C         27.1200  -17.9660  -15.0070 C.3     1  UNL1        0.0480
     24  C         25.9400  -21.1080  -16.7980 C.2     1  UNL1        0.0390
     25  C         24.8240  -21.4610  -16.0390 C.2     1  UNL1        0.0950
     26  O         24.0180  -22.5490  -16.2860 O.2     1  UNL1       -0.3540
     27  C         24.4260  -23.4290  -17.3230 C.3     1  UNL1        0.2100
     28  C         17.2920  -23.1780   -5.8170 C.2     1  UNL1        0.0320
     29  C         16.1530  -23.9890   -5.7770 C.2     1  UNL1        0.0170
     30  C         15.3500  -23.9890   -4.6300 C.2     1  UNL1        0.0010
     31  C         15.6900  -23.1890   -3.5360 C.2     1  UNL1        0.0000
     32  C         16.8480  -22.4020   -3.5700 C.2     1  UNL1        0.0010
     33  C         17.6600  -22.4030   -4.7070 C.2     1  UNL1        0.0170
@<TRIPOS>BOND
     1    27    26    1
     2    24    22    2
     3    24    25    1
     4    22    21    1
     5    26    25    1
     6    25    19    2
     7    21    23    1
     8    21    20    2
     9    19    20    1
    10    19    15    1
    11    17    15    1
    12    15    14   am
    13    18    13    1
    14    14    13   am
    15    14    16    2
    16    13    12    1
    17     2     3    1
    18     2     1    2
    19     3     4    2
    20    12     1    1
    21     1     6    1
    22     4    11    1
    23     4     5    1
    24    11    10    1
    25     6     5    2
    26     5     7    1
    27    10     7    1
    28     7     8   am
    29     8     9    2
    30     8    28    1
    31    28    29    2
    32    28    33    1
    33    29    30    1
    34    33    32    2
    35    30    31    2
    36    32    31    1
