@<TRIPOS>MOLECULE
19582_out_ligand_01.pdbqt
 30 32 0 0 0
SMALL
GASTEIGER

@<TRIPOS>ATOM
      1  C         20.9530  -22.8990   -8.1490 C.2     1  UNL1        0.0320
      2  C         20.7830  -21.8130   -7.2830 C.2     1  UNL1        0.0180
      3  C         19.6460  -21.7370   -6.4690 C.2     1  UNL1        0.0150
      4  C         18.6610  -22.7380   -6.4990 C.2     1  UNL1       -0.0050
      5  C         18.8650  -23.8420   -7.3450 C.2     1  UNL1        0.0150
      6  C         19.9970  -23.9210   -8.1630 C.2     1  UNL1        0.0180
      7  C         22.1430  -23.0290   -9.0410 C.2     1  UNL1        0.2560
      8  N         22.3640  -21.9610   -9.8850 N.am    1  UNL1       -0.3210
      9  H         21.6780  -21.2160   -9.9210 H       1  UNL1        0.1690
     10  O         22.7990  -24.0630   -8.9860 O.2     1  UNL1       -0.2670
     11  C         23.4130  -21.7810  -10.8150 C.2     1  UNL1        0.0680
     12  C         24.7330  -21.5120  -10.4470 C.2     1  UNL1        0.0320
     13  C         25.7150  -21.3480  -11.4260 C.2     1  UNL1        0.0020
     14  C         25.3830  -21.4510  -12.7740 C.2     1  UNL1        0.0030
     15  C         24.0650  -21.7150  -13.1550 C.2     1  UNL1        0.0390
     16  C         23.0730  -21.8750  -12.1830 C.2     1  UNL1        0.0950
     17  O         21.7460  -22.1380  -12.4380 O.2     1  UNL1       -0.3490
     18  C         20.8320  -21.0470  -12.5330 C.3     1  UNL1        0.1710
     19  C         19.5340  -21.3690  -11.8130 C.3     1  UNL1        0.0340
     20  C         17.4680  -22.6400   -5.6390 C.2     1  UNL1        0.0930
     21  N         17.7540  -22.7280   -4.3110 N.2     1  UNL1       -0.2580
     22  C         16.7200  -22.6830   -3.4470 C.2     1  UNL1        0.1170
     23  C         15.4040  -22.5450   -3.8380 C.2     1  UNL1        0.0220
     24  C         15.1230  -22.4350   -5.2000 C.2     1  UNL1        0.0330
     25  C         16.1570  -22.4720   -6.1370 C.2     1  UNL1        0.0640
     26  N         15.9370  -22.3230   -7.5320 N.am    1  UNL1       -0.3250
     27  C         15.7050  -23.3160   -8.4640 C.2     1  UNL1        0.2180
     28  C         15.4980  -22.7590   -9.8510 C.3     1  UNL1        0.1170
     29  O         15.6390  -24.5220   -8.2560 O.2     1  UNL1       -0.2740
     30  H         15.9250  -21.3700   -7.8770 H       1  UNL1        0.1690
@<TRIPOS>BOND
     1    15    14    2
     2    15    16    1
     3    14    13    1
     4    18    17    1
     5    18    19    1
     6    17    16    1
     7    16    11    2
     8    13    12    2
     9    11    12    1
    10    11     8    1
    11     9     8    1
    12     8     7   am
    13    28    27    1
    14     7    10    2
    15     7     1    1
    16    27    29    2
    17    27    26   am
    18     6     1    2
    19     6     5    1
    20     1     2    1
    21    30    26    1
    22    26    25    1
    23     5     4    2
    24     2     3    2
    25     4     3    1
    26     4    20    1
    27    25    20    2
    28    25    24    1
    29    20    21    1
    30    24    23    2
    31    21    22    2
    32    23    22    1
