@<TRIPOS>MOLECULE
19584_out_ligand_01.pdbqt
 34 38 0 0 0
SMALL
GASTEIGER

@<TRIPOS>ATOM
      1  C         21.9400  -22.8380   -8.9530 C.2     1  UNL1        0.0810
      2  C         22.0220  -24.2110   -9.0400 C.2     1  UNL1        0.0370
      3  C         20.7830  -24.7140   -8.5780 C.2     1  UNL1        0.0390
      4  C         20.0050  -23.6180   -8.2380 C.2     1  UNL1        0.0970
      5  O         20.7210  -22.4750   -8.4650 O.2     1  UNL1       -0.3140
      6  C         18.6260  -23.4840   -7.6120 C.3     1  UNL1        0.1610
      7  O         18.3110  -24.8430   -7.2520 O.3     1  UNL1       -0.3730
      8  H         17.3720  -24.9610   -7.4840 H       1  UNL1        0.2120
      9  C         17.5570  -23.0060   -8.6090 C.2     1  UNL1       -0.0100
     10  C         16.2080  -23.4060   -8.4970 C.2     1  UNL1        0.0110
     11  C         15.2510  -23.0030   -9.4350 C.2     1  UNL1        0.0040
     12  C         15.6250  -22.2030  -10.5090 C.2     1  UNL1        0.0420
     13  C         16.9510  -21.8110  -10.6390 C.2     1  UNL1        0.1170
     14  F         17.3130  -21.0520  -11.6800 F       1  UNL1       -0.2060
     15  C         17.9100  -22.2030   -9.7100 C.2     1  UNL1        0.0530
     16  C         18.5800  -22.6210   -6.3330 C.2     1  UNL1       -0.0100
     17  C         17.9460  -23.0880   -5.1610 C.2     1  UNL1        0.0110
     18  C         17.9080  -22.3150   -3.9970 C.2     1  UNL1        0.0040
     19  C         18.5100  -21.0620   -3.9750 C.2     1  UNL1        0.0420
     20  C         19.1570  -20.5980   -5.1120 C.2     1  UNL1        0.1170
     21  F         19.7400  -19.3920   -5.0910 F       1  UNL1       -0.2060
     22  C         19.2040  -21.3620   -6.2750 C.2     1  UNL1        0.0530
     23  C         22.8910  -21.7280   -9.2600 C.3     1  UNL1        0.3380
     24  N         23.3740  -21.7570  -10.6540 N.3     1  UNL1        0.1030
     25  C         24.6580  -22.4620  -10.7850 C.3     1  UNL1        0.3200
     26  C         25.5080  -21.9740  -11.9350 C.2     1  UNL1        0.0160
     27  S         26.2750  -20.4420  -11.8240 S.3     1  UNL1       -0.1040
     28  C         26.9460  -20.5880  -13.3840 C.2     1  UNL1        0.0510
     29  C         26.6010  -21.7780  -13.9820 C.2     1  UNL1        0.0150
     30  C         25.7570  -22.5900  -13.1570 C.2     1  UNL1       -0.0470
     31  C         25.2180  -23.9200  -13.5740 C.3     1  UNL1        0.0490
     32  C         22.3300  -22.1590  -11.6290 C.3     1  UNL1        0.2240
     33  C         22.1360  -21.4070  -12.9220 C.3     1  UNL1        0.0380
     34  C         21.0530  -21.4020  -11.8870 C.3     1  UNL1        0.0380
@<TRIPOS>BOND
     1    29    28    2
     2    29    30    1
     3    31    30    1
     4    28    27    1
     5    30    26    2
     6    33    34    1
     7    33    32    1
     8    26    27    1
     9    26    25    1
    10    34    32    1
    11    14    13    1
    12    32    24    1
    13    25    24    1
    14    24    23    1
    15    13    12    2
    16    13    15    1
    17    12    11    1
    18    15     9    2
    19    11    10    2
    20    23     1    1
    21     2     1    2
    22     2     3    1
    23     1     5    1
    24     9    10    1
    25     9     6    1
    26     3     4    2
    27     5     4    1
    28     4     6    1
    29     6     7    1
    30     6    16    1
    31     8     7    1
    32    16    22    2
    33    16    17    1
    34    22    20    1
    35    17    18    2
    36    20    21    1
    37    20    19    2
    38    18    19    1
