@<TRIPOS>MOLECULE
19590_out_ligand_01.pdbqt
 29 32 0 0 0
SMALL
GASTEIGER

@<TRIPOS>ATOM
      1  C         21.1410  -21.6500  -11.3770 C.2     1  UNL1        0.1030
      2  C         20.2110  -20.6570  -11.6360 C.2     1  UNL1        0.0370
      3  C         18.9780  -21.0600  -11.0930 C.2     1  UNL1        0.0290
      4  C         19.1680  -22.2780  -10.4680 C.2     1  UNL1        0.0300
      5  N         20.4990  -22.6100  -10.6020 N.pl3   1  UNL1       -0.3440
      6  C         21.2000  -23.6990   -9.9390 C.3     1  UNL1        0.1310
      7  C         20.5020  -24.4370   -8.7960 C.3     1  UNL1        0.0400
      8  C         19.7540  -23.5170   -7.8350 C.3     1  UNL1        0.1280
      9  N         18.4390  -23.0770   -8.3160 N.am    1  UNL1       -0.3420
     10  C         17.4020  -22.6980   -7.4620 C.2     1  UNL1        0.2540
     11  O         16.2340  -22.5620   -7.8200 O.2     1  UNL1       -0.2670
     12  C         18.1590  -23.1050   -9.7460 C.3     1  UNL1        0.1830
     13  C         22.5310  -21.6410  -11.7830 C.2     1  UNL1        0.2680
     14  O         23.4650  -21.6900  -10.9910 O.2     1  UNL1       -0.2660
     15  N         22.7120  -21.5140  -13.1420 N.am    1  UNL1       -0.3510
     16  H         21.9180  -21.1850  -13.6750 H       1  UNL1        0.1630
     17  C         24.0250  -21.3050  -13.7110 C.3     1  UNL1        0.1630
     18  C         24.5930  -22.5820  -14.2580 C.2     1  UNL1       -0.0230
     19  C         24.6250  -22.8370  -15.6320 C.2     1  UNL1        0.0120
     20  C         25.1440  -24.0400  -16.1010 C.2     1  UNL1        0.0200
     21  C         25.6160  -24.9550  -15.1750 C.2     1  UNL1        0.1160
     22  N         25.6010  -24.7480  -13.8410 N.2     1  UNL1       -0.2730
     23  C         25.0910  -23.5700  -13.4150 C.2     1  UNL1        0.1240
     24  C         17.7070  -22.4510   -6.0360 C.2     1  UNL1        0.0320
     25  C         18.4140  -21.3090   -5.6480 C.2     1  UNL1        0.0170
     26  C         18.6770  -21.0850   -4.2960 C.2     1  UNL1        0.0010
     27  C         18.2210  -21.9930   -3.3380 C.2     1  UNL1        0.0000
     28  C         17.4930  -23.1200   -3.7250 C.2     1  UNL1        0.0010
     29  C         17.2270  -23.3480   -5.0760 C.2     1  UNL1        0.0170
@<TRIPOS>BOND
     1    20    19    1
     2    20    21    2
     3    19    18    2
     4    21    22    1
     5    18    17    1
     6    18    23    1
     7    22    23    2
     8    17    15    1
     9    16    15    1
    10    15    13   am
    11    13     1    1
    12    13    14    2
    13     2     1    2
    14     2     3    1
    15     1     5    1
    16     3     4    2
    17     5     4    1
    18     5     6    1
    19     4    12    1
    20     6     7    1
    21    12     9    1
    22     7     8    1
    23     9     8    1
    24     9    10   am
    25    11    10    2
    26    10    24    1
    27    24    25    2
    28    24    29    1
    29    25    26    1
    30    29    28    2
    31    26    27    2
    32    28    27    1
