@<TRIPOS>MOLECULE
19603_out_ligand_01.pdbqt
 36 39 0 0 0
SMALL
GASTEIGER

@<TRIPOS>ATOM
      1  N         21.9530  -22.6340  -10.9350 N.ar    1  UNL1       -0.2650
      2  C         21.1300  -21.7970  -11.6710 C.ar    1  UNL1        0.2640
      3  O         21.5220  -21.0700  -12.5800 O.2     1  UNL1       -0.2670
      4  C         19.7070  -21.7790  -11.3100 C.ar    1  UNL1        0.0590
      5  C         18.8250  -20.9740  -12.0500 C.2     1  UNL1        0.0190
      6  C         17.4740  -20.9340  -11.7260 C.2     1  UNL1        0.0010
      7  C         17.0090  -21.6970  -10.6630 C.2     1  UNL1        0.0020
      8  C         17.8940  -22.4940   -9.9260 C.2     1  UNL1        0.0310
      9  C         19.2610  -22.5510  -10.2380 C.ar    1  UNL1        0.0550
     10  N         20.1950  -23.3370   -9.5010 N.ar    1  UNL1       -0.2940
     11  C         21.5510  -23.3670   -9.8260 C.ar    1  UNL1        0.3320
     12  O         22.3630  -24.0130   -9.1560 O.2     1  UNL1       -0.2460
     13  C         23.3640  -22.6820  -11.3080 C.3     1  UNL1        0.1370
     14  C         24.1880  -21.6010  -10.5990 C.3     1  UNL1        0.0290
     15  C         25.6930  -21.7490  -10.8180 C.3     1  UNL1        0.1040
     16  C         26.3000  -20.5000  -11.4200 C.2     1  UNL1        0.2170
     17  N         26.6230  -20.6350  -12.7520 N.am    1  UNL1       -0.3610
     18  H         26.6920  -21.5650  -13.1510 H       1  UNL1        0.1620
     19  O         26.4140  -19.4540  -10.7880 O.2     1  UNL1       -0.2740
     20  C         27.0920  -19.5130  -13.5440 C.3     1  UNL1        0.1270
     21  C         26.0620  -19.0700  -14.5900 C.3     1  UNL1        0.0580
     22  C         25.5120  -20.2120  -15.4160 C.2     1  UNL1       -0.0570
     23  C         24.6270  -21.1390  -14.8530 C.2     1  UNL1        0.0070
     24  C         24.1510  -22.2160  -15.6070 C.2     1  UNL1        0.0070
     25  C         24.5440  -22.3830  -16.9390 C.2     1  UNL1       -0.0620
     26  C         24.0400  -23.5540  -17.7250 C.3     1  UNL1        0.0480
     27  C         25.4150  -21.4500  -17.5070 C.2     1  UNL1        0.0070
     28  C         25.8920  -20.3720  -16.7550 C.2     1  UNL1        0.0070
     29  C         19.7610  -24.1580   -8.3630 C.3     1  UNL1        0.1720
     30  C         19.2260  -23.3420   -7.2000 C.2     1  UNL1       -0.0400
     31  C         19.7800  -22.0880   -6.8930 C.2     1  UNL1        0.0120
     32  C         19.2950  -21.3390   -5.8200 C.2     1  UNL1        0.0430
     33  C         18.2520  -21.8390   -5.0500 C.2     1  UNL1        0.1160
     34  F         17.7950  -21.1230   -4.0150 F       1  UNL1       -0.2060
     35  C         17.6700  -23.0630   -5.3470 C.2     1  UNL1        0.0430
     36  C         18.1500  -23.8100   -6.4260 C.2     1  UNL1        0.0120
@<TRIPOS>BOND
     1    26    25    1
     2    27    25    2
     3    27    28    1
     4    25    24    1
     5    28    22    2
     6    24    23    2
     7    22    23    1
     8    22    21    1
     9    21    20    1
    10    20    17    1
    11    18    17    1
    12    17    16   am
    13     3     2    2
    14     5     6    1
    15     5     4    2
    16     6     7    2
    17     2     4   ar
    18     2     1   ar
    19    16    15    1
    20    16    19    2
    21     4     9   ar
    22    13     1    1
    23    13    14    1
    24     1    11   ar
    25    15    14    1
    26     7     8    1
    27     9     8    2
    28     9    10   ar
    29    11    10   ar
    30    11    12    2
    31    10    29    1
    32    29    30    1
    33    30    31    2
    34    30    36    1
    35    31    32    1
    36    36    35    2
    37    32    33    2
    38    35    33    1
    39    33    34    1
