@<TRIPOS>MOLECULE
19624_out_ligand_01.pdbqt
 34 37 0 0 0
SMALL
GASTEIGER

@<TRIPOS>ATOM
      1  C         21.4760  -23.5420   -9.3420 C.2     1  UNL1        0.1610
      2  N         21.6360  -24.7190   -8.6100 N.2     1  UNL1       -0.2280
      3  C         20.4100  -25.1710   -8.4900 C.2     1  UNL1        0.2590
      4  O         19.4530  -24.4240   -9.0970 O.2     1  UNL1       -0.3010
      5  C         20.1360  -23.3580   -9.6300 C.2     1  UNL1        0.1220
      6  C         19.3180  -22.3830  -10.3330 C.2     1  UNL1        0.0160
      7  C         19.8720  -21.6490  -11.3940 C.2     1  UNL1        0.0150
      8  C         19.1030  -20.7290  -12.1130 C.2     1  UNL1        0.0010
      9  C         17.7650  -20.5230  -11.7840 C.2     1  UNL1        0.0010
     10  C         17.1930  -21.2380  -10.7330 C.2     1  UNL1        0.0180
     11  C         17.9660  -22.1650  -10.0140 C.2     1  UNL1        0.0450
     12  C         17.3190  -22.8760   -8.8840 C.2     1  UNL1        0.2570
     13  O         16.6220  -23.8520   -9.1240 O.2     1  UNL1       -0.2670
     14  N         17.6030  -22.3200   -7.6490 N.am    1  UNL1       -0.3230
     15  H         18.1600  -21.4750   -7.6520 H       1  UNL1        0.1690
     16  C         17.1480  -22.7630   -6.3900 C.2     1  UNL1        0.0370
     17  C         15.8100  -22.4930   -6.0640 C.2     1  UNL1        0.0290
     18  C         15.2750  -22.8950   -4.8360 C.2     1  UNL1        0.0050
     19  C         16.0770  -23.5730   -3.9230 C.2     1  UNL1        0.0420
     20  C         17.4030  -23.8390   -4.2480 C.2     1  UNL1        0.1180
     21  F         18.1710  -24.4930   -3.3670 F       1  UNL1       -0.2060
     22  C         17.9440  -23.4410   -5.4670 C.2     1  UNL1        0.0710
     23  C         22.6060  -22.6830   -9.6940 C.2     1  UNL1        0.2770
     24  N         23.3860  -23.2770  -10.6680 N.am    1  UNL1       -0.3210
     25  H         23.0410  -24.1900  -10.9480 H       1  UNL1        0.1690
     26  O         22.7820  -21.5860   -9.1790 O.2     1  UNL1       -0.2660
     27  C         24.5620  -22.8000  -11.2830 C.2     1  UNL1        0.0410
     28  C         25.8330  -23.0610  -10.7570 C.2     1  UNL1        0.0300
     29  C         26.9870  -22.5890  -11.3880 C.2     1  UNL1        0.0020
     30  C         26.8860  -21.8480  -12.5580 C.2     1  UNL1        0.0010
     31  C         25.6310  -21.5770  -13.0960 C.2     1  UNL1        0.0090
     32  C         24.4560  -22.0390  -12.4700 C.2     1  UNL1       -0.0320
     33  C         23.1360  -21.7060  -13.1300 C.3     1  UNL1        0.0360
     34  C         23.3050  -20.7580  -14.3090 C.3     1  UNL1        0.0100
@<TRIPOS>BOND
     1    34    33    1
     2    33    32    1
     3    31    30    2
     4    31    32    1
     5    30    29    1
     6    32    27    2
     7     8     9    2
     8     8     7    1
     9     9    10    1
    10     7     6    2
    11    29    28    2
    12    27    28    1
    13    27    24    1
    14    25    24    1
    15    10    11    2
    16    24    23   am
    17     6    11    1
    18     6     5    1
    19    11    12    1
    20    23     1    1
    21    23    26    2
    22     5     1    2
    23     5     4    1
    24     1     2    1
    25    13    12    2
    26     4     3    1
    27    12    14   am
    28     2     3    2
    29    15    14    1
    30    14    16    1
    31    16    17    2
    32    16    22    1
    33    17    18    1
    34    22    20    2
    35    18    19    2
    36    20    19    1
    37    20    21    1
