@<TRIPOS>MOLECULE
19625_out_ligand_01.pdbqt
 30 32 0 0 0
SMALL
GASTEIGER

@<TRIPOS>ATOM
      1  C         18.8590  -23.1540   -6.9680 C.2     1  UNL1       -0.0050
      2  C         19.7890  -22.1080   -6.8490 C.2     1  UNL1        0.0150
      3  C         20.9760  -22.1130   -7.5880 C.2     1  UNL1        0.0180
      4  C         21.2620  -23.1700   -8.4600 C.2     1  UNL1        0.0320
      5  C         20.3640  -24.2390   -8.5600 C.2     1  UNL1        0.0180
      6  C         19.1750  -24.2260   -7.8220 C.2     1  UNL1        0.0150
      7  C         17.6020  -23.1590   -6.1960 C.2     1  UNL1        0.0930
      8  N         17.7330  -23.7190   -4.9630 N.2     1  UNL1       -0.2580
      9  C         16.6450  -23.7370   -4.1670 C.2     1  UNL1        0.1170
     10  C         15.4170  -23.2290   -4.5430 C.2     1  UNL1        0.0220
     11  C         15.2880  -22.6750   -5.8160 C.2     1  UNL1        0.0330
     12  C         16.3830  -22.6350   -6.6810 C.2     1  UNL1        0.0640
     13  N         16.3000  -22.1250   -8.0030 N.am    1  UNL1       -0.3250
     14  C         15.9690  -22.8110   -9.1610 C.2     1  UNL1        0.2210
     15  O         15.6700  -23.9950   -9.2450 O.2     1  UNL1       -0.2730
     16  H         16.5260  -21.1440   -8.1140 H       1  UNL1        0.1690
     17  C         16.0120  -21.8940  -10.3750 C.3     1  UNL1        0.0980
     18  C         17.4300  -21.5970  -10.8320 C.3     1  UNL1        0.0140
     19  C         22.5420  -23.1330   -9.2250 C.2     1  UNL1        0.2560
     20  O         23.3860  -23.9860   -8.9770 O.2     1  UNL1       -0.2670
     21  N         22.6580  -22.0880  -10.1250 N.am    1  UNL1       -0.3230
     22  H         21.9280  -21.3910  -10.1200 H       1  UNL1        0.1690
     23  C         23.7330  -21.8300  -11.0020 C.2     1  UNL1        0.0350
     24  C         24.9900  -21.3970  -10.5900 C.2     1  UNL1        0.0300
     25  C         26.0040  -21.1690  -11.5260 C.2     1  UNL1        0.0090
     26  C         25.7840  -21.3730  -12.8950 C.2     1  UNL1       -0.0560
     27  C         26.9010  -21.1170  -13.8680 C.3     1  UNL1        0.0490
     28  C         24.5180  -21.8160  -13.3240 C.2     1  UNL1       -0.0540
     29  C         24.2240  -22.0530  -14.7800 C.3     1  UNL1        0.0490
     30  C         23.5090  -22.0390  -12.3700 C.2     1  UNL1        0.0370
@<TRIPOS>BOND
     1    29    28    1
     2    27    26    1
     3    28    26    2
     4    28    30    1
     5    26    25    1
     6    30    23    2
     7    25    24    2
     8    23    24    1
     9    23    21    1
    10    18    17    1
    11    17    14    1
    12    21    22    1
    13    21    19   am
    14    15    14    2
    15    19    20    2
    16    19     4    1
    17    14    13   am
    18     5     4    2
    19     5     6    1
    20     4     3    1
    21    16    13    1
    22    13    12    1
    23     6     1    2
    24     3     2    2
    25     1     2    1
    26     1     7    1
    27    12     7    2
    28    12    11    1
    29     7     8    1
    30    11    10    2
    31     8     9    2
    32    10     9    1
