@<TRIPOS>MOLECULE
19630_out_ligand_01.pdbqt
 34 38 0 0 0
SMALL
GASTEIGER

@<TRIPOS>ATOM
      1  C         15.7720  -21.5660  -10.3840 C.3     1  UNL1        0.0480
      2  C         17.2350  -21.7460  -10.6740 C.2     1  UNL1       -0.0600
      3  C         17.8440  -21.0330  -11.7110 C.2     1  UNL1        0.0090
      4  C         19.2060  -21.1800  -11.9550 C.2     1  UNL1        0.0340
      5  C         19.9560  -22.0390  -11.1450 C.2     1  UNL1        0.0870
      6  C         19.3870  -22.7600  -10.0830 C.2     1  UNL1        0.0670
      7  C         18.0120  -22.5950   -9.8630 C.2     1  UNL1        0.0390
      8  N         20.2060  -23.6260   -9.2730 N.am    1  UNL1       -0.3050
      9  C         21.5890  -23.7810   -9.5120 C.2     1  UNL1        0.2960
     10  O         22.2910  -24.5130   -8.8150 O.2     1  UNL1       -0.2640
     11  C         22.1090  -23.0200  -10.6160 C.3     1  UNL1        0.2230
     12  N         23.3480  -22.9740  -11.0630 N.2     1  UNL1       -0.1980
     13  C         23.2770  -22.0930  -12.1230 C.2     1  UNL1        0.2400
     14  N         22.0350  -21.6000  -12.3430 N.pl3   1  UNL1       -0.1390
     15  N         21.3240  -22.2080  -11.3670 N.pl3   1  UNL1       -0.2060
     16  C         24.4390  -21.7100  -12.9620 C.2     1  UNL1        0.2950
     17  O         25.5810  -22.0790  -12.7100 O.2     1  UNL1       -0.2640
     18  N         24.0570  -20.9080  -14.0280 N.am    1  UNL1       -0.3200
     19  H         23.0580  -20.7160  -14.0580 H       1  UNL1        0.1690
     20  C         24.8620  -20.3490  -15.0350 C.2     1  UNL1        0.0380
     21  C         24.9610  -20.8620  -16.3320 C.2     1  UNL1        0.0290
     22  C         25.7870  -20.2470  -17.2810 C.2     1  UNL1        0.0050
     23  C         26.5190  -19.1130  -16.9390 C.2     1  UNL1        0.0420
     24  C         26.4190  -18.6050  -15.6510 C.2     1  UNL1        0.1180
     25  F         27.1210  -17.5150  -15.3170 F       1  UNL1       -0.2060
     26  C         25.6020  -19.2090  -14.7010 C.2     1  UNL1        0.0710
     27  C         19.6360  -24.3700   -8.1460 C.3     1  UNL1        0.1710
     28  C         19.0630  -23.4840   -7.0580 C.2     1  UNL1       -0.0370
     29  C         19.6330  -22.2260   -6.7950 C.2     1  UNL1        0.0090
     30  C         19.1050  -21.3920   -5.8050 C.2     1  UNL1        0.0040
     31  C         17.9900  -21.8000   -5.0760 C.2     1  UNL1        0.0420
     32  C         17.4080  -23.0320   -5.3490 C.2     1  UNL1        0.1170
     33  F         16.3270  -23.4160   -4.6590 F       1  UNL1       -0.2060
     34  C         17.9260  -23.8690   -6.3320 C.2     1  UNL1        0.0510
@<TRIPOS>BOND
     1    22    23    2
     2    22    21    1
     3    23    24    1
     4    21    20    2
     5    24    25    1
     6    24    26    2
     7    20    26    1
     8    20    18    1
     9    19    18    1
    10    18    16   am
    11    16    17    2
    12    16    13    1
    13    14    13    1
    14    14    15    1
    15    13    12    2
    16     4     3    1
    17     4     5    2
    18     3     2    2
    19    15     5    1
    20    15    11    1
    21     5     6    1
    22    12    11    1
    23     2     1    1
    24     2     7    1
    25    11     9    1
    26     6     7    2
    27     6     8    1
    28     9     8   am
    29     9    10    2
    30     8    27    1
    31    27    28    1
    32    28    29    2
    33    28    34    1
    34    29    30    1
    35    34    32    2
    36    30    31    2
    37    32    31    1
    38    32    33    1
