@<TRIPOS>MOLECULE
19635_out_ligand_01.pdbqt
 36 40 0 0 0
SMALL
GASTEIGER

@<TRIPOS>ATOM
      1  C         20.8920  -23.3390   -8.4130 C.2     1  UNL1        0.0320
      2  C         20.1890  -24.5500   -8.3810 C.2     1  UNL1        0.0190
      3  C         19.0160  -24.6830   -7.6270 C.2     1  UNL1        0.0320
      4  C         18.5240  -23.6010   -6.8890 C.2     1  UNL1        0.0570
      5  C         19.2560  -22.3960   -6.8940 C.2     1  UNL1        0.0320
      6  C         20.4290  -22.2660   -7.6480 C.2     1  UNL1        0.0190
      7  C         22.1320  -23.2590   -9.2360 C.2     1  UNL1        0.2570
      8  O         23.0390  -24.0430   -8.9840 O.2     1  UNL1       -0.2670
      9  N         22.1030  -22.3140  -10.2370 N.am    1  UNL1       -0.3010
     10  H         21.2710  -21.7830  -10.4360 H       1  UNL1        0.1710
     11  C         23.1630  -22.1040  -11.0740 C.2     1  UNL1        0.1730
     12  N         23.2770  -22.3510  -12.3510 N.2     1  UNL1       -0.2230
     13  C         24.5380  -21.9800  -12.8000 C.2     1  UNL1        0.0760
     14  C         25.3580  -21.4560  -11.8150 C.2     1  UNL1        0.0850
     15  S         24.5280  -21.4260  -10.3100 S.3     1  UNL1       -0.0610
     16  C         24.9050  -22.1540  -14.2060 C.2     1  UNL1       -0.0070
     17  C         25.6810  -23.2690  -14.5750 C.2     1  UNL1        0.0170
     18  C         26.0570  -23.4770  -15.9050 C.2     1  UNL1        0.0430
     19  C         25.6580  -22.5690  -16.8760 C.2     1  UNL1        0.1160
     20  F         26.0150  -22.7640  -18.1520 F       1  UNL1       -0.2060
     21  C         24.8900  -21.4610  -16.5410 C.2     1  UNL1        0.0430
     22  C         24.5140  -21.2520  -15.2100 C.2     1  UNL1        0.0170
     23  N         17.3350  -23.6730   -6.1050 N.ar    1  UNL1       -0.2170
     24  N         17.3720  -24.2790   -4.8820 N.ar    1  UNL1        0.0030
     25  N         16.1350  -24.2770   -4.4180 N.ar    1  UNL1        0.0190
     26  N         15.2900  -23.6400   -5.2770 N.ar    1  UNL1       -0.1350
     27  C         16.0260  -23.2500   -6.2960 C.ar    1  UNL1        0.2030
     28  S         15.4160  -22.2540   -7.5740 S.3     1  UNL1       -0.0850
     29  C         15.8750  -23.2610   -9.0190 C.3     1  UNL1        0.1210
     30  C         16.8220  -22.5330   -9.9460 C.2     1  UNL1       -0.0480
     31  C         16.6080  -21.1820  -10.2640 C.2     1  UNL1        0.0110
     32  C         17.4680  -20.5150  -11.1360 C.2     1  UNL1        0.0430
     33  C         18.5450  -21.1970  -11.6910 C.2     1  UNL1        0.1160
     34  F         19.3790  -20.5510  -12.5160 F       1  UNL1       -0.2060
     35  C         18.7740  -22.5340  -11.3950 C.2     1  UNL1        0.0430
     36  C         17.9120  -23.2040  -10.5240 C.2     1  UNL1        0.0110
@<TRIPOS>BOND
     1    20    19    1
     2    19    21    2
     3    19    18    1
     4    21    22    1
     5    18    17    2
     6    22    16    2
     7    17    16    1
     8    16    13    1
     9    13    12    1
    10    13    14    2
    11    34    33    1
    12    12    11    2
    13    14    15    1
    14    33    35    2
    15    33    32    1
    16    35    36    1
    17    32    31    2
    18    11    15    1
    19    11     9    1
    20    36    30    2
    21    10     9    1
    22    31    30    1
    23     9     7   am
    24    30    29    1
    25     7     8    2
    26     7     1    1
    27    29    28    1
    28     1     2    2
    29     1     6    1
    30     2     3    1
    31     6     5    2
    32     3     4    2
    33    28    27    1
    34     5     4    1
    35     4    23    1
    36    27    23   ar
    37    27    26   ar
    38    23    24   ar
    39    26    25   ar
    40    24    25   ar
