@<TRIPOS>MOLECULE
19640_out_ligand_01.pdbqt
 31 35 0 0 0
SMALL
GASTEIGER

@<TRIPOS>ATOM
      1  C         19.9990  -21.8500  -11.6950 C.2     1  UNL1        0.0350
      2  C         19.7410  -22.8860  -10.7990 C.2     1  UNL1        0.0300
      3  C         18.4790  -23.0130  -10.2010 C.2     1  UNL1        0.0090
      4  C         17.4630  -22.0900  -10.4710 C.2     1  UNL1       -0.0580
      5  C         17.7230  -21.0500  -11.3700 C.2     1  UNL1        0.0090
      6  C         18.9780  -20.9350  -11.9760 C.2     1  UNL1        0.0300
      7  N         21.2320  -21.6620  -12.3540 N.am    1  UNL1       -0.3230
      8  C         22.5010  -21.9090  -11.8570 C.2     1  UNL1        0.2560
      9  O         22.7850  -22.3380  -10.7410 O.2     1  UNL1       -0.2670
     10  H         21.1640  -21.3670  -13.3220 H       1  UNL1        0.1690
     11  C         23.6160  -21.6530  -12.8160 C.2     1  UNL1        0.0350
     12  C         24.9410  -21.7090  -12.3250 C.2     1  UNL1        0.0200
     13  C         26.0280  -21.5070  -13.1790 C.2     1  UNL1        0.0410
     14  C         25.7600  -21.2460  -14.5050 C.2     1  UNL1        0.1050
     15  C         24.4730  -21.1700  -14.9820 C.2     1  UNL1        0.1060
     16  O         26.6860  -21.0400  -15.4770 O.2     1  UNL1       -0.3230
     17  C         23.3770  -21.3580  -14.1670 C.2     1  UNL1        0.0560
     18  O         24.4300  -20.8990  -16.3140 O.2     1  UNL1       -0.3230
     19  C         25.8360  -20.8300  -16.6240 C.3     1  UNL1        0.3520
     20  C         16.1070  -22.2080   -9.8110 C.3     1  UNL1        0.0460
     21  C         15.8710  -23.5360   -9.0830 C.3     1  UNL1        0.0830
     22  C         16.0970  -23.4460   -7.6110 C.ar    1  UNL1        0.1050
     23  N         17.0740  -24.0150   -6.9330 N.ar    1  UNL1       -0.2330
     24  C         16.8910  -23.6400   -5.6280 C.ar    1  UNL1        0.0850
     25  C         17.6400  -23.9570   -4.4860 C.2     1  UNL1        0.0340
     26  C         15.7740  -22.8230   -5.5030 C.ar    1  UNL1        0.0620
     27  C         17.2320  -23.4400   -3.2500 C.2     1  UNL1        0.0020
     28  C         16.1060  -22.6220   -3.1560 C.2     1  UNL1        0.0020
     29  C         15.3430  -22.2920   -4.2860 C.2     1  UNL1        0.0320
     30  N         15.2890  -22.7100   -6.7810 N.ar    1  UNL1       -0.3430
     31  H         14.4490  -22.2210   -7.0600 H       1  UNL1        0.1670
@<TRIPOS>BOND
     1    19    18    1
     2    19    16    1
     3    18    15    1
     4    16    14    1
     5    15    14    2
     6    15    17    1
     7    14    13    1
     8    17    11    2
     9    10     7    1
    10    13    12    2
    11    11    12    1
    12    11     8    1
    13     7     8   am
    14     7     1    1
    15     6     1    2
    16     6     5    1
    17     8     9    2
    18     1     2    1
    19     5     4    2
    20     2     3    2
    21     4     3    1
    22     4    20    1
    23    20    21    1
    24    21    22    1
    25    22    23   ar
    26    22    30   ar
    27    31    30    1
    28    23    24   ar
    29    30    26   ar
    30    24    26   ar
    31    24    25    1
    32    26    29    1
    33    25    27    2
    34    29    28    2
    35    27    28    1
