@<TRIPOS>MOLECULE
19645_out_ligand_01.pdbqt
 31 33 0 0 0
SMALL
GASTEIGER

@<TRIPOS>ATOM
      1  C         17.8940  -22.5890   -9.4790 C.2     1  UNL1        0.0800
      2  C         17.0500  -21.8810  -10.3360 C.2     1  UNL1        0.0280
      3  C         17.6050  -21.1190  -11.3630 C.2     1  UNL1        0.0450
      4  C         18.9910  -21.0710  -11.5220 C.2     1  UNL1        0.1320
      5  F         19.4790  -20.3270  -12.5270 F       1  UNL1       -0.2050
      6  C         19.8480  -21.7710  -10.6670 C.2     1  UNL1        0.0720
      7  C         19.2850  -22.5330   -9.6300 C.2     1  UNL1        0.0450
      8  S         17.2100  -23.5600   -8.1570 S.O2    1  UNL1        0.2590
      9  O         15.9440  -24.0790   -8.6190 O.2     1  UNL1       -0.2010
     10  O         18.2480  -24.4210   -7.6380 O.2     1  UNL1       -0.2010
     11  N         16.8650  -22.3880   -7.0140 N.3     1  UNL1       -0.3100
     12  H         15.9290  -21.9900   -7.0940 H       1  UNL1        0.1720
     13  C         17.5350  -22.3970   -5.7070 C.3     1  UNL1        0.0970
     14  C         16.4810  -22.3550   -4.5990 C.3     1  UNL1        0.0260
     15  C         17.1230  -22.4250   -3.2120 C.3     1  UNL1        0.0020
     16  C         18.5110  -21.7870   -3.1530 C.3     1  UNL1        0.0010
     17  C         18.6630  -20.6670   -4.1750 C.3     1  UNL1        0.0060
     18  C         18.4760  -21.1680   -5.6220 C.3     1  UNL1        0.0050
     19  C         19.8300  -21.4870   -6.2640 C.3     1  UNL1        0.0120
     20  C         21.3370  -21.7620  -10.8110 C.2     1  UNL1        0.2590
     21  O         22.0040  -21.4470   -9.8310 O.2     1  UNL1       -0.2670
     22  N         21.8430  -22.1130  -12.0490 N.am    1  UNL1       -0.3230
     23  H         21.1690  -22.3610  -12.7670 H       1  UNL1        0.1690
     24  C         23.1990  -22.1800  -12.4410 C.2     1  UNL1        0.0380
     25  C         24.0650  -22.9000  -11.6090 C.2     1  UNL1        0.0530
     26  C         25.4200  -23.0120  -11.9260 C.2     1  UNL1        0.0370
     27 CL         26.4650  -23.9020  -10.8880 Cl      1  UNL1       -0.0840
     28  C         25.9330  -22.4120  -13.0700 C.2     1  UNL1        0.0480
     29  C         25.0730  -21.6960  -13.8970 C.2     1  UNL1        0.0370
     30 CL         25.6970  -20.9470  -15.3170 Cl      1  UNL1       -0.0840
     31  C         23.7140  -21.5770  -13.5910 C.2     1  UNL1        0.0530
@<TRIPOS>BOND
     1    30    29    1
     2    29    31    1
     3    29    28    2
     4    31    24    2
     5    28    26    1
     6    23    22    1
     7     5     4    1
     8    24    22    1
     9    24    25    1
    10    22    20   am
    11    26    25    2
    12    26    27    1
    13     4     3    2
    14     4     6    1
    15     3     2    1
    16    20     6    1
    17    20    21    2
    18     6     7    2
    19     2     1    2
    20     7     1    1
    21     1     8    1
    22     9     8    2
    23     8    10    2
    24     8    11    1
    25    12    11    1
    26    11    13    1
    27    19    18    1
    28    13    18    1
    29    13    14    1
    30    18    17    1
    31    14    15    1
    32    17    16    1
    33    15    16    1
