@<TRIPOS>MOLECULE
19654_out_ligand_01.pdbqt
 31 33 0 0 0
SMALL
GASTEIGER

@<TRIPOS>ATOM
      1  C         19.3230  -23.3220   -7.6510 C.2     1  UNL1       -0.0050
      2  C         19.7380  -24.4150   -8.4280 C.2     1  UNL1        0.0150
      3  C         21.0300  -24.4670   -8.9620 C.2     1  UNL1        0.0180
      4  C         21.9350  -23.4210   -8.7420 C.2     1  UNL1        0.0320
      5  C         21.5190  -22.3080   -8.0030 C.2     1  UNL1        0.0180
      6  C         20.2280  -22.2650   -7.4630 C.2     1  UNL1        0.0150
      7  C         23.2980  -23.5340   -9.3390 C.2     1  UNL1        0.2510
      8  O         24.1800  -24.1290   -8.7290 O.2     1  UNL1       -0.2680
      9  N         23.5040  -22.9180  -10.5530 N.am    1  UNL1       -0.3530
     10  H         22.8230  -22.2580  -10.8980 H       1  UNL1        0.1630
     11  C         24.8210  -22.8440  -11.1490 C.3     1  UNL1        0.1610
     12  C         24.7110  -22.6900  -12.6440 C.2     1  UNL1       -0.0400
     13  C         23.9410  -21.6560  -13.1930 C.2     1  UNL1        0.0110
     14  C         23.8120  -21.5320  -14.5780 C.2     1  UNL1        0.0370
     15  C         24.4440  -22.4330  -15.4360 C.2     1  UNL1        0.0680
     16  C         25.2000  -23.4710  -14.8950 C.2     1  UNL1        0.0370
     17  C         25.3330  -23.6010  -13.5090 C.2     1  UNL1        0.0110
     18  O         24.2340  -22.2010  -16.7680 O.2     1  UNL1       -0.3560
     19  C         24.1350  -23.3420  -17.6110 C.3     1  UNL1        0.2100
     20  C         17.9660  -23.2590   -7.0770 C.2     1  UNL1        0.0930
     21  N         17.8270  -24.0040   -5.9450 N.2     1  UNL1       -0.2580
     22  C         16.6330  -23.9730   -5.3210 C.2     1  UNL1        0.1170
     23  C         15.5540  -23.2390   -5.7730 C.2     1  UNL1        0.0220
     24  C         15.7000  -22.4970   -6.9420 C.2     1  UNL1        0.0330
     25  C         16.9140  -22.4970   -7.6310 C.2     1  UNL1        0.0640
     26  N         17.1040  -21.8010   -8.8540 N.am    1  UNL1       -0.3250
     27  C         17.1570  -22.3280  -10.1340 C.2     1  UNL1        0.2210
     28  O         17.0200  -23.5060  -10.4430 O.2     1  UNL1       -0.2730
     29  H         17.2180  -20.7960   -8.7780 H       1  UNL1        0.1690
     30  C         17.3960  -21.2390  -11.1680 C.3     1  UNL1        0.0980
     31  C         18.8560  -21.1200  -11.5640 C.3     1  UNL1        0.0140
@<TRIPOS>BOND
     1    19    18    1
     2    18    15    1
     3    15    16    2
     4    15    14    1
     5    16    17    1
     6    14    13    2
     7    17    12    2
     8    13    12    1
     9    12    11    1
    10    31    30    1
    11    30    27    1
    12    11     9    1
    13    10     9    1
    14     9     7   am
    15    28    27    2
    16    27    26   am
    17     7     4    1
    18     7     8    2
    19     3     4    2
    20     3     2    1
    21    26    29    1
    22    26    25    1
    23     4     5    1
    24     2     1    2
    25     5     6    2
    26     1     6    1
    27     1    20    1
    28    25    20    2
    29    25    24    1
    30    20    21    1
    31    24    23    2
    32    21    22    2
    33    23    22    1
