@<TRIPOS>MOLECULE
19657_out_ligand_01.pdbqt
 37 40 0 0 0
SMALL
GASTEIGER

@<TRIPOS>ATOM
      1  N         21.3490  -23.1030   -9.3360 N.3     1  UNL1       -0.3930
      2  C         20.8220  -22.1580   -8.3330 C.3     1  UNL1        0.1090
      3  C         21.8940  -21.4730   -7.4720 C.3     1  UNL1        0.0370
      4  C         19.7010  -22.7050   -7.4500 C.2     1  UNL1       -0.0360
      5  C         19.1960  -24.0070   -7.5850 C.2     1  UNL1        0.0090
      6  C         18.1560  -24.4600   -6.7730 C.2     1  UNL1        0.0010
      7  C         17.6120  -23.6200   -5.8020 C.2     1  UNL1        0.0000
      8  C         18.1050  -22.3270   -5.6430 C.2     1  UNL1        0.0010
      9  C         19.1390  -21.8720   -6.4610 C.2     1  UNL1        0.0090
     10  C         21.0000  -22.8640  -10.7360 C.3     1  UNL1        0.1560
     11  C         19.6390  -22.2060  -10.8750 C.2     1  UNL1       -0.0400
     12  C         19.4810  -21.0310  -11.6270 C.2     1  UNL1        0.0090
     13  C         18.2360  -20.4070  -11.7240 C.2     1  UNL1        0.0010
     14  C         17.1310  -20.9470  -11.0680 C.2     1  UNL1        0.0160
     15  C         17.2630  -22.1150  -10.3030 C.2     1  UNL1        0.0480
     16  C         18.5210  -22.7380  -10.2170 C.2     1  UNL1        0.0250
     17  C         16.0670  -22.7190   -9.6090 C.3     1  UNL1        0.4170
     18  F         15.9560  -22.3200   -8.3080 F       1  UNL1       -0.1660
     19  F         16.1160  -24.0800   -9.5790 F       1  UNL1       -0.1660
     20  F         14.8760  -22.4030  -10.1970 F       1  UNL1       -0.1660
     21  C         22.7690  -23.4640   -9.1760 C.3     1  UNL1        0.2040
     22  C         23.7210  -22.8010  -10.1280 C.2     1  UNL1        0.1630
     23  N         24.3740  -23.3390  -11.1480 N.2     1  UNL1       -0.2190
     24  C         25.1800  -22.3090  -11.6060 C.2     1  UNL1        0.1490
     25  C         24.9620  -21.1880  -10.8410 C.2     1  UNL1        0.1810
     26  O         24.0320  -21.4880   -9.8900 O.2     1  UNL1       -0.3040
     27  C         26.1190  -22.4500  -12.7100 C.2     1  UNL1        0.2720
     28  O         27.0040  -23.2960  -12.7430 O.2     1  UNL1       -0.2660
     29  N         25.8810  -21.5420  -13.7110 N.am    1  UNL1       -0.3510
     30  H         25.0600  -20.9590  -13.5930 H       1  UNL1        0.1630
     31  C         26.5430  -21.6040  -14.9880 C.3     1  UNL1        0.1630
     32  C         25.6130  -22.0670  -16.0700 C.2     1  UNL1       -0.0230
     33  C         25.0750  -23.3650  -16.0710 C.2     1  UNL1        0.0120
     34  C         24.2190  -23.7590  -17.0930 C.2     1  UNL1        0.0200
     35  C         23.9250  -22.8380  -18.0880 C.2     1  UNL1        0.1160
     36  N         24.4200  -21.5830  -18.1200 N.2     1  UNL1       -0.2730
     37  C         25.2620  -21.2300  -17.1220 C.2     1  UNL1        0.1240
@<TRIPOS>BOND
     1    36    35    2
     2    36    37    1
     3    35    34    1
     4    37    32    2
     5    34    33    2
     6    33    32    1
     7    32    31    1
     8    31    29    1
     9    29    30    1
    10    29    27   am
    11    28    27    2
    12    27    24    1
    13    13    12    1
    14    13    14    2
    15    12    11    2
    16    24    23    1
    17    24    25    2
    18    23    22    2
    19    14    15    1
    20    11    10    1
    21    11    16    1
    22    25    26    1
    23    10     1    1
    24    15    16    2
    25    15    17    1
    26    20    17    1
    27    22    26    1
    28    22    21    1
    29    17    19    1
    30    17    18    1
    31     1    21    1
    32     1     2    1
    33     2     3    1
    34     2     4    1
    35     5     4    2
    36     5     6    1
    37     4     9    1
    38     6     7    2
    39     9     8    2
    40     7     8    1
