@<TRIPOS>MOLECULE
19684_out_ligand_01.pdbqt
 32 35 0 0 0
SMALL
GASTEIGER

@<TRIPOS>ATOM
      1  C         17.8540  -22.3580  -10.4000 C.2     1  UNL1       -0.0400
      2  C         18.2330  -21.3710  -11.3160 C.2     1  UNL1        0.0100
      3  C         19.5690  -21.2370  -11.7030 C.2     1  UNL1        0.0160
      4  C         20.5610  -22.0870  -11.1930 C.2     1  UNL1        0.0100
      5  C         20.1750  -23.0770  -10.2760 C.2     1  UNL1        0.0160
      6  C         18.8370  -23.2140   -9.8870 C.2     1  UNL1        0.0100
      7  C         16.4070  -22.5170  -10.0100 C.3     1  UNL1        0.1610
      8  N         16.2250  -22.2440   -8.6040 N.am    1  UNL1       -0.3530
      9  C         16.1700  -23.2620   -7.6770 C.2     1  UNL1        0.2520
     10  O         16.1430  -24.4550   -7.9490 O.2     1  UNL1       -0.2680
     11  H         16.4540  -21.3160   -8.2730 H       1  UNL1        0.1630
     12  C         16.2270  -22.8170   -6.2630 C.2     1  UNL1        0.0380
     13  C         15.0370  -22.9320   -5.5340 C.2     1  UNL1        0.0170
     14  C         15.0110  -22.5940   -4.1860 C.2     1  UNL1        0.0020
     15  C         16.1750  -22.1480   -3.5630 C.2     1  UNL1        0.0070
     16  C         17.3780  -22.0150   -4.2800 C.2     1  UNL1       -0.0550
     17  C         18.5940  -21.5110   -3.5520 C.3     1  UNL1        0.0490
     18  C         17.4040  -22.3180   -5.6620 C.2     1  UNL1       -0.0400
     19  C         18.6650  -22.1260   -6.4670 C.3     1  UNL1        0.0500
     20  C         21.9500  -21.9080  -11.6330 C.2     1  UNL1        0.1380
     21  N         23.0220  -21.9940  -10.8660 N.2     1  UNL1       -0.2400
     22  C         24.0980  -21.7440  -11.6760 C.2     1  UNL1        0.1490
     23  C         23.7030  -21.4960  -12.9760 C.2     1  UNL1        0.0610
     24  N         22.3320  -21.6040  -12.9200 N.pl3   1  UNL1       -0.3380
     25  H         21.7040  -21.4410  -13.6900 H       1  UNL1        0.1670
     26  C         24.4560  -21.1580  -14.1800 C.2     1  UNL1       -0.0080
     27  C         25.2640  -20.0110  -14.2070 C.2     1  UNL1        0.0170
     28  C         25.9850  -19.6730  -15.3560 C.2     1  UNL1        0.0430
     29  C         25.8990  -20.4830  -16.4800 C.2     1  UNL1        0.1160
     30  F         26.5870  -20.1590  -17.5830 F       1  UNL1       -0.2060
     31  C         25.1110  -21.6270  -16.4770 C.2     1  UNL1        0.0430
     32  C         24.3910  -21.9650  -15.3280 C.2     1  UNL1        0.0170
@<TRIPOS>BOND
     1    30    29    1
     2    29    31    2
     3    29    28    1
     4    31    32    1
     5    28    27    2
     6    32    26    2
     7    27    26    1
     8    26    23    1
     9    25    24    1
    10    23    24    1
    11    23    22    2
    12    24    20    1
    13     3     2    1
    14     3     4    2
    15    22    21    1
    16    20     4    1
    17    20    21    2
    18     2     1    2
    19     4     5    1
    20     1     7    1
    21     1     6    1
    22     5     6    2
    23     7     8    1
    24     8    11    1
    25     8     9   am
    26    10     9    2
    27     9    12    1
    28    19    18    1
    29    12    18    2
    30    12    13    1
    31    18    16    1
    32    13    14    2
    33    16    15    2
    34    16    17    1
    35    14    15    1
