@<TRIPOS>MOLECULE
19686_out_ligand_01.pdbqt
 33 36 0 0 0
SMALL
GASTEIGER

@<TRIPOS>ATOM
      1  N         18.3860  -22.6890   -8.7900 N.am    1  UNL1       -0.2440
      2  C         18.0110  -21.9850   -9.9190 C.2     1  UNL1        0.2660
      3  O         16.9480  -21.5080  -10.2780 O.2     1  UNL1       -0.2670
      4  C         19.1940  -21.8510  -10.7610 C.2     1  UNL1        0.0480
      5  C         19.3550  -21.2490  -11.9950 C.2     1  UNL1        0.0190
      6  C         20.6320  -21.2890  -12.5670 C.2     1  UNL1        0.0180
      7  C         21.7130  -21.9140  -11.8990 C.2     1  UNL1        0.0330
      8  C         21.5150  -22.5280  -10.6550 C.2     1  UNL1        0.0350
      9  C         20.2400  -22.4700  -10.1160 C.2     1  UNL1        0.0490
     10  C         19.7300  -23.0030   -8.8590 C.2     1  UNL1        0.2660
     11  O         20.4830  -23.5910   -8.1010 O.2     1  UNL1       -0.2670
     12  C         23.0420  -21.9310  -12.5780 C.2     1  UNL1        0.2560
     13  O         23.9050  -22.6720  -12.1240 O.2     1  UNL1       -0.2670
     14  N         23.1480  -21.1140  -13.6900 N.am    1  UNL1       -0.3230
     15  H         22.3070  -20.6550  -14.0140 H       1  UNL1        0.1690
     16  C         24.2930  -20.9090  -14.4910 C.2     1  UNL1        0.0360
     17  C         25.1790  -19.8430  -14.3300 C.2     1  UNL1        0.0290
     18  C         26.2910  -19.7070  -15.1700 C.2     1  UNL1        0.0030
     19  C         26.5270  -20.6360  -16.1810 C.2     1  UNL1        0.0180
     20  C         25.6440  -21.7060  -16.3560 C.2     1  UNL1        0.0390
     21  C         24.5310  -21.8390  -15.5110 C.2     1  UNL1        0.0480
     22  C         25.8410  -22.7250  -17.4140 C.2     1  UNL1        0.1760
     23  O         26.8050  -22.8010  -18.1530 O.2     1  UNL1       -0.6460
     24  O         24.8240  -23.6000  -17.4950 O.3     1  UNL1       -0.7730
     25  H         24.1730  -23.2700  -16.8410 H       1  UNL1        0.1670
     26  C         17.5160  -23.0360   -7.7060 C.2     1  UNL1        0.0460
     27  C         16.4790  -23.9640   -7.8650 C.2     1  UNL1        0.0310
     28  C         15.6260  -24.3030   -6.8060 C.2     1  UNL1        0.0090
     29  C         15.7790  -23.7260   -5.5430 C.2     1  UNL1       -0.0560
     30  C         14.8470  -24.1150   -4.4310 C.3     1  UNL1        0.0490
     31  C         16.8090  -22.7920   -5.3520 C.2     1  UNL1       -0.0540
     32  C         17.6580  -22.4620   -6.4300 C.2     1  UNL1        0.0370
     33  C         17.0290  -22.1330   -4.0160 C.3     1  UNL1        0.0490
@<TRIPOS>BOND
     1    23    22    2
     2    24    22    1
     3    24    25    1
     4    22    20    1
     5    20    19    2
     6    20    21    1
     7    19    18    1
     8    21    16    2
     9    18    17    2
    10    16    17    1
    11    16    14    1
    12    15    14    1
    13    14    12   am
    14    12    13    2
    15    12     7    1
    16     6     5    1
    17     6     7    2
    18     5     4    2
    19     7     8    1
    20     4     9    1
    21     4     2    1
    22     8     9    2
    23     3     2    2
    24     9    10    1
    25     2     1   am
    26    10     1   am
    27    10    11    2
    28     1    26    1
    29    27    26    2
    30    27    28    1
    31    26    32    1
    32    28    29    2
    33    32    31    2
    34    29    31    1
    35    29    30    1
    36    31    33    1
