@<TRIPOS>MOLECULE
19697_out_ligand_01.pdbqt
 33 36 0 0 0
SMALL
GASTEIGER

@<TRIPOS>ATOM
      1  C         19.1550  -21.5070  -11.4180 C.2     1  UNL1        0.2790
      2  O         19.0990  -20.5330  -12.1630 O.2     1  UNL1       -0.2650
      3  N         20.2980  -22.2720  -11.2170 N.am    1  UNL1       -0.3210
      4  H         20.2500  -22.9700  -10.4900 H       1  UNL1        0.1690
      5  C         18.0090  -21.9500  -10.6360 C.2     1  UNL1        0.1430
      6  C         16.6850  -21.5480  -10.5720 C.2     1  UNL1        0.0450
      7  C         16.0490  -22.3620   -9.6010 C.2     1  UNL1        0.0380
      8  C         17.0140  -23.2160   -9.1200 C.2     1  UNL1        0.0780
      9  O         18.2020  -22.9720   -9.7430 O.2     1  UNL1       -0.3070
     10  C         17.0020  -24.3040   -8.1070 C.3     1  UNL1        0.2400
     11  O         18.1810  -24.1410   -7.3210 O.2     1  UNL1       -0.3440
     12  C         18.1170  -23.2560   -6.2760 C.2     1  UNL1        0.0750
     13  C         19.1060  -22.2550   -6.2650 C.2     1  UNL1       -0.0290
     14  C         19.1180  -21.3120   -5.2280 C.2     1  UNL1        0.0100
     15  C         20.1620  -22.2030   -7.3340 C.3     1  UNL1        0.0510
     16  C         18.1510  -21.3470   -4.2240 C.2     1  UNL1        0.0070
     17  C         17.1490  -22.3200   -4.2440 C.2     1  UNL1       -0.0590
     18  C         16.1120  -22.3680   -3.1580 C.3     1  UNL1        0.0480
     19  C         17.1480  -23.2810   -5.2660 C.2     1  UNL1        0.0440
     20  C         21.5510  -22.1360  -11.8520 C.2     1  UNL1        0.0350
     21  C         22.7250  -22.7520  -11.4100 C.2     1  UNL1        0.0300
     22  C         23.9310  -22.5610  -12.0940 C.2     1  UNL1        0.0190
     23  C         23.9610  -21.7670  -13.2410 C.2     1  UNL1        0.0320
     24  C         22.8010  -21.1250  -13.6790 C.2     1  UNL1        0.0190
     25  C         21.6010  -21.3120  -12.9860 C.2     1  UNL1        0.0300
     26  C         25.2230  -21.5340  -13.9740 C.2     1  UNL1        0.2530
     27  O         26.0450  -20.7870  -13.4500 O.2     1  UNL1       -0.2670
     28  N         25.3960  -22.1360  -15.2220 N.am    1  UNL1       -0.3480
     29  C         24.3100  -22.7810  -15.9650 C.3     1  UNL1        0.1260
     30  C         26.6240  -21.8540  -15.9650 C.3     1  UNL1        0.1260
     31  C         24.7260  -23.2190  -17.3660 C.3     1  UNL1        0.0200
     32  C         25.3530  -22.0680  -18.1530 C.3     1  UNL1        0.0030
     33  C         26.2990  -21.2100  -17.3080 C.3     1  UNL1        0.0200
@<TRIPOS>BOND
     1    32    31    1
     2    32    33    1
     3    31    29    1
     4    33    30    1
     5    30    28    1
     6    29    28    1
     7    28    26   am
     8    26    27    2
     9    26    23    1
    10    24    23    2
    11    24    25    1
    12    23    22    1
    13    25    20    2
    14     2     1    2
    15    22    21    2
    16    20    21    1
    17    20     3    1
    18     1     3   am
    19     1     5    1
    20     3     4    1
    21     5     6    2
    22     5     9    1
    23     6     7    1
    24     9     8    1
    25     7     8    2
    26     8    10    1
    27    10    11    1
    28    15    13    1
    29    11    12    1
    30    12    13    2
    31    12    19    1
    32    13    14    1
    33    19    17    2
    34    14    16    2
    35    17    16    1
    36    17    18    1
