@<TRIPOS>MOLECULE
19696_out_ligand_01.pdbqt
 36 39 0 0 0
SMALL
GASTEIGER

@<TRIPOS>ATOM
      1  N         21.0910  -23.3100   -9.2540 N.3     1  UNL1        0.1040
      2  C         20.6720  -22.4730   -8.1110 C.3     1  UNL1        0.3120
      3  C         19.5220  -22.9520   -7.2310 C.2     1  UNL1       -0.0240
      4  C         18.8550  -24.1550   -7.5500 C.2     1  UNL1        0.0090
      5  C         17.7800  -24.6190   -6.7910 C.2     1  UNL1        0.0010
      6  C         17.3280  -23.8770   -5.7070 C.2     1  UNL1        0.0010
      7  C         17.9400  -22.6640   -5.3960 C.2     1  UNL1        0.0070
      8  C         19.0360  -22.1890   -6.1430 C.2     1  UNL1       -0.0540
      9  C         19.5880  -20.8340   -5.7870 C.3     1  UNL1        0.0490
     10  C         20.8040  -22.7360  -10.5770 C.3     1  UNL1        0.3110
     11  C         19.4190  -22.1300  -10.7110 C.2     1  UNL1       -0.0290
     12  C         19.2280  -21.0030  -11.5240 C.2     1  UNL1        0.0090
     13  C         17.9580  -20.4480  -11.6850 C.2     1  UNL1        0.0010
     14  C         16.8610  -21.0200  -11.0440 C.2     1  UNL1        0.0160
     15  C         17.0200  -22.1570  -10.2380 C.2     1  UNL1        0.0480
     16  C         18.3020  -22.7150  -10.0950 C.2     1  UNL1        0.0250
     17  C         15.8270  -22.7930   -9.5710 C.3     1  UNL1        0.4170
     18  F         15.7120  -22.4550   -8.2560 F       1  UNL1       -0.1660
     19  F         14.6510  -22.4240  -10.1510 F       1  UNL1       -0.1660
     20  F         15.8490  -24.1550   -9.6010 F       1  UNL1       -0.1660
     21  C         22.4870  -23.7630   -9.1560 C.3     1  UNL1        0.3590
     22  C         23.4770  -23.0220  -10.0140 C.2     1  UNL1        0.1740
     23  N         23.9800  -23.4090  -11.1680 N.2     1  UNL1       -0.2190
     24  C         24.7600  -22.3410  -11.5860 C.2     1  UNL1        0.1490
     25  C         24.7080  -21.3600  -10.6210 C.2     1  UNL1        0.1810
     26  O         23.8880  -21.7770   -9.6160 O.2     1  UNL1       -0.3030
     27  C         25.4470  -22.3180  -12.8780 C.2     1  UNL1        0.2720
     28  O         26.2790  -23.1660  -13.1970 O.2     1  UNL1       -0.2660
     29  N         25.0920  -21.2950  -13.7400 N.am    1  UNL1       -0.3530
     30  H         24.5960  -20.4890  -13.3890 H       1  UNL1        0.1620
     31  C         25.7330  -21.1650  -15.0390 C.3     1  UNL1        0.1550
     32  C         24.7160  -21.2130  -16.1880 C.3     1  UNL1        0.1390
     33  C         25.3770  -21.0680  -17.5550 C.3     1  UNL1        0.0350
     34  C         25.5790  -22.4980  -17.9880 C.3     1  UNL1        0.0290
     35  C         24.3500  -23.1690  -17.4160 C.3     1  UNL1        0.1680
     36  O         24.0720  -22.5100  -16.1730 O.3     1  UNL1       -0.3840
@<TRIPOS>BOND
     1    34    33    1
     2    34    35    1
     3    33    32    1
     4    35    36    1
     5    32    36    1
     6    32    31    1
     7    31    29    1
     8    29    30    1
     9    29    27   am
    10    28    27    2
    11    27    24    1
    12    13    12    1
    13    13    14    2
    14    24    23    1
    15    24    25    2
    16    12    11    2
    17    23    22    2
    18    14    15    1
    19    11    10    1
    20    11    16    1
    21    25    26    1
    22    10     1    1
    23    15    16    2
    24    15    17    1
    25    19    17    1
    26    22    26    1
    27    22    21    1
    28    20    17    1
    29    17    18    1
    30     1    21    1
    31     1     2    1
    32     2     3    1
    33     4     3    2
    34     4     5    1
    35     3     8    1
    36     5     6    2
    37     8     9    1
    38     8     7    2
    39     6     7    1
