@<TRIPOS>MOLECULE
19690_out_ligand_01.pdbqt
 34 38 0 0 0
SMALL
GASTEIGER

@<TRIPOS>ATOM
      1  C         23.2390  -22.6860  -10.7580 C.2     1  UNL1        0.0320
      2  C         23.1560  -23.3590   -9.5340 C.2     1  UNL1        0.0180
      3  C         21.9320  -23.4330   -8.8570 C.2     1  UNL1        0.0150
      4  C         20.7820  -22.8450   -9.4000 C.2     1  UNL1       -0.0070
      5  C         20.8680  -22.1850  -10.6290 C.2     1  UNL1        0.0150
      6  C         22.0880  -22.1090  -11.3080 C.2     1  UNL1        0.0180
      7  C         19.5100  -22.9270   -8.6940 C.ar    1  UNL1        0.0690
      8  N         18.4400  -23.6060   -9.1940 N.ar    1  UNL1       -0.2760
      9  N         17.3630  -23.5780   -8.4120 N.ar    1  UNL1       -0.1730
     10  H         18.3870  -24.1210  -10.0660 H       1  UNL1        0.1890
     11  C         17.7250  -22.8610   -7.3310 C.ar    1  UNL1        0.0960
     12  C         19.0860  -22.4240   -7.4700 C.ar    1  UNL1        0.0020
     13  C         16.7430  -22.6330   -6.2510 C.2     1  UNL1        0.0010
     14  C         19.9320  -21.6050   -6.5530 C.3     1  UNL1        0.0440
     15  C         19.2000  -20.9050   -5.4230 C.3     1  UNL1        0.0090
     16  C         18.4900  -21.8980   -4.5100 C.3     1  UNL1        0.0400
     17  C         17.0790  -22.1940   -4.9550 C.2     1  UNL1       -0.0450
     18  C         16.0570  -22.0390   -3.9900 C.2     1  UNL1        0.0080
     19  C         14.7230  -22.2930   -4.2960 C.2     1  UNL1        0.0010
     20  C         14.3810  -22.7130   -5.5720 C.2     1  UNL1        0.0010
     21  C         15.3790  -22.8820   -6.5320 C.2     1  UNL1        0.0140
     22  C         24.5150  -22.5820  -11.5210 C.2     1  UNL1        0.2510
     23  O         25.1940  -21.5640  -11.4470 O.2     1  UNL1       -0.2680
     24  N         24.8790  -23.6890  -12.2570 N.am    1  UNL1       -0.3530
     25  H         24.4040  -24.5650  -12.0930 H       1  UNL1        0.1630
     26  C         26.1540  -23.7530  -12.9360 C.3     1  UNL1        0.1610
     27  C         26.0520  -23.1730  -14.3240 C.2     1  UNL1       -0.0370
     28  C         26.8930  -22.1160  -14.7130 C.2     1  UNL1        0.0120
     29  C         26.8220  -21.5880  -16.0050 C.2     1  UNL1        0.0460
     30  C         25.9150  -22.1210  -16.9140 C.2     1  UNL1        0.1540
     31  F         25.8520  -21.6160  -18.1530 F       1  UNL1       -0.2030
     32  C         25.0850  -23.1710  -16.5420 C.2     1  UNL1        0.1550
     33  F         24.2150  -23.6880  -17.4210 F       1  UNL1       -0.2030
     34  C         25.1480  -23.7030  -15.2560 C.2     1  UNL1        0.0540
@<TRIPOS>BOND
     1    31    30    1
     2    33    32    1
     3    30    32    2
     4    30    29    1
     5    32    34    1
     6    29    28    2
     7    34    27    2
     8    28    27    1
     9    27    26    1
    10    26    24    1
    11    24    25    1
    12    24    22   am
    13    22    23    2
    14    22     1    1
    15     6     1    2
    16     6     5    1
    17     1     2    1
    18     5     4    2
    19    10     8    1
    20     2     3    2
    21     4     3    1
    22     4     7    1
    23     8     7   ar
    24     8     9   ar
    25     7    12   ar
    26     9    11   ar
    27    12    11   ar
    28    12    14    1
    29    11    13    1
    30    14    15    1
    31    21    13    2
    32    21    20    1
    33    13    17    1
    34    20    19    2
    35    15    16    1
    36    17    16    1
    37    17    18    2
    38    19    18    1
