@<TRIPOS>MOLECULE
19703_out_ligand_01.pdbqt
 29 32 0 0 0
SMALL
GASTEIGER

@<TRIPOS>ATOM
      1  C         23.3090  -21.6960  -11.2130 C.2     1  UNL1       -0.0400
      2  C         22.1390  -22.0580  -11.9110 C.2     1  UNL1        0.0110
      3  C         20.9560  -22.3640  -11.2280 C.2     1  UNL1        0.0310
      4  C         20.9560  -22.3100   -9.8450 C.2     1  UNL1        0.0430
      5  C         22.1110  -21.9620   -9.1470 C.2     1  UNL1       -0.0290
      6  C         23.2910  -21.6600   -9.8110 C.2     1  UNL1        0.0180
      7  C         21.8950  -22.0170   -7.6700 C.2     1  UNL1        0.0610
      8  C         20.3910  -22.3080   -7.5800 C.2     1  UNL1        0.1370
      9  N         19.9020  -22.5640   -8.9480 N.am    1  UNL1       -0.3130
     10  C         18.6420  -23.0180   -9.3010 C.2     1  UNL1        0.2580
     11  O         18.2640  -23.3310  -10.4260 O.2     1  UNL1       -0.2670
     12  C         24.5840  -21.3980  -11.9600 C.3     1  UNL1        0.1610
     13  N         24.4820  -21.8160  -13.3360 N.am    1  UNL1       -0.3510
     14  C         24.6840  -20.9560  -14.3930 C.2     1  UNL1        0.2720
     15  O         24.8290  -19.7440  -14.2830 O.2     1  UNL1       -0.2660
     16  H         24.4960  -22.8080  -13.5550 H       1  UNL1        0.1630
     17  C         24.7260  -21.6210  -15.7260 C.2     1  UNL1        0.1410
     18  C         24.8780  -22.9960  -15.8140 C.2     1  UNL1        0.1530
     19  N         24.9150  -23.6440  -17.0080 N.2     1  UNL1       -0.2690
     20  C         24.7940  -22.8540  -18.0990 C.2     1  UNL1        0.1350
     21  C         24.6420  -21.4770  -18.0100 C.2     1  UNL1        0.1360
     22  N         24.6040  -20.8210  -16.8270 N.2     1  UNL1       -0.2530
     23  C         17.6550  -23.1660   -8.2110 C.2     1  UNL1        0.0320
     24  C         17.7310  -24.2890   -7.3780 C.2     1  UNL1        0.0200
     25  C         16.7970  -24.4500   -6.3560 C.2     1  UNL1        0.0430
     26  C         15.7940  -23.4990   -6.1870 C.2     1  UNL1        0.1160
     27  F         14.8960  -23.6560   -5.2040 F       1  UNL1       -0.2060
     28  C         15.7000  -22.3910   -7.0250 C.2     1  UNL1        0.0430
     29  C         16.6320  -22.2240   -8.0500 C.2     1  UNL1        0.0200
@<TRIPOS>BOND
     1    20    21    2
     2    20    19    1
     3    21    22    1
     4    19    18    2
     5    22    17    2
     6    18    17    1
     7    17    14    1
     8    14    15    2
     9    14    13   am
    10    16    13    1
    11    13    12    1
    12    12     1    1
    13     2     3    1
    14     2     1    2
    15     3     4    2
    16     1     6    1
    17    11    10    2
    18     4     5    1
    19     4     9    1
    20     6     5    2
    21    10     9   am
    22    10    23    1
    23     5     7    1
    24     9     8    1
    25    23    29    2
    26    23    24    1
    27    29    28    1
    28     7     8    2
    29    24    25    2
    30    28    26    2
    31    25    26    1
    32    26    27    1
