@<TRIPOS>MOLECULE
1971_out_ligand_01.pdbqt
 36 39 0 0 0
SMALL
GASTEIGER

@<TRIPOS>ATOM
      1  C         23.7680  -21.8340  -10.8260 C.2     1  UNL1        0.0800
      2  C         23.7200  -21.8280   -9.4320 C.2     1  UNL1        0.0270
      3  C         22.5180  -22.1210   -8.7830 C.2     1  UNL1        0.0310
      4  C         21.3600  -22.4140   -9.5180 C.2     1  UNL1        0.0340
      5  C         21.4180  -22.3890  -10.9150 C.2     1  UNL1        0.0310
      6  C         22.6180  -22.0960  -11.5720 C.2     1  UNL1        0.0270
      7  N         20.1920  -22.7020   -8.7830 N.am    1  UNL1       -0.3260
      8  C         19.7920  -23.9340   -8.2670 C.2     1  UNL1        0.2350
      9  O         20.4430  -24.9730   -8.3460 O.2     1  UNL1       -0.2720
     10  H         19.6210  -21.9040   -8.5290 H       1  UNL1        0.1690
     11  C         18.4140  -23.8490   -7.5640 C.3     1  UNL1        0.1440
     12  C         18.4140  -23.0290   -6.2760 C.2     1  UNL1       -0.0410
     13  C         17.7910  -23.5350   -5.1220 C.2     1  UNL1        0.0080
     14  C         17.7660  -22.7920   -3.9400 C.2     1  UNL1        0.0010
     15  C         18.3580  -21.5320   -3.8940 C.2     1  UNL1        0.0000
     16  C         18.9760  -21.0140   -5.0300 C.2     1  UNL1        0.0010
     17  C         19.0020  -21.7550   -6.2120 C.2     1  UNL1        0.0080
     18  C         17.2870  -23.4390   -8.5140 C.2     1  UNL1       -0.0410
     19  C         17.3470  -22.2560   -9.2700 C.2     1  UNL1        0.0080
     20  C         16.3050  -21.9080  -10.1300 C.2     1  UNL1        0.0010
     21  C         15.1850  -22.7280  -10.2390 C.2     1  UNL1        0.0000
     22  C         15.1020  -23.8950   -9.4840 C.2     1  UNL1        0.0010
     23  C         16.1440  -24.2470   -8.6240 C.2     1  UNL1        0.0080
     24  S         25.2940  -21.4660  -11.6640 S.O2    1  UNL1        0.2630
     25  O         25.9620  -20.4230  -10.9120 O.2     1  UNL1       -0.2000
     26  O         25.9590  -22.7180  -11.9560 O.2     1  UNL1       -0.2000
     27  N         24.7750  -20.7490  -13.1040 N.pl3   1  UNL1       -0.2810
     28  H         23.7910  -20.4900  -13.0630 H       1  UNL1        0.1790
     29  C         25.2790  -21.2380  -14.3410 C.2     1  UNL1        0.0430
     30  C         26.5280  -20.8100  -14.7810 C.2     1  UNL1        0.0300
     31  C         27.0140  -21.2410  -16.0160 C.2     1  UNL1        0.0090
     32  C         26.2580  -22.1040  -16.8260 C.2     1  UNL1       -0.0560
     33  C         26.8130  -22.5450  -18.1530 C.3     1  UNL1        0.0490
     34  C         24.9970  -22.5440  -16.3750 C.2     1  UNL1       -0.0540
     35  C         24.5190  -22.0990  -15.1310 C.2     1  UNL1        0.0370
     36  C         24.1440  -23.4700  -17.2000 C.3     1  UNL1        0.0490
@<TRIPOS>BOND
     1    33    32    1
     2    36    34    1
     3    32    34    2
     4    32    31    1
     5    34    35    1
     6    31    30    2
     7    35    29    2
     8    30    29    1
     9    29    27    1
    10    27    28    1
    11    27    24    1
    12    26    24    2
    13    24    25    2
    14    24     1    1
    15     6     5    1
    16     6     1    2
    17     5     4    2
    18     1     2    1
    19    21    20    2
    20    21    22    1
    21    20    19    1
    22     4     3    1
    23     4     7    1
    24    22    23    2
    25     2     3    2
    26    19    18    2
    27     7    10    1
    28     7     8   am
    29    23    18    1
    30    18    11    1
    31     9     8    2
    32     8    11    1
    33    11    12    1
    34    12    17    2
    35    12    13    1
    36    17    16    1
    37    13    14    2
    38    16    15    2
    39    14    15    1
