@<TRIPOS>MOLECULE
19720_out_ligand_01.pdbqt
 31 34 0 0 0
SMALL
GASTEIGER

@<TRIPOS>ATOM
      1  C         23.6830  -22.5490   -9.8820 C.2     1  UNL1        0.0320
      2  C         22.9360  -23.7310   -9.8900 C.2     1  UNL1        0.0190
      3  C         21.7290  -23.8140   -9.1850 C.2     1  UNL1        0.0300
      4  C         21.2510  -22.7150   -8.4690 C.2     1  UNL1        0.0360
      5  C         21.9900  -21.5250   -8.4830 C.2     1  UNL1        0.0300
      6  C         23.1980  -21.4380   -9.1850 C.2     1  UNL1        0.0190
      7  N         20.0460  -22.7120   -7.7410 N.am    1  UNL1       -0.3090
      8  C         18.7580  -22.5430   -8.2170 C.2     1  UNL1        0.3270
      9  O         18.4630  -22.4830   -9.4090 O.2     1  UNL1       -0.2460
     10  N         17.7790  -22.5250   -7.2050 N.am    1  UNL1       -0.2990
     11  C         16.3680  -22.5030   -7.6040 C.3     1  UNL1        0.1340
     12  C         18.0300  -22.1800   -5.8470 C.2     1  UNL1        0.0450
     13  C         15.6540  -23.8190   -7.3230 C.3     1  UNL1        0.0210
     14  C         15.4170  -24.0550   -5.8340 C.3     1  UNL1        0.0060
     15  C         16.7080  -24.2140   -5.0370 C.3     1  UNL1        0.0410
     16  C         17.4640  -22.9280   -4.7980 C.2     1  UNL1       -0.0310
     17  C         17.7070  -22.5250   -3.4720 C.2     1  UNL1        0.0090
     18  C         18.4920  -21.4070   -3.1920 C.2     1  UNL1        0.0010
     19  C         19.0540  -20.6740   -4.2320 C.2     1  UNL1        0.0020
     20  C         18.8240  -21.0590   -5.5530 C.2     1  UNL1        0.0300
     21  H         20.1060  -22.9770   -6.7680 H       1  UNL1        0.1700
     22  C         24.9600  -22.5090  -10.6470 C.2     1  UNL1        0.2510
     23  O         25.5920  -21.4630  -10.7400 O.2     1  UNL1       -0.2680
     24  N         25.3480  -23.6880  -11.2460 N.am    1  UNL1       -0.3510
     25  H         24.6620  -24.4200  -11.3670 H       1  UNL1        0.1630
     26  C         26.4780  -23.7270  -12.1490 C.3     1  UNL1        0.1870
     27  C         25.9690  -23.9000  -13.5310 C.2     1  UNL1        0.0700
     28  C         25.7080  -23.0180  -14.5590 C.2     1  UNL1        0.0360
     29  C         25.2280  -23.7950  -15.6400 C.2     1  UNL1        0.0270
     30  C         25.2170  -25.0980  -15.2010 C.2     1  UNL1        0.1420
     31  O         25.6620  -25.1730  -13.9200 O.2     1  UNL1       -0.3250
@<TRIPOS>BOND
     1    29    30    2
     2    29    28    1
     3    30    31    1
     4    28    27    2
     5    31    27    1
     6    27    26    1
     7    26    24    1
     8    25    24    1
     9    24    22   am
    10    23    22    2
    11    22     1    1
    12     2     1    2
    13     2     3    1
    14     1     6    1
    15     9     8    2
    16     3     4    2
    17     6     5    2
    18     5     4    1
    19     4     7    1
    20     8     7   am
    21     8    10   am
    22     7    21    1
    23    11    13    1
    24    11    10    1
    25    13    14    1
    26    10    12    1
    27    12    20    2
    28    12    16    1
    29    14    15    1
    30    20    19    1
    31    15    16    1
    32    16    17    2
    33    19    18    2
    34    17    18    1
