@<TRIPOS>MOLECULE
19734_out_ligand_01.pdbqt
 33 37 0 0 0
SMALL
GASTEIGER

@<TRIPOS>ATOM
      1  C         22.8610  -22.2290  -12.2770 C.2     1  UNL1        0.0340
      2  C         22.0970  -21.2880  -12.9870 C.2     1  UNL1        0.0180
      3  C         20.7890  -20.9830  -12.5950 C.2     1  UNL1        0.0200
      4  C         20.2290  -21.6250  -11.4880 C.ar    1  UNL1        0.0600
      5  C         18.8280  -21.3130  -11.0680 C.ar    1  UNL1        0.2590
      6  O         18.1510  -20.4940  -11.6770 O.2     1  UNL1       -0.2670
      7  N         18.3260  -21.9820   -9.9680 N.ar    1  UNL1       -0.3050
      8  C         19.1000  -22.9020   -9.2900 C.ar    1  UNL1        0.1600
      9  C         18.9090  -23.7160   -8.1940 C.ar    1  UNL1        0.1300
     10  N         20.0400  -24.4760   -8.0010 N.ar    1  UNL1       -0.1550
     11  N         20.9380  -24.1360   -8.9200 N.ar    1  UNL1        0.0120
     12  N         20.3790  -23.1930   -9.6980 N.ar    1  UNL1       -0.2190
     13  C         20.9930  -22.5740  -10.7910 C.ar    1  UNL1        0.0730
     14  C         22.3010  -22.8900  -11.1750 C.2     1  UNL1        0.0490
     15  H         17.3690  -21.7930   -9.6990 H       1  UNL1        0.1700
     16  C         24.2450  -22.5150  -12.7500 C.2     1  UNL1        0.2520
     17  O         24.7210  -23.6340  -12.5980 O.2     1  UNL1       -0.2680
     18  N         24.9070  -21.4810  -13.3760 N.am    1  UNL1       -0.3530
     19  H         24.3890  -20.6650  -13.6690 H       1  UNL1        0.1630
     20  C         26.2080  -21.6770  -13.9820 C.3     1  UNL1        0.1620
     21  C         26.0860  -21.9300  -15.4550 C.2     1  UNL1       -0.0230
     22  C         25.0580  -21.3560  -16.2100 C.2     1  UNL1        0.0120
     23  C         24.9860  -21.5980  -17.5790 C.2     1  UNL1        0.0200
     24  C         25.9540  -22.4050  -18.1520 C.2     1  UNL1        0.1160
     25  N         26.9660  -22.9720  -17.4610 N.2     1  UNL1       -0.2730
     26  C         27.0080  -22.7220  -16.1320 C.2     1  UNL1        0.1240
     27  C         17.7290  -23.8240   -7.3620 C.2     1  UNL1       -0.0020
     28  C         16.4750  -24.1440   -7.9030 C.2     1  UNL1        0.0170
     29  C         15.3520  -24.2370   -7.0760 C.2     1  UNL1        0.0430
     30  C         15.4820  -24.0040   -5.7120 C.2     1  UNL1        0.1160
     31  F         14.4040  -24.0930   -4.9220 F       1  UNL1       -0.2060
     32  C         16.7120  -23.6710   -5.1590 C.2     1  UNL1        0.0430
     33  C         17.8350  -23.5760   -5.9840 C.2     1  UNL1        0.0170
@<TRIPOS>BOND
     1    24    23    2
     2    24    25    1
     3    23    22    1
     4    25    26    2
     5    22    21    2
     6    26    21    1
     7    21    20    1
     8    20    18    1
     9    19    18    1
    10    18    16   am
    11     2     3    1
    12     2     1    2
    13    16    17    2
    14    16     1    1
    15     3     4    2
    16     1    14    1
    17     6     5    2
    18     4     5   ar
    19     4    13   ar
    20    14    13    2
    21     5     7   ar
    22    13    12   ar
    23     7    15    1
    24     7     8   ar
    25    12     8   ar
    26    12    11   ar
    27     8     9   ar
    28    11    10   ar
    29     9    10   ar
    30     9    27    1
    31    28    27    2
    32    28    29    1
    33    27    33    1
    34    29    30    2
    35    33    32    2
    36    30    32    1
    37    30    31    1
