@<TRIPOS>MOLECULE
19730_out_ligand_01.pdbqt
 37 40 0 0 0
SMALL
GASTEIGER

@<TRIPOS>ATOM
      1  N         21.2270  -22.9860   -9.0890 N.3     1  UNL1        0.1040
      2  C         20.3750  -23.8510   -8.2470 C.3     1  UNL1        0.3120
      3  C         19.5850  -23.0740   -7.2050 C.2     1  UNL1       -0.0240
      4  C         18.3760  -23.5440   -6.6540 C.2     1  UNL1       -0.0540
      5  C         17.7250  -22.7720   -5.6780 C.2     1  UNL1        0.0080
      6  C         17.7590  -24.8490   -7.0740 C.3     1  UNL1        0.0490
      7  C         18.2530  -21.5510   -5.2540 C.2     1  UNL1        0.0070
      8  C         19.4430  -21.0700   -5.8000 C.2     1  UNL1       -0.0610
      9  C         20.0330  -19.7690   -5.3440 C.3     1  UNL1        0.0480
     10  C         20.1050  -21.8410   -6.7600 C.2     1  UNL1        0.0160
     11  C         20.7670  -23.0140  -10.4910 C.3     1  UNL1        0.3110
     12  C         19.4300  -22.3270  -10.6980 C.2     1  UNL1       -0.0290
     13  C         19.3400  -21.1720  -11.4880 C.2     1  UNL1        0.0090
     14  C         18.1140  -20.5350  -11.6790 C.2     1  UNL1        0.0010
     15  C         16.9640  -21.0410  -11.0760 C.2     1  UNL1        0.0160
     16  C         17.0300  -22.1800  -10.2610 C.2     1  UNL1        0.0480
     17  C         18.2700  -22.8200  -10.0840 C.2     1  UNL1        0.0250
     18  C         15.7810  -22.7330   -9.6200 C.3     1  UNL1        0.4170
     19  F         15.7130  -24.0930   -9.6640 F       1  UNL1       -0.1660
     20  F         14.6340  -22.2860  -10.2050 F       1  UNL1       -0.1660
     21  F         15.6830  -22.3950   -8.3050 F       1  UNL1       -0.1660
     22  C         22.6460  -23.4030   -8.9960 C.3     1  UNL1        0.3590
     23  C         23.5340  -22.7650  -10.0240 C.2     1  UNL1        0.1740
     24  N         23.9750  -23.2710  -11.1620 N.2     1  UNL1       -0.2190
     25  C         24.7550  -22.2500  -11.6930 C.2     1  UNL1        0.1490
     26  C         24.7430  -21.1750  -10.8360 C.2     1  UNL1        0.1810
     27  O         23.9650  -21.4880   -9.7650 O.2     1  UNL1       -0.3030
     28  C         25.4480  -22.3310  -12.9700 C.2     1  UNL1        0.2720
     29  O         26.2510  -23.2150  -13.2410 O.2     1  UNL1       -0.2660
     30  N         25.1190  -21.3000  -13.8170 N.am    1  UNL1       -0.3530
     31  H         24.4800  -20.6020  -13.4510 H       1  UNL1        0.1620
     32  C         25.7640  -21.0770  -15.0960 C.3     1  UNL1        0.1550
     33  C         24.7790  -21.1330  -16.2780 C.3     1  UNL1        0.1390
     34  C         25.4500  -21.1180  -17.6460 C.3     1  UNL1        0.0350
     35  C         25.5740  -22.5820  -17.9790 C.3     1  UNL1        0.0290
     36  C         24.3080  -23.1440  -17.3770 C.3     1  UNL1        0.1680
     37  O         24.0370  -22.3700  -16.2020 O.3     1  UNL1       -0.3840
@<TRIPOS>BOND
     1    35    34    1
     2    35    36    1
     3    34    33    1
     4    36    37    1
     5    33    37    1
     6    33    32    1
     7    32    30    1
     8    30    31    1
     9    30    28   am
    10    29    28    2
    11    28    25    1
    12    25    24    1
    13    25    26    2
    14    14    13    1
    15    14    15    2
    16    13    12    2
    17    24    23    2
    18    15    16    1
    19    26    27    1
    20    12    11    1
    21    12    17    1
    22    11     1    1
    23    16    17    2
    24    16    18    1
    25    20    18    1
    26    23    27    1
    27    23    22    1
    28    19    18    1
    29    18    21    1
    30     1    22    1
    31     1     2    1
    32     2     3    1
    33     3    10    2
    34     3     4    1
    35     6     4    1
    36    10     8    1
    37     4     5    2
    38     8     9    1
    39     8     7    2
    40     5     7    1
