@<TRIPOS>MOLECULE
19741_out_ligand_01.pdbqt
 33 36 0 0 0
SMALL
GASTEIGER

@<TRIPOS>ATOM
      1  N         17.2440  -22.8080   -7.3880 N.ar    1  UNL1       -0.2100
      2  N         16.2350  -22.3110   -8.1540 N.ar    1  UNL1       -0.1700
      3  C         16.7020  -22.2800   -9.4000 C.ar    1  UNL1        0.0620
      4  C         15.8660  -21.7140  -10.4900 C.3     1  UNL1        0.0730
      5  C         17.9970  -22.8360   -9.4950 C.ar    1  UNL1        0.0220
      6  C         18.3050  -23.2230   -8.1990 C.ar    1  UNL1        0.1790
      7  C         18.8410  -22.9750  -10.7210 C.3     1  UNL1        0.0540
      8  C         19.0080  -21.6520  -11.4620 C.3     1  UNL1        0.1080
      9  C         20.4700  -21.2470  -11.5300 C.2     1  UNL1        0.2220
     10  O         20.9590  -20.4740  -10.7140 O.2     1  UNL1       -0.2730
     11  N         21.1140  -21.8160  -12.6170 N.am    1  UNL1       -0.3270
     12  H         20.5600  -22.4350  -13.1960 H       1  UNL1        0.1690
     13  C         22.4720  -21.6960  -12.9740 C.2     1  UNL1        0.0340
     14  C         22.7780  -20.8140  -14.0210 C.2     1  UNL1        0.0320
     15  C         24.0980  -20.6430  -14.4450 C.2     1  UNL1        0.0440
     16  C         25.1120  -21.3560  -13.8210 C.2     1  UNL1        0.1160
     17  F         26.3770  -21.1940  -14.2280 F       1  UNL1       -0.2060
     18  C         24.8290  -22.2320  -12.7830 C.2     1  UNL1        0.0440
     19  C         23.5070  -22.4030  -12.3570 C.2     1  UNL1        0.0320
     20  O         19.3740  -23.8610   -7.7060 O.3     1  UNL1       -0.2910
     21  C         20.6300  -23.4350   -8.0650 C.2     1  UNL1        0.0770
     22  C         21.1110  -22.1890   -7.6580 C.2     1  UNL1        0.0370
     23  C         22.3860  -21.7790   -8.0520 C.2     1  UNL1        0.0030
     24  C         23.1690  -22.6120   -8.8520 C.2     1  UNL1        0.0000
     25  C         22.6740  -23.8460   -9.2740 C.2     1  UNL1        0.0030
     26  C         21.3960  -24.2540   -8.8910 C.2     1  UNL1        0.0370
     27  C         17.1240  -22.8560   -5.9560 C.2     1  UNL1        0.0670
     28  C         16.2040  -23.7520   -5.3770 C.2     1  UNL1        0.0320
     29  C         16.0630  -23.8540   -3.9910 C.2     1  UNL1        0.0020
     30  C         16.8440  -23.0700   -3.1540 C.2     1  UNL1        0.0010
     31  C         17.7650  -22.1830   -3.7040 C.2     1  UNL1        0.0090
     32  C         17.9210  -22.0520   -5.1000 C.2     1  UNL1       -0.0330
     33  C         18.9260  -21.0350   -5.5740 C.3     1  UNL1        0.0500
@<TRIPOS>BOND
     1    15    14    1
     2    15    16    2
     3    17    16    1
     4    14    13    2
     5    16    18    1
     6    12    11    1
     7    13    11    1
     8    13    19    1
     9    18    19    2
    10    11     9   am
    11     9     8    1
    12     9    10    2
    13     8     7    1
    14     7     5    1
    15     4     3    1
    16     5     3   ar
    17     5     6   ar
    18     3     2   ar
    19    25    26    1
    20    25    24    2
    21    26    21    2
    22    24    23    1
    23     6    20    1
    24     6     1   ar
    25     2     1   ar
    26    21    20    1
    27    21    22    1
    28    23    22    2
    29     1    27    1
    30    27    28    2
    31    27    32    1
    32    33    32    1
    33    28    29    1
    34    32    31    2
    35    29    30    2
    36    31    30    1
