@<TRIPOS>MOLECULE
19740_out_ligand_01.pdbqt
 36 39 0 0 0
SMALL
GASTEIGER

@<TRIPOS>ATOM
      1  N         20.4530  -23.3500   -9.3780 N.pl3   1  UNL1       -0.3310
      2  C         21.8130  -23.1790   -9.5740 C.2     1  UNL1        0.1210
      3  C         22.3650  -22.3870  -10.5040 C.2     1  UNL1        0.1300
      4  C         21.4630  -21.6150  -11.3760 C.2     1  UNL1        0.2090
      5  O         21.8710  -20.8940  -12.2790 O.2     1  UNL1       -0.2860
      6  C         20.0070  -21.7390  -11.1340 C.2     1  UNL1        0.0620
      7  C         19.1030  -20.9980  -11.8960 C.2     1  UNL1        0.0210
      8  C         17.7420  -21.1270  -11.6470 C.2     1  UNL1        0.0280
      9  C         17.3290  -21.9880  -10.6380 C.2     1  UNL1        0.0330
     10  C         15.8670  -22.1530  -10.3460 C.3     1  UNL1        0.0700
     11  N         18.2000  -22.7050   -9.8810 N.2     1  UNL1       -0.2350
     12  C         19.5320  -22.5970  -10.1370 C.2     1  UNL1        0.1440
     13  C         19.8960  -24.2380   -8.3420 C.3     1  UNL1        0.2330
     14  C         19.2970  -23.4370   -7.1800 C.2     1  UNL1        0.2400
     15  N         18.1710  -24.0330   -6.6380 N.am    1  UNL1       -0.3260
     16  H         17.8390  -24.8600   -7.1370 H       1  UNL1        0.1690
     17  O         19.8160  -22.3860   -6.8100 O.2     1  UNL1       -0.2710
     18  C         17.3790  -23.5870   -5.5630 C.2     1  UNL1        0.0370
     19  C         17.8160  -23.9210   -4.2740 C.2     1  UNL1        0.0290
     20  C         17.0930  -23.5150   -3.1530 C.2     1  UNL1        0.0050
     21  C         15.9260  -22.7720   -3.3160 C.2     1  UNL1        0.0370
     22  C         15.4760  -22.4310   -4.5920 C.2     1  UNL1        0.0700
     23  C         16.2070  -22.8390   -5.7130 C.2     1  UNL1        0.0660
     24  O         14.3180  -21.7010   -4.6100 O.2     1  UNL1       -0.3560
     25  C         13.6740  -21.5460   -5.8690 C.3     1  UNL1        0.2100
     26  S         24.0760  -22.2610  -10.6370 S.O2    1  UNL1        0.2120
     27  O         24.7060  -23.3470   -9.9000 O.2     1  UNL1       -0.2170
     28  O         24.4970  -20.8970  -10.3700 O.2     1  UNL1       -0.2170
     29  C         24.3950  -22.6100  -12.3570 C.2     1  UNL1        0.0650
     30  C         24.6500  -23.9240  -12.7490 C.2     1  UNL1        0.0240
     31  C         24.9270  -24.1980  -14.0880 C.2     1  UNL1        0.0090
     32  C         24.9610  -23.1650  -15.0410 C.2     1  UNL1       -0.0560
     33  C         25.2690  -23.5000  -16.4750 C.3     1  UNL1        0.0490
     34  C         24.7240  -21.8350  -14.6340 C.2     1  UNL1       -0.0550
     35  C         24.7560  -20.6950  -15.6160 C.3     1  UNL1        0.0490
     36  C         24.4470  -21.5660  -13.2840 C.2     1  UNL1        0.0310
@<TRIPOS>BOND
     1    33    32    1
     2    35    34    1
     3    32    34    2
     4    32    31    1
     5    34    36    1
     6    31    30    2
     7    36    29    2
     8    30    29    1
     9    29    26    1
    10     5     4    2
    11     7     8    1
    12     7     6    2
    13     8     9    2
    14     4     6    1
    15     4     3    1
    16     6    12    1
    17     9    10    1
    18     9    11    1
    19    26     3    1
    20    26    28    2
    21    26    27    2
    22     3     2    2
    23    12    11    2
    24    12     1    1
    25     2     1    1
    26     1    13    1
    27    13    14    1
    28    14    17    2
    29    14    15   am
    30    16    15    1
    31    15    18    1
    32    25    24    1
    33    23    18    2
    34    23    22    1
    35    18    19    1
    36    24    22    1
    37    22    21    2
    38    19    20    2
    39    21    20    1
