@<TRIPOS>MOLECULE
19758_out_ligand_01.pdbqt
 30 33 0 0 0
SMALL
GASTEIGER

@<TRIPOS>ATOM
      1  C         16.3710  -23.4930   -9.0240 C.3     1  UNL1        0.0330
      2  C         17.1300  -22.1590   -8.9570 C.3     1  UNL1        0.0930
      3  C         16.9660  -21.3700  -10.2770 C.3     1  UNL1        0.0660
      4  C         18.3180  -21.5170  -10.8940 C.2     1  UNL1       -0.0290
      5  C         18.7110  -21.0940  -12.1540 C.2     1  UNL1        0.0100
      6  C         20.0500  -21.2450  -12.5170 C.2     1  UNL1        0.0090
      7  C         20.9850  -21.8110  -11.6240 C.2     1  UNL1       -0.0380
      8  C         20.5620  -22.2320  -10.3530 C.2     1  UNL1        0.0390
      9  C         19.2300  -22.0810  -10.0000 C.2     1  UNL1        0.0440
     10  N         18.5940  -22.3810   -8.7760 N.am    1  UNL1       -0.3090
     11  C         19.2380  -22.8790   -7.6530 C.2     1  UNL1        0.2580
     12  O         20.3850  -23.3220   -7.6120 O.2     1  UNL1       -0.2670
     13  C         22.4260  -21.9660  -12.0390 C.3     1  UNL1        0.1620
     14  N         22.6650  -21.3580  -13.3320 N.am    1  UNL1       -0.3390
     15  C         23.9100  -21.3810  -13.9020 C.2     1  UNL1        0.3160
     16  O         24.8790  -21.9610  -13.4340 O.2     1  UNL1       -0.2470
     17  N         23.9240  -20.6700  -15.0790 N.am    1  UNL1       -0.3390
     18  H         23.0310  -20.6350  -15.5470 H       1  UNL1        0.1640
     19  H         22.1020  -20.5510  -13.5490 H       1  UNL1        0.1640
     20  C         25.1050  -20.6820  -15.9200 C.3     1  UNL1        0.0860
     21  C         25.9860  -19.4540  -15.7060 C.3     1  UNL1        0.0250
     22  C         26.8740  -19.4330  -16.9450 C.3     1  UNL1        0.0020
     23  C         26.0370  -20.0510  -18.0690 C.3     1  UNL1        0.0020
     24  C         24.7740  -20.6070  -17.4110 C.3     1  UNL1        0.0250
     25  C         18.4970  -22.8580   -6.3690 C.2     1  UNL1        0.0320
     26  C         18.4780  -21.6980   -5.5820 C.2     1  UNL1        0.0170
     27  C         17.8010  -21.7000   -4.3580 C.2     1  UNL1        0.0010
     28  C         17.1730  -22.8640   -3.9090 C.2     1  UNL1        0.0000
     29  C         17.2180  -24.0300   -4.6800 C.2     1  UNL1        0.0010
     30  C         17.8910  -24.0330   -5.9090 C.2     1  UNL1        0.0170
@<TRIPOS>BOND
     1    23    24    1
     2    23    22    1
     3    24    20    1
     4    22    21    1
     5    20    21    1
     6    20    17    1
     7    18    17    1
     8    17    15   am
     9    15    16    2
    10    15    14   am
    11    19    14    1
    12    14    13    1
    13     6     5    1
    14     6     7    2
    15     5     4    2
    16    13     7    1
    17     7     8    1
    18     4     3    1
    19     4     9    1
    20     8     9    2
    21     3     2    1
    22     9    10    1
    23     1     2    1
    24     2    10    1
    25    10    11   am
    26    11    12    2
    27    11    25    1
    28    25    30    2
    29    25    26    1
    30    30    29    1
    31    26    27    2
    32    29    28    2
    33    27    28    1
