@<TRIPOS>MOLECULE
19752_out_ligand_01.pdbqt
 27 30 0 0 0
SMALL
GASTEIGER

@<TRIPOS>ATOM
      1  C         21.5290  -22.1120  -11.3730 C.2     1  UNL1        0.0350
      2  C         20.9050  -21.2940  -12.3130 C.2     1  UNL1        0.0290
      3  C         19.5970  -20.8580  -12.1010 C.2     1  UNL1        0.0030
      4  C         18.9020  -21.2350  -10.9490 C.2     1  UNL1        0.0140
      5  C         19.5010  -22.0570   -9.9860 C.2     1  UNL1       -0.0070
      6  C         20.8200  -22.4850  -10.2190 C.2     1  UNL1        0.0430
      7  C         18.7890  -22.4690   -8.7620 C.2     1  UNL1        0.0430
      8  C         19.2060  -22.5020   -7.4380 C.2     1  UNL1        0.0440
      9  C         18.1440  -22.9800   -6.6250 C.2     1  UNL1       -0.0040
     10  C         17.9930  -23.2170   -5.2460 C.2     1  UNL1        0.0560
     11  C         17.0710  -23.2390   -7.4730 C.2     1  UNL1        0.0430
     12  C         16.7720  -23.7050   -4.7830 C.2     1  UNL1        0.1170
     13  F         16.6170  -23.9340   -3.4710 F       1  UNL1       -0.2060
     14  C         15.7110  -23.9580   -5.6440 C.2     1  UNL1        0.0440
     15  C         15.8410  -23.7270   -7.0170 C.2     1  UNL1        0.0330
     16  N         17.4850  -22.9230   -8.7470 N.pl3   1  UNL1       -0.3550
     17  H         16.8960  -23.0190   -9.5600 H       1  UNL1        0.1660
     18  N         22.8430  -22.5990  -11.5040 N.am    1  UNL1       -0.3210
     19  C         23.9860  -22.1810  -10.8480 C.2     1  UNL1        0.2800
     20  O         24.0450  -21.2830  -10.0150 O.2     1  UNL1       -0.2650
     21  H         22.9880  -23.3590  -12.1610 H       1  UNL1        0.1690
     22  C         25.1650  -22.9300  -11.2500 C.2     1  UNL1        0.1440
     23  C         26.2720  -23.3400  -10.5310 C.2     1  UNL1        0.0460
     24  C         27.1100  -24.0380  -11.4350 C.2     1  UNL1        0.0480
     25  C         26.4680  -24.0120  -12.6520 C.2     1  UNL1        0.1220
     26 BR         27.1210  -24.7960  -14.2570 Br      1  UNL1       -0.0230
     27  O         25.2880  -23.3430  -12.5530 O.2     1  UNL1       -0.2980
@<TRIPOS>BOND
     1    26    25    1
     2    25    27    1
     3    25    24    2
     4    27    22    1
     5     2     3    1
     6     2     1    2
     7    21    18    1
     8     3     4    2
     9    18     1    1
    10    18    19   am
    11    24    23    1
    12     1     6    1
    13    22    19    1
    14    22    23    2
    15     4     5    1
    16    19    20    2
    17     6     5    2
    18     5     7    1
    19    17    16    1
    20     7    16    1
    21     7     8    2
    22    16    11    1
    23    11    15    1
    24    11     9    2
    25     8     9    1
    26    15    14    2
    27     9    10    1
    28    14    12    1
    29    10    12    2
    30    12    13    1
