@<TRIPOS>MOLECULE
19764_out_ligand_01.pdbqt
 33 36 0 0 0
SMALL
GASTEIGER

@<TRIPOS>ATOM
      1  C         22.0220  -22.8990   -8.8400 C.2     1  UNL1        0.0320
      2  C         21.1750  -22.1160   -8.0480 C.2     1  UNL1        0.0200
      3  C         19.9800  -22.6490   -7.5530 C.2     1  UNL1        0.0380
      4  C         19.6260  -23.9690   -7.8440 C.2     1  UNL1        0.0780
      5  C         20.4580  -24.7400   -8.6630 C.2     1  UNL1        0.0380
      6  C         21.6490  -24.2090   -9.1620 C.2     1  UNL1        0.0200
      7  O         18.4890  -24.6090   -7.4010 O.2     1  UNL1       -0.2900
      8  C         17.5330  -23.8400   -6.7780 C.2     1  UNL1        0.2060
      9  N         17.8310  -23.4430   -5.5130 N.2     1  UNL1       -0.2330
     10  C         16.9100  -22.6490   -4.9260 C.2     1  UNL1        0.1380
     11  C         15.7440  -22.2660   -5.5670 C.2     1  UNL1        0.1370
     12  N         15.4450  -22.6520   -6.8280 N.2     1  UNL1       -0.2480
     13  C         16.3660  -23.4430   -7.4420 C.2     1  UNL1        0.1510
     14  S         15.9760  -23.9410   -9.1080 S.3     1  UNL1       -0.0660
     15  C         16.9750  -22.7790  -10.0170 C.2     1  UNL1        0.0070
     16  C         18.1970  -23.1910  -10.5630 C.2     1  UNL1        0.0220
     17  C         18.9800  -22.2890  -11.2860 C.2     1  UNL1        0.0430
     18  C         18.5360  -20.9830  -11.4630 C.2     1  UNL1        0.1160
     19  F         19.2880  -20.1200  -12.1580 F       1  UNL1       -0.2060
     20  C         17.3230  -20.5610  -10.9330 C.2     1  UNL1        0.0430
     21  C         16.5390  -21.4620  -10.2100 C.2     1  UNL1        0.0220
     22  C         23.3040  -22.3710   -9.3800 C.2     1  UNL1        0.2510
     23  N         24.1680  -23.3040   -9.9040 N.am    1  UNL1       -0.3530
     24  H         23.8300  -24.2350  -10.1050 H       1  UNL1        0.1630
     25  O         23.5310  -21.1660   -9.3770 O.2     1  UNL1       -0.2680
     26  C         25.3920  -22.8890  -10.5490 C.3     1  UNL1        0.1610
     27  C         25.1920  -22.7880  -12.0370 C.2     1  UNL1       -0.0400
     28  C         24.7750  -21.5850  -12.6210 C.2     1  UNL1        0.0090
     29  C         24.5520  -21.5070  -13.9950 C.2     1  UNL1        0.0010
     30  C         24.7400  -22.6310  -14.8000 C.2     1  UNL1        0.0070
     31  C         25.1570  -23.8430  -14.2380 C.2     1  UNL1       -0.0610
     32  C         25.3420  -25.0640  -15.0900 C.3     1  UNL1        0.0480
     33  C         25.3680  -23.9150  -12.8540 C.2     1  UNL1        0.0150
@<TRIPOS>BOND
     1    32    31    1
     2    30    31    2
     3    30    29    1
     4    31    33    1
     5    29    28    2
     6    33    27    2
     7    28    27    1
     8    19    18    1
     9    27    26    1
    10    18    17    2
    11    18    20    1
    12    17    16    1
    13    20    21    2
    14    16    15    2
    15    26    23    1
    16    21    15    1
    17    24    23    1
    18    15    14    1
    19    23    22   am
    20    22    25    2
    21    22     1    1
    22     6     1    2
    23     6     5    1
    24    14    13    1
    25     1     2    1
    26     5     4    2
    27     2     3    2
    28     4     3    1
    29     4     7    1
    30    13    12    2
    31    13     8    1
    32     7     8    1
    33    12    11    1
    34     8     9    2
    35    11    10    2
    36     9    10    1
