@<TRIPOS>MOLECULE
19768_out_ligand_01.pdbqt
 34 37 0 0 0
SMALL
GASTEIGER

@<TRIPOS>ATOM
      1  C         19.4050  -21.7620  -11.1440 C.2     1  UNL1        0.0060
      2  C         18.3130  -21.0020  -11.5380 C.2     1  UNL1        0.0210
      3  C         17.1140  -21.3330  -10.8460 C.2     1  UNL1        0.0340
      4  C         17.3080  -22.3380   -9.9230 C.2     1  UNL1        0.1150
      5  S         18.9250  -22.8780   -9.9210 S.3     1  UNL1       -0.0770
      6  S         16.2170  -23.1530   -8.7870 S.O2    1  UNL1        0.2480
      7  O         15.3570  -24.0040   -9.5780 O.2     1  UNL1       -0.2050
      8  O         15.7010  -22.1150   -7.9250 O.2     1  UNL1       -0.2050
      9  N         17.1600  -24.1430   -7.8040 N.3     1  UNL1       -0.2060
     10  H         18.1430  -24.0940   -8.0680 H       1  UNL1        0.1400
     11  C         16.9020  -24.1080   -6.3530 C.3     1  UNL1        0.1050
     12  C         15.3880  -23.9990   -6.1050 C.3     1  UNL1        0.0260
     13  C         15.0010  -23.8210   -4.6280 C.3     1  UNL1        0.0060
     14  C         16.1670  -23.5170   -3.6850 C.3     1  UNL1        0.0390
     15  C         17.2060  -22.6470   -4.3400 C.2     1  UNL1       -0.0500
     16  C         17.8300  -21.6090   -3.6390 C.2     1  UNL1        0.0070
     17  C         17.5870  -22.9350   -5.6660 C.2     1  UNL1       -0.0330
     18  C         18.8200  -20.8470   -4.2560 C.2     1  UNL1        0.0010
     19  C         19.1990  -21.1240   -5.5680 C.2     1  UNL1        0.0010
     20  C         18.5920  -22.1660   -6.2700 C.2     1  UNL1        0.0090
     21  C         20.7390  -21.6540  -11.6510 C.2     1  UNL1        0.0220
     22  C         21.0480  -21.3700  -12.9270 C.2     1  UNL1        0.0430
     23  C         22.4090  -21.3010  -13.3540 C.ar    1  UNL1        0.1300
     24  O         22.7790  -20.5750  -14.4700 O.2     1  UNL1       -0.2110
     25  N         24.1420  -20.5350  -14.6170 N.ar    1  UNL1       -0.1310
     26  C         24.6310  -21.2540  -13.6080 C.ar    1  UNL1        0.0870
     27  C         23.5900  -21.8030  -12.8030 C.ar    1  UNL1        0.0980
     28  C         26.0970  -21.4190  -13.4690 C.3     1  UNL1        0.0750
     29  N         23.8170  -22.6180  -11.6950 N.am    1  UNL1       -0.3230
     30  C         24.0200  -22.1970  -10.3920 C.2     1  UNL1        0.2210
     31  O         23.9510  -21.0460   -9.9830 O.2     1  UNL1       -0.2730
     32  H         23.6130  -23.6000  -11.8230 H       1  UNL1        0.1690
     33  C         24.3000  -23.3730   -9.4690 C.3     1  UNL1        0.0980
     34  C         23.0330  -23.9730   -8.8860 C.3     1  UNL1        0.0140
@<TRIPOS>BOND
     1    25    24   ar
     2    25    26   ar
     3    24    23   ar
     4    26    28    1
     5    26    27   ar
     6    23    22    1
     7    23    27   ar
     8    22    21    2
     9    27    29    1
    10    32    29    1
    11    29    30   am
    12    21     1    1
    13     2     1    2
    14     2     3    1
    15     1     5    1
    16     3     4    2
    17    30    31    2
    18    30    33    1
    19     4     5    1
    20     4     6    1
    21     7     6    2
    22    33    34    1
    23     6     8    2
    24     6     9    1
    25    10     9    1
    26     9    11    1
    27    11    12    1
    28    11    17    1
    29    20    17    1
    30    20    19    2
    31    12    13    1
    32    17    15    2
    33    19    18    1
    34    13    14    1
    35    15    14    1
    36    15    16    1
    37    18    16    2
