@<TRIPOS>MOLECULE
19778_out_ligand_01.pdbqt
 26 29 0 0 0
SMALL
GASTEIGER

@<TRIPOS>ATOM
      1  C         19.8990  -22.3820   -9.7870 C.2     1  UNL1        0.1600
      2  N         19.0590  -22.6730  -10.8010 N.2     1  UNL1       -0.2400
      3  C         17.7610  -22.8600  -10.4820 C.2     1  UNL1        0.1390
      4  C         17.2800  -22.7670   -9.1980 C.ar    1  UNL1        0.0870
      5  C         15.8640  -22.9750   -8.8920 C.ar    1  UNL1        0.3020
      6  O         15.0570  -23.2420   -9.7730 O.2     1  UNL1       -0.2590
      7  O         15.4960  -22.8550   -7.5570 O.2     1  UNL1       -0.2740
      8  C         16.4240  -22.5480   -6.5370 C.ar    1  UNL1        0.0920
      9  C         15.9240  -22.4570   -5.2390 C.2     1  UNL1        0.0380
     10  C         16.7980  -22.1570   -4.1960 C.2     1  UNL1        0.0030
     11  C         18.1530  -21.9540   -4.4630 C.2     1  UNL1        0.0010
     12  C         18.6370  -22.0490   -5.7720 C.2     1  UNL1        0.0170
     13  C         17.7740  -22.3490   -6.8360 C.ar    1  UNL1        0.0280
     14  C         18.2010  -22.4670   -8.2230 C.ar    1  UNL1        0.0900
     15  N         19.5140  -22.2700   -8.4990 N.2     1  UNL1       -0.2270
     16  C         21.3260  -22.1720  -10.1050 C.2     1  UNL1        0.0120
     17  C         22.2760  -21.9200   -9.0950 C.2     1  UNL1        0.0160
     18  C         23.6290  -21.7210   -9.3940 C.2     1  UNL1        0.0180
     19  C         24.0750  -21.7760  -10.7170 C.2     1  UNL1        0.0310
     20  C         23.1520  -22.0110  -11.7400 C.2     1  UNL1        0.0180
     21  C         21.7980  -22.2080  -11.4320 C.2     1  UNL1        0.0160
     22  C         25.5210  -21.5580  -10.9870 C.2     1  UNL1        0.2490
     23  N         26.3990  -22.5030  -10.5310 N.am    1  UNL1       -0.3660
     24  H         27.3780  -22.2620  -10.6130 H       1  UNL1        0.1590
     25  H         26.1460  -23.1660   -9.8130 H       1  UNL1        0.1590
     26  O         25.9240  -20.5570  -11.5640 O.2     1  UNL1       -0.2680
@<TRIPOS>BOND
     1    20    21    1
     2    20    19    2
     3    26    22    2
     4    21    16    2
     5    22    19    1
     6    22    23   am
     7     2     3    1
     8     2     1    2
     9    19    18    1
    10    24    23    1
    11    23    25    1
    12     3     4    2
    13    16     1    1
    14    16    17    1
    15     1    15    1
    16     6     5    2
    17    18    17    2
    18     4     5   ar
    19     4    14   ar
    20     5     7   ar
    21    15    14    2
    22    14    13   ar
    23     7     8   ar
    24    13     8   ar
    25    13    12    1
    26     8     9    1
    27    12    11    2
    28     9    10    2
    29    11    10    1
