@<TRIPOS>MOLECULE
19788_out_ligand_01.pdbqt
 31 35 0 0 0
SMALL
GASTEIGER

@<TRIPOS>ATOM
      1  C         18.0370  -21.8760  -10.7910 C.2     1  UNL1        0.1730
      2  N         17.0380  -22.0590  -10.0100 N.2     1  UNL1       -0.2360
      3  C         17.3110  -22.8050   -8.7760 C.3     1  UNL1        0.2320
      4  N         18.5790  -23.4820   -8.6240 N.pl3   1  UNL1       -0.3570
      5  C         19.5840  -23.1160   -9.4400 C.ar    1  UNL1        0.0870
      6  S         21.2020  -23.5890   -9.2460 S.2     1  UNL1       -0.0740
      7  C         21.6610  -22.7600  -10.6610 C.ar    1  UNL1        0.0200
      8  C         20.5970  -22.1150  -11.2680 C.ar    1  UNL1       -0.0240
      9  C         19.3820  -22.3240  -10.5460 C.ar    1  UNL1        0.0570
     10  C         20.8090  -21.3500  -12.5360 C.3     1  UNL1        0.0710
     11  C         22.3110  -21.0800  -12.7820 C.3     1  UNL1        0.2780
     12  N         23.1480  -22.2840  -12.5670 N.3     1  UNL1        0.0970
     13  C         23.0820  -22.7270  -11.1510 C.3     1  UNL1        0.3190
     14  H         18.7670  -23.9200   -7.7310 H       1  UNL1        0.1620
     15  C         16.2390  -23.8370   -8.5430 C.2     1  UNL1        0.0220
     16  C         15.6350  -24.2160   -7.4010 C.2     1  UNL1        0.0110
     17  C         15.8660  -23.6450   -6.0730 C.2     1  UNL1       -0.0360
     18  C         14.8890  -22.8230   -5.4990 C.2     1  UNL1        0.0110
     19  C         15.0920  -22.2680   -4.2330 C.2     1  UNL1        0.0010
     20  C         16.2730  -22.5260   -3.5380 C.2     1  UNL1        0.0000
     21  C         17.2520  -23.3380   -4.1080 C.2     1  UNL1        0.0010
     22  C         17.0520  -23.8890   -5.3750 C.2     1  UNL1        0.0110
     23  O         17.8160  -21.2030  -11.9360 O.2     1  UNL1       -0.3440
     24  H         17.0050  -20.6920  -11.7920 H       1  UNL1        0.2190
     25  C         24.5400  -22.0100  -12.9650 C.3     1  UNL1        0.3110
     26  C         24.7600  -22.0190  -14.4620 C.2     1  UNL1       -0.0300
     27  C         24.8850  -20.8170  -15.1740 C.2     1  UNL1        0.0090
     28  C         25.0780  -20.8290  -16.5560 C.2     1  UNL1        0.0010
     29  C         25.1440  -22.0400  -17.2420 C.2     1  UNL1        0.0000
     30  C         25.0180  -23.2420  -16.5470 C.2     1  UNL1        0.0010
     31  C         24.8260  -23.2320  -15.1650 C.2     1  UNL1        0.0090
@<TRIPOS>BOND
     1    29    28    2
     2    29    30    1
     3    28    27    1
     4    30    31    2
     5    27    26    2
     6    31    26    1
     7    26    25    1
     8    25    12    1
     9    11    12    1
    10    11    10    1
    11    12    13    1
    12    10     8    1
    13    23    24    1
    14    23     1    1
    15     8     7   ar
    16     8     9   ar
    17    13     7    1
    18     1     9    1
    19     1     2    2
    20     7     6   ar
    21     9     5   ar
    22     2     3    1
    23     5     6   ar
    24     5     4    1
    25     3     4    1
    26     3    15    1
    27     4    14    1
    28    15    16    2
    29    16    17    1
    30    17    18    2
    31    17    22    1
    32    18    19    1
    33    22    21    2
    34    19    20    2
    35    21    20    1
