@<TRIPOS>MOLECULE
1979_out_ligand_01.pdbqt
 39 43 0 0 0
SMALL
GASTEIGER

@<TRIPOS>ATOM
      1  C         21.2600  -22.4350  -10.5510 C.2     1  UNL1        0.0340
      2  C         22.6180  -22.7640  -10.6490 C.2     1  UNL1        0.0300
      3  C         23.3620  -22.4020  -11.7760 C.2     1  UNL1        0.0190
      4  C         22.7570  -21.7090  -12.8310 C.2     1  UNL1        0.0320
      5  C         21.4050  -21.3630  -12.7300 C.2     1  UNL1        0.0190
      6  C         20.6630  -21.7300  -11.5990 C.2     1  UNL1        0.0300
      7  N         20.5850  -22.8410   -9.3830 N.am    1  UNL1       -0.3270
      8  C         20.4030  -24.1330   -8.9130 C.2     1  UNL1        0.2230
      9  O         20.7680  -25.1620   -9.4700 O.2     1  UNL1       -0.2730
     10  H         20.2040  -22.0930   -8.8170 H       1  UNL1        0.1690
     11  C         19.6010  -24.1570   -7.6190 C.3     1  UNL1        0.1170
     12  C         18.7410  -22.8910   -7.4310 C.3     1  UNL1        0.0600
     13  C         17.4520  -22.9930   -8.2490 C.2     1  UNL1       -0.0490
     14  C         17.1840  -22.0390   -9.2460 C.2     1  UNL1        0.0080
     15  C         16.0230  -22.1180  -10.0160 C.2     1  UNL1        0.0010
     16  C         15.1130  -23.1510   -9.8020 C.2     1  UNL1        0.0000
     17  C         15.3670  -24.1100   -8.8240 C.2     1  UNL1        0.0010
     18  C         16.5300  -24.0350   -8.0540 C.2     1  UNL1        0.0080
     19  C         18.4600  -22.5450   -5.9650 C.2     1  UNL1       -0.0490
     20  C         18.8460  -21.2810   -5.4840 C.2     1  UNL1        0.0080
     21  C         18.5960  -20.9080   -4.1610 C.2     1  UNL1        0.0010
     22  C         17.9500  -21.7900   -3.2980 C.2     1  UNL1        0.0000
     23  C         17.5520  -23.0420   -3.7580 C.2     1  UNL1        0.0010
     24  C         17.8030  -23.4170   -5.0810 C.2     1  UNL1        0.0080
     25  C         23.5980  -21.3420  -14.0060 C.2     1  UNL1        0.2510
     26  O         23.3690  -21.8430  -15.1020 O.2     1  UNL1       -0.2680
     27  N         24.6070  -20.4330  -13.7820 N.am    1  UNL1       -0.3540
     28  H         24.6240  -19.9150  -12.9140 H       1  UNL1        0.1620
     29  C         25.4860  -19.9510  -14.8470 C.3     1  UNL1        0.1590
     30  C         26.8450  -20.6990  -14.9340 C.3     1  UNL1        0.1720
     31  O         27.1210  -21.1370  -16.2780 O.3     1  UNL1       -0.3790
     32  C         26.4690  -22.3560  -16.6210 C.3     1  UNL1        0.1730
     33  C         27.0070  -23.5000  -15.7720 C.3     1  UNL1        0.0650
     34  C         26.9950  -23.1580  -14.3060 C.2     1  UNL1       -0.0470
     35  C         27.0700  -24.1740  -13.3450 C.2     1  UNL1        0.0080
     36  C         26.9830  -21.8090  -13.9030 C.2     1  UNL1       -0.0210
     37  C         27.1210  -23.8550  -11.9880 C.2     1  UNL1        0.0010
     38  C         27.1210  -22.5220  -11.5840 C.2     1  UNL1        0.0010
     39  C         27.0520  -21.5030  -12.5340 C.2     1  UNL1        0.0100
@<TRIPOS>BOND
     1    32    31    1
     2    32    33    1
     3    31    30    1
     4    33    34    1
     5    26    25    2
     6    30    29    1
     7    30    36    1
     8    29    27    1
     9    34    36    2
    10    34    35    1
    11    25    27   am
    12    25     4    1
    13    36    39    1
    14    27    28    1
    15    35    37    2
    16     4     5    2
    17     4     3    1
    18     5     6    1
    19    39    38    2
    20    37    38    1
    21     3     2    2
    22     6     1    2
    23     2     1    1
    24     1     7    1
    25    15    16    2
    26    15    14    1
    27    16    17    1
    28     9     8    2
    29     7     8   am
    30     7    10    1
    31    14    13    2
    32     8    11    1
    33    17    18    2
    34    13    18    1
    35    13    12    1
    36    11    12    1
    37    12    19    1
    38    19    20    2
    39    19    24    1
    40    20    21    1
    41    24    23    2
    42    21    22    2
    43    23    22    1
