@<TRIPOS>MOLECULE
19806_out_ligand_01.pdbqt
 29 32 0 0 0
SMALL
GASTEIGER

@<TRIPOS>ATOM
      1  C         18.7000  -22.9150   -9.2570 C.2     1  UNL1        0.2580
      2  O         18.2920  -23.0140  -10.4110 O.2     1  UNL1       -0.2670
      3  N         19.9840  -22.5760   -8.8650 N.am    1  UNL1       -0.3130
      4  C         20.4410  -22.3280   -7.4850 C.2     1  UNL1        0.1370
      5  C         21.8710  -21.7790   -7.5620 C.2     1  UNL1        0.0610
      6  C         22.1860  -21.9370   -9.0140 C.2     1  UNL1       -0.0290
      7  C         23.3920  -21.6640   -9.6460 C.2     1  UNL1        0.0180
      8  C         23.4830  -21.8460  -11.0350 C.2     1  UNL1       -0.0400
      9  C         22.3490  -22.2740  -11.7540 C.2     1  UNL1        0.0110
     10  C         21.1390  -22.5400  -11.1040 C.2     1  UNL1        0.0310
     11  C         21.0720  -22.3680   -9.7330 C.2     1  UNL1        0.0430
     12  C         24.7650  -21.5270  -11.7570 C.3     1  UNL1        0.1610
     13  N         24.6140  -21.7440  -13.1750 N.am    1  UNL1       -0.3510
     14  C         25.6940  -22.0760  -13.9570 C.2     1  UNL1        0.2700
     15  O         26.8320  -22.1160  -13.4970 O.2     1  UNL1       -0.2660
     16  H         23.6810  -21.8830  -13.5320 H       1  UNL1        0.1630
     17  C         25.3820  -22.3810  -15.3360 C.2     1  UNL1        0.1210
     18  C         25.1900  -21.5550  -16.4340 C.2     1  UNL1        0.0580
     19  C         24.9170  -22.4120  -17.5130 C.2     1  UNL1        0.1410
     20  N         24.9310  -23.6940  -17.1520 N.2     1  UNL1       -0.1850
     21  N         25.2210  -23.6560  -15.8350 N.pl3   1  UNL1       -0.2690
     22  C         25.3210  -24.9040  -15.1080 C.3     1  UNL1        0.1800
     23  C         17.7140  -23.1530   -8.1820 C.2     1  UNL1        0.0320
     24  C         17.8270  -24.2730   -7.3540 C.2     1  UNL1        0.0170
     25  C         16.8820  -24.4860   -6.3500 C.2     1  UNL1        0.0070
     26  C         15.8220  -23.5860   -6.1710 C.2     1  UNL1       -0.0620
     27  C         14.7840  -23.8390   -5.1160 C.3     1  UNL1        0.0480
     28  C         15.7000  -22.4850   -7.0320 C.2     1  UNL1        0.0070
     29  C         16.6430  -22.2680   -8.0380 C.2     1  UNL1        0.0170
@<TRIPOS>BOND
     1    19    20    2
     2    19    18    1
     3    20    21    1
     4    18    17    2
     5    21    17    1
     6    21    22    1
     7    17    14    1
     8    14    15    2
     9    14    13   am
    10    16    13    1
    11    13    12    1
    12    12     8    1
    13     9    10    2
    14     9     8    1
    15    10    11    1
    16     8     7    2
    17     2     1    2
    18    11     6    2
    19    11     3    1
    20     7     6    1
    21     1     3   am
    22     1    23    1
    23     6     5    1
    24     3     4    1
    25    23    29    2
    26    23    24    1
    27    29    28    1
    28     5     4    2
    29    24    25    2
    30    28    26    2
    31    25    26    1
    32    26    27    1
