@<TRIPOS>MOLECULE
19807_out_ligand_01.pdbqt
 32 34 0 0 0
SMALL
GASTEIGER

@<TRIPOS>ATOM
      1  C         20.4840  -22.5740   -7.5430 C.2     1  UNL1        0.0720
      2  C         19.2830  -23.2710   -7.3290 C.2     1  UNL1        0.0450
      3  C         18.3620  -22.8070   -6.3820 C.2     1  UNL1        0.0800
      4  C         18.6370  -21.6710   -5.6160 C.2     1  UNL1        0.0280
      5  C         19.8340  -20.9850   -5.8160 C.2     1  UNL1        0.0450
      6  C         20.7430  -21.4350   -6.7750 C.2     1  UNL1        0.1320
      7  F         21.8790  -20.7370   -6.9370 F       1  UNL1       -0.2050
      8  S         16.8490  -23.7020   -6.1220 S.O2    1  UNL1        0.2580
      9  O         17.0780  -25.0980   -6.4130 O.2     1  UNL1       -0.2010
     10  O         16.2960  -23.2650   -4.8580 O.2     1  UNL1       -0.2010
     11  N         15.8590  -23.0490   -7.3080 N.3     1  UNL1       -0.3150
     12  H         14.9570  -22.7500   -6.9390 H       1  UNL1        0.1720
     13  C         15.8900  -23.6310   -8.6580 C.3     1  UNL1        0.1370
     14  C         15.6440  -22.5280   -9.6890 C.3     1  UNL1        0.0580
     15  C         16.9150  -22.1220  -10.3890 C.2     1  UNL1       -0.0570
     16  C         17.0250  -20.8620  -10.9940 C.2     1  UNL1        0.0070
     17  C         18.1980  -20.4980  -11.6570 C.2     1  UNL1        0.0010
     18  C         19.2670  -21.3890  -11.7280 C.2     1  UNL1        0.0000
     19  C         19.1650  -22.6470  -11.1350 C.2     1  UNL1        0.0010
     20  C         17.9940  -23.0130  -10.4700 C.2     1  UNL1        0.0070
     21  C         21.4160  -23.0780   -8.5980 C.2     1  UNL1        0.2590
     22  O         21.5030  -24.2930   -8.7480 O.2     1  UNL1       -0.2670
     23  N         22.1010  -22.1250   -9.3290 N.am    1  UNL1       -0.3230
     24  H         21.9060  -21.1520   -9.1120 H       1  UNL1        0.1690
     25  C         23.0350  -22.3390  -10.3660 C.2     1  UNL1        0.0360
     26  C         22.7700  -22.1050  -11.7200 C.2     1  UNL1        0.0320
     27  C         23.7510  -22.3450  -12.6890 C.2     1  UNL1        0.0460
     28  C         25.0000  -22.8200  -12.3060 C.2     1  UNL1        0.1380
     29  F         25.9240  -23.0420  -13.2510 F       1  UNL1       -0.2040
     30  C         25.2770  -23.0590  -10.9640 C.2     1  UNL1        0.0740
     31 CL         26.8210  -23.6470  -10.4780 Cl      1  UNL1       -0.0810
     32  C         24.2980  -22.8210   -9.9950 C.2     1  UNL1        0.0560
@<TRIPOS>BOND
     1    29    28    1
     2    27    28    2
     3    27    26    1
     4    28    30    1
     5    18    17    2
     6    18    19    1
     7    26    25    2
     8    17    16    1
     9    19    20    2
    10    16    15    2
    11    30    31    1
    12    30    32    2
    13    20    15    1
    14    15    14    1
    15    25    32    1
    16    25    23    1
    17    14    13    1
    18    23    24    1
    19    23    21   am
    20    22    21    2
    21    13    11    1
    22    21     1    1
    23     1     2    2
    24     1     6    1
    25     2     3    1
    26    11    12    1
    27    11     8    1
    28     7     6    1
    29     6     5    2
    30     9     8    2
    31     3     8    1
    32     3     4    2
    33     8    10    2
    34     5     4    1
