@<TRIPOS>MOLECULE
19814_out_ligand_01.pdbqt
 31 34 0 0 0
SMALL
GASTEIGER

@<TRIPOS>ATOM
      1  C         19.0320  -24.4130   -7.8870 C.3     1  UNL1        0.0690
      2  C         19.4100  -23.5710   -9.0610 C.ar    1  UNL1        0.0210
      3  C         20.6680  -23.3080   -9.5640 C.ar    1  UNL1        0.0230
      4  C         21.9560  -23.7480   -9.1290 C.2     1  UNL1        0.1530
      5  N         23.0250  -23.3890   -9.7680 N.2     1  UNL1       -0.1760
      6  N         22.9510  -22.5580  -10.9090 N.am    1  UNL1       -0.1970
      7  C         21.7280  -22.0310  -11.4230 C.2     1  UNL1        0.2810
      8  O         21.6050  -21.2850  -12.3890 O.2     1  UNL1       -0.2650
      9  C         20.5510  -22.4640  -10.6740 C.ar    1  UNL1        0.0700
     10  C         19.2030  -22.1830  -10.8440 C.ar    1  UNL1        0.0250
     11  C         18.5360  -21.3160  -11.8610 C.3     1  UNL1        0.0690
     12  N         18.5070  -22.8820   -9.8610 N.ar    1  UNL1       -0.3390
     13  C         17.0370  -22.9130   -9.7500 C.3     1  UNL1        0.1780
     14  C         16.3950  -21.6280  -10.2660 C.3     1  UNL1        0.0430
     15  C         16.5560  -23.3070   -8.3460 C.2     1  UNL1        0.2450
     16  O         16.0820  -24.4170   -8.1220 O.2     1  UNL1       -0.2710
     17  N         16.7480  -22.3090   -7.4030 N.am    1  UNL1       -0.3240
     18  H         16.9960  -21.3850   -7.7470 H       1  UNL1        0.1690
     19  C         16.4960  -22.3570   -6.0130 C.2     1  UNL1        0.0520
     20  C         15.2850  -22.8000   -5.4720 C.2     1  UNL1        0.0310
     21  C         15.1000  -22.8410   -4.0850 C.2     1  UNL1        0.0020
     22  C         16.1230  -22.4460   -3.2220 C.2     1  UNL1        0.0020
     23  C         17.3380  -22.0110   -3.7450 C.2     1  UNL1        0.0210
     24  C         17.5240  -21.9690   -5.1300 C.2     1  UNL1        0.0370
     25 BR         19.1990  -21.3450   -5.7840 Br      1  UNL1       -0.0490
     26  C         24.2470  -22.3050  -11.4990 C.2     1  UNL1        0.0620
     27  C         25.1300  -21.3890  -10.8930 C.2     1  UNL1        0.0320
     28  C         26.3950  -21.1150  -11.4270 C.2     1  UNL1        0.0020
     29  C         26.8180  -21.7630  -12.5790 C.2     1  UNL1        0.0000
     30  C         25.9700  -22.6720  -13.1990 C.2     1  UNL1        0.0020
     31  C         24.6990  -22.9370  -12.6670 C.2     1  UNL1        0.0320
@<TRIPOS>BOND
     1    30    31    1
     2    30    29    2
     3    31    26    2
     4    29    28    1
     5     8     7    2
     6    11    10    1
     7    26     6    1
     8    26    27    1
     9    28    27    2
    10     7     6   am
    11     7     9    1
    12     6     5    1
    13    10     9   ar
    14    10    12   ar
    15     9     3   ar
    16    14    13    1
    17    12    13    1
    18    12     2   ar
    19     5     4    2
    20    13    15    1
    21     3     4    1
    22     3     2   ar
    23     2     1    1
    24    15    16    2
    25    15    17   am
    26    18    17    1
    27    17    19    1
    28    19    20    2
    29    19    24    1
    30    25    24    1
    31    20    21    1
    32    24    23    2
    33    21    22    2
    34    23    22    1
