@<TRIPOS>MOLECULE
19829_out_ligand_01.pdbqt
 34 37 0 0 0
SMALL
GASTEIGER

@<TRIPOS>ATOM
      1  C         19.0560  -21.9980  -10.1890 C.2     1  UNL1        0.2510
      2  O         19.0940  -22.0090   -8.9630 O.2     1  UNL1       -0.2680
      3  N         17.8790  -22.0010  -10.9080 N.am    1  UNL1       -0.3570
      4  H         17.9020  -21.7280  -11.8820 H       1  UNL1        0.1620
      5  C         20.3180  -21.9230  -10.9750 C.2     1  UNL1        0.0340
      6  C         20.3880  -21.2950  -12.2130 C.2     1  UNL1        0.0190
      7  C         21.6060  -21.2520  -12.8980 C.2     1  UNL1        0.0330
      8  C         22.7840  -21.8470  -12.3930 C.2     1  UNL1        0.0580
      9  N         23.9900  -21.7670  -13.1000 N.pl3   1  UNL1       -0.3650
     10  C         22.7030  -22.4700  -11.1240 C.2     1  UNL1        0.0640
     11  C         23.9530  -21.4330  -14.5350 C.3     1  UNL1        0.1240
     12  C         25.0810  -22.6620  -12.6710 C.3     1  UNL1        0.1770
     13  C         25.2770  -21.7180  -15.2410 C.3     1  UNL1        0.0200
     14  C         26.4520  -21.2990  -14.3750 C.3     1  UNL1        0.0040
     15  C         26.4380  -22.0250  -13.0310 C.3     1  UNL1        0.0350
     16  C         25.0920  -23.0320  -11.1840 C.2     1  UNL1        0.2470
     17  N         23.8720  -23.0230  -10.5190 N.am    1  UNL1       -0.3190
     18  O         26.1340  -23.4150  -10.6400 O.2     1  UNL1       -0.2710
     19  C         23.8280  -23.5140   -9.1500 C.3     1  UNL1        0.1590
     20  C         21.4690  -22.5110  -10.4430 C.2     1  UNL1        0.0490
     21  C         16.5920  -21.9150  -10.2390 C.3     1  UNL1        0.1270
     22  C         16.1180  -23.2610   -9.6760 C.3     1  UNL1        0.0580
     23  C         16.2070  -23.3230   -8.1670 C.2     1  UNL1       -0.0570
     24  C         16.9260  -24.3510   -7.5400 C.2     1  UNL1        0.0090
     25  C         16.9830  -24.4260   -6.1470 C.2     1  UNL1        0.0250
     26  C         16.3200  -23.4650   -5.3790 C.2     1  UNL1        0.0740
     27  C         15.5890  -22.4420   -5.9870 C.2     1  UNL1        0.0250
     28  C         15.5390  -22.3720   -7.3800 C.2     1  UNL1        0.0090
     29  S         16.3850  -23.5730   -3.6110 S.O2    1  UNL1        0.2390
     30  O         17.7590  -23.4240   -3.1950 O.2     1  UNL1       -0.2060
     31  O         15.5610  -24.6820   -3.1890 O.2     1  UNL1       -0.2060
     32  N         15.5480  -22.1840   -3.1580 N.3     1  UNL1       -0.2250
     33  H         15.2750  -21.6030   -3.9490 H       1  UNL1        0.1360
     34  H         14.7440  -22.4560   -2.5900 H       1  UNL1        0.1360
@<TRIPOS>BOND
     1    13    11    1
     2    13    14    1
     3    11     9    1
     4    14    15    1
     5     9    12    1
     6     9     8    1
     7    15    12    1
     8     7     8    2
     9     7     6    1
    10    12    16    1
    11     8    10    1
    12     6     5    2
    13     4     3    1
    14    16    18    2
    15    16    17   am
    16    10    17    1
    17    10    20    2
    18     5    20    1
    19     5     1    1
    20     3    21    1
    21     3     1   am
    22    17    19    1
    23    21    22    1
    24     1     2    2
    25    22    23    1
    26    23    24    2
    27    23    28    1
    28    24    25    1
    29    28    27    2
    30    25    26    2
    31    27    26    1
    32    26    29    1
    33    33    32    1
    34    29    30    2
    35    29    31    2
    36    29    32    1
    37    32    34    1
