@<TRIPOS>MOLECULE
19834_out_ligand_01.pdbqt
 29 32 0 0 0
SMALL
GASTEIGER

@<TRIPOS>ATOM
      1  N         24.2520  -21.4880  -13.1840 N.am    1  UNL1       -0.2440
      2  C         24.9470  -22.1090  -12.1620 C.2     1  UNL1        0.2660
      3  O         26.1330  -22.3190  -11.9810 O.2     1  UNL1       -0.2670
      4  C         23.9650  -22.5560  -11.1800 C.2     1  UNL1        0.0480
      5  C         24.1340  -23.2140   -9.9770 C.2     1  UNL1        0.0190
      6  C         22.9820  -23.5100   -9.2380 C.2     1  UNL1        0.0180
      7  C         21.6970  -23.1530   -9.7150 C.2     1  UNL1        0.0330
      8  C         21.5600  -22.4730  -10.9330 C.2     1  UNL1        0.0350
      9  C         22.7180  -22.1970  -11.6390 C.2     1  UNL1        0.0490
     10  C         22.8970  -21.5200  -12.9180 C.2     1  UNL1        0.2660
     11  O         21.9220  -21.1220  -13.5320 O.2     1  UNL1       -0.2670
     12  C         20.5150  -23.4870   -8.8670 C.2     1  UNL1        0.2560
     13  O         20.3290  -24.6650   -8.5890 O.2     1  UNL1       -0.2670
     14  N         19.7250  -22.4120   -8.5050 N.am    1  UNL1       -0.3230
     15  H         19.9410  -21.5130   -8.9150 H       1  UNL1        0.1690
     16  C         18.5800  -22.4350   -7.6790 C.2     1  UNL1        0.0350
     17  C         17.2800  -22.6430   -8.1480 C.2     1  UNL1        0.0310
     18  C         16.1970  -22.6550   -7.2620 C.2     1  UNL1        0.0210
     19  C         16.4120  -22.4610   -5.9000 C.2     1  UNL1        0.0110
     20 BR         14.9480  -22.4790   -4.7040 Br      1  UNL1       -0.0510
     21  C         17.7000  -22.2560   -5.4160 C.2     1  UNL1        0.0210
     22  C         18.7800  -22.2440   -6.3040 C.2     1  UNL1        0.0310
     23  C         24.8470  -20.9060  -14.3500 C.2     1  UNL1        0.0460
     24  C         24.8060  -21.5510  -15.5970 C.2     1  UNL1        0.0300
     25  C         25.3810  -20.9800  -16.7390 C.2     1  UNL1        0.0030
     26  C         26.0180  -19.7470  -16.6630 C.2     1  UNL1        0.0070
     27  C         26.0920  -19.0810  -15.4410 C.2     1  UNL1       -0.0600
     28  C         26.7450  -17.7330  -15.3460 C.3     1  UNL1        0.0480
     29  C         25.4970  -19.6590  -14.3030 C.2     1  UNL1        0.0370
@<TRIPOS>BOND
     1    25    26    2
     2    25    24    1
     3    26    27    1
     4    24    23    2
     5    27    28    1
     6    27    29    2
     7    23    29    1
     8    23     1    1
     9    11    10    2
    10     1    10   am
    11     1     2   am
    12    10     9    1
    13     2     3    2
    14     2     4    1
    15     9     4    2
    16     9     8    1
    17     4     5    1
    18     8     7    2
    19     5     6    2
    20     7     6    1
    21     7    12    1
    22    15    14    1
    23    12    13    2
    24    12    14   am
    25    14    16    1
    26    17    16    2
    27    17    18    1
    28    16    22    1
    29    18    19    2
    30    22    21    2
    31    19    21    1
    32    19    20    1
