@<TRIPOS>MOLECULE
19833_out_ligand_01.pdbqt
 33 36 0 0 0
SMALL
GASTEIGER

@<TRIPOS>ATOM
      1  C         23.0360  -23.0890  -10.9710 C.2     1  UNL1        0.0220
      2  C         22.0840  -22.4700  -11.7750 C.2     1  UNL1        0.0250
      3  C         20.7630  -22.3570  -11.3320 C.2     1  UNL1        0.0100
      4  C         20.3640  -22.8570  -10.0800 C.2     1  UNL1       -0.0400
      5  C         21.3470  -23.4830   -9.2910 C.2     1  UNL1        0.0100
      6  C         22.6690  -23.6070   -9.7320 C.2     1  UNL1        0.0250
      7  C         18.9120  -22.7870   -9.6000 C.3     1  UNL1        0.0680
      8  C         17.7800  -22.9180  -10.6170 C.3     1  UNL1        0.0260
      9  C         18.1110  -21.5680  -10.0680 C.3     1  UNL1        0.0260
     10  C         18.6360  -23.3190   -8.2070 C.2     1  UNL1        0.2310
     11  O         18.6560  -24.5240   -7.9760 O.2     1  UNL1       -0.2720
     12  N         18.3840  -22.3490   -7.2600 N.am    1  UNL1       -0.3550
     13  H         18.2570  -21.4020   -7.5900 H       1  UNL1        0.1620
     14  C         17.8460  -22.6880   -5.9440 C.3     1  UNL1        0.0840
     15  C         16.3250  -22.9580   -6.0640 C.3     1  UNL1        0.0250
     16  C         15.4200  -22.2420   -5.0640 C.3     1  UNL1        0.0020
     17  C         15.5760  -22.6830   -3.6110 C.3     1  UNL1        0.0000
     18  C         16.9920  -23.0120   -3.1530 C.3     1  UNL1        0.0000
     19  C         18.0390  -21.9480   -3.4700 C.3     1  UNL1        0.0020
     20  C         18.2300  -21.5870   -4.9470 C.3     1  UNL1        0.0250
     21  N         24.3780  -23.2500  -11.4450 N.pl3   1  UNL1       -0.1810
     22  H         24.4060  -23.3840  -12.4580 H       1  UNL1        0.1460
     23  S         25.4160  -21.9460  -11.0640 S.O2    1  UNL1        0.2460
     24  O         26.7060  -22.4380  -10.6330 O.2     1  UNL1       -0.2060
     25  O         24.6440  -21.0360  -10.2400 O.2     1  UNL1       -0.2060
     26  C         25.6110  -21.1980  -12.6780 C.2     1  UNL1        0.0800
     27  C         25.0970  -21.8970  -13.7830 C.2     1  UNL1        0.0260
     28  C         25.2200  -21.3670  -15.0680 C.2     1  UNL1        0.0080
     29  C         25.8310  -20.1240  -15.2620 C.2     1  UNL1       -0.0610
     30  C         25.9720  -19.5440  -16.6400 C.3     1  UNL1        0.0480
     31  C         26.3420  -19.4320  -14.1550 C.2     1  UNL1        0.0150
     32  C         26.2460  -19.9530  -12.8510 C.2     1  UNL1       -0.0390
     33  C         26.7970  -19.1360  -11.7140 C.3     1  UNL1        0.0500
@<TRIPOS>BOND
     1    30    29    1
     2    29    28    2
     3    29    31    1
     4    28    27    1
     5    31    32    2
     6    27    26    2
     7    32    26    1
     8    32    33    1
     9    26    23    1
    10    22    21    1
    11     2     3    1
    12     2     1    2
    13    21    23    1
    14    21     1    1
    15     3     4    2
    16    23    24    2
    17    23    25    2
    18     1     6    1
    19     8     9    1
    20     8     7    1
    21     4     7    1
    22     4     5    1
    23     9     7    1
    24     6     5    2
    25     7    10    1
    26    10    11    2
    27    10    12   am
    28    13    12    1
    29    12    14    1
    30    15    14    1
    31    15    16    1
    32    14    20    1
    33    16    17    1
    34    20    19    1
    35    17    18    1
    36    19    18    1
