@<TRIPOS>MOLECULE
19843_out_ligand_01.pdbqt
 30 33 0 0 0
SMALL
GASTEIGER

@<TRIPOS>ATOM
      1  C         18.3580  -22.4210   -9.9750 C.2     1  UNL1        0.0340
      2  C         18.1810  -21.4530  -10.9760 C.2     1  UNL1        0.0170
      3  C         19.2590  -21.0710  -11.7780 C.2     1  UNL1        0.0040
      4  C         20.5100  -21.6610  -11.5920 C.2     1  UNL1        0.0370
      5  C         20.6730  -22.6550  -10.6230 C.2     1  UNL1        0.0790
      6  C         19.6080  -23.0260   -9.8050 C.2     1  UNL1        0.0540
      7  O         21.8960  -23.2310  -10.3850 O.2     1  UNL1       -0.2920
      8  C         23.0140  -22.6060  -10.9340 C.2     1  UNL1        0.1730
      9  C         23.7800  -21.8750  -10.0590 C.2     1  UNL1        0.0770
     10  C         24.8820  -21.2700  -10.6090 C.2     1  UNL1        0.1230
     11  N         25.2130  -21.3720  -11.9090 N.2     1  UNL1       -0.2410
     12  C         24.4030  -22.1240  -12.6850 C.2     1  UNL1        0.1620
     13  N         23.3020  -22.7530  -12.2400 N.2     1  UNL1       -0.2040
     14  C         24.7390  -22.2570  -14.1180 C.2     1  UNL1        0.0120
     15  C         24.5510  -21.1900  -15.0210 C.2     1  UNL1        0.0180
     16  C         24.8640  -21.3160  -16.3780 C.2     1  UNL1        0.0430
     17  C         25.3750  -22.5160  -16.8530 C.2     1  UNL1        0.1160
     18  F         25.6740  -22.6390  -18.1530 F       1  UNL1       -0.2060
     19  C         25.5780  -23.5890  -15.9980 C.2     1  UNL1        0.0430
     20  C         25.2620  -23.4590  -14.6410 C.2     1  UNL1        0.0180
     21  C         17.2430  -22.8440   -9.0860 C.2     1  UNL1        0.2520
     22  O         16.2130  -23.3010   -9.5670 O.2     1  UNL1       -0.2680
     23  N         17.4690  -22.7300   -7.7280 N.am    1  UNL1       -0.3520
     24  H         18.4230  -22.6010   -7.4170 H       1  UNL1        0.1630
     25  C         16.5180  -23.2600   -6.7600 C.3     1  UNL1        0.0840
     26  C         15.4720  -22.2040   -6.4010 C.3     1  UNL1        0.0250
     27  C         14.4000  -22.7590   -5.4600 C.3     1  UNL1        0.0020
     28  C         14.9100  -23.8680   -4.5380 C.3     1  UNL1        0.0000
     29  C         16.3920  -23.7120   -4.2350 C.3     1  UNL1        0.0020
     30  C         17.2430  -23.7790   -5.5050 C.3     1  UNL1        0.0250
@<TRIPOS>BOND
     1    18    17    1
     2    17    16    2
     3    17    19    1
     4    16    15    1
     5    19    20    2
     6    15    14    2
     7    20    14    1
     8    14    12    1
     9    12    13    1
    10    12    11    2
    11    13     8    2
    12    11    10    1
    13     3     4    2
    14     3     2    1
    15     4     5    1
    16     2     1    2
    17     8     7    1
    18     8     9    1
    19     5     7    1
    20     5     6    2
    21    10     9    2
    22     1     6    1
    23     1    21    1
    24    22    21    2
    25    21    23   am
    26    23    24    1
    27    23    25    1
    28    25    26    1
    29    25    30    1
    30    26    27    1
    31    30    29    1
    32    27    28    1
    33    28    29    1
