@<TRIPOS>MOLECULE
19840_out_ligand_01.pdbqt
 36 40 0 0 0
SMALL
GASTEIGER

@<TRIPOS>ATOM
      1  C         22.8110  -21.8970  -12.8910 C.2     1  UNL1        0.0320
      2  C         21.5040  -21.4100  -12.7790 C.2     1  UNL1        0.0180
      3  C         20.7320  -21.7060  -11.6490 C.2     1  UNL1        0.0150
      4  C         21.2520  -22.4980  -10.6170 C.2     1  UNL1       -0.0080
      5  C         22.5550  -23.0020  -10.7490 C.2     1  UNL1        0.0150
      6  C         23.3300  -22.7090  -11.8780 C.2     1  UNL1        0.0180
      7  C         20.4630  -22.8040   -9.4250 C.2     1  UNL1        0.0620
      8  C         20.0410  -22.0150   -8.3710 C.2     1  UNL1        0.0660
      9  C         19.2820  -22.8550   -7.5100 C.2     1  UNL1        0.0890
     10  N         19.2380  -24.1000   -8.0080 N.2     1  UNL1       -0.1740
     11  N         19.9420  -24.0390   -9.1460 N.pl3   1  UNL1       -0.2770
     12  H         20.0170  -24.8810   -9.7040 H       1  UNL1        0.1890
     13  C         18.6080  -22.5070   -6.2530 C.2     1  UNL1       -0.0050
     14  C         19.1330  -21.5360   -5.3890 C.2     1  UNL1        0.0140
     15  C         18.4830  -21.2130   -4.1950 C.2     1  UNL1        0.0020
     16  C         17.2970  -21.8550   -3.8470 C.2     1  UNL1        0.0160
     17  C         16.7400  -22.8220   -4.6960 C.2     1  UNL1        0.0480
     18  C         17.4090  -23.1440   -5.8890 C.2     1  UNL1        0.0300
     19  C         15.4640  -23.5310   -4.3210 C.3     1  UNL1        0.4170
     20  F         15.6030  -24.2970   -3.2050 F       1  UNL1       -0.1660
     21  F         14.4370  -22.6730   -4.0550 F       1  UNL1       -0.1660
     22  F         15.0030  -24.3640   -5.2940 F       1  UNL1       -0.1660
     23  C         23.5960  -21.5450  -14.1080 C.2     1  UNL1        0.2520
     24  O         23.1590  -20.6970  -14.8730 O.2     1  UNL1       -0.2680
     25  N         24.7980  -22.1990  -14.2530 N.am    1  UNL1       -0.3480
     26  H         25.1430  -22.7140  -13.4580 H       1  UNL1        0.1630
     27  C         25.8000  -21.8770  -15.2680 C.3     1  UNL1        0.1180
     28  C         25.4540  -22.4120  -16.6700 C.3     1  UNL1        0.0300
     29  C         24.9700  -21.3420  -17.6440 C.3     1  UNL1        0.0070
     30  C         25.9600  -20.1900  -17.7250 C.3     1  UNL1        0.0390
     31  C         26.3070  -19.6300  -16.3710 C.2     1  UNL1       -0.0500
     32  C         26.7560  -18.3050  -16.2820 C.2     1  UNL1        0.0070
     33  C         26.2420  -20.4250  -15.2110 C.2     1  UNL1       -0.0290
     34  C         27.1190  -17.7560  -15.0520 C.2     1  UNL1        0.0010
     35  C         27.0560  -18.5340  -13.9020 C.2     1  UNL1        0.0010
     36  C         26.6290  -19.8590  -13.9800 C.2     1  UNL1        0.0100
@<TRIPOS>BOND
     1    30    29    1
     2    30    31    1
     3    29    28    1
     4    28    27    1
     5    31    32    2
     6    31    33    1
     7    32    34    1
     8    27    33    1
     9    27    25    1
    10    33    36    2
    11    34    35    2
    12    24    23    2
    13    25    23   am
    14    25    26    1
    15    23     1    1
    16    36    35    1
    17     1     2    2
    18     1     6    1
    19     2     3    1
    20     6     5    2
    21     3     4    2
    22     5     4    1
    23     4     7    1
    24    12    11    1
    25     7    11    1
    26     7     8    2
    27    11    10    1
    28     8     9    1
    29    10     9    2
    30     9    13    1
    31    13    18    2
    32    13    14    1
    33    18    17    1
    34    14    15    2
    35    22    19    1
    36    17    19    1
    37    17    16    2
    38    19    21    1
    39    19    20    1
    40    15    16    1
