@<TRIPOS>MOLECULE
19868_out_ligand_01.pdbqt
 36 39 0 0 0
SMALL
GASTEIGER

@<TRIPOS>ATOM
      1  C         22.1160  -23.1390  -10.0560 C.2     1  UNL1        0.0340
      2  C         23.1320  -23.7180   -9.2920 C.2     1  UNL1        0.0170
      3  C         24.4600  -23.3470   -9.5120 C.2     1  UNL1        0.0100
      4  C         24.7930  -22.4040  -10.5000 C.2     1  UNL1       -0.0350
      5  C         26.2430  -22.0540  -10.6920 C.3     1  UNL1        0.0500
      6  C         23.7650  -21.8400  -11.2680 C.2     1  UNL1        0.0490
      7  C         22.4320  -22.1830  -11.0240 C.2     1  UNL1        0.0470
      8  C         20.6910  -23.5230   -9.8890 C.2     1  UNL1        0.2520
      9  N         19.7740  -22.5070  -10.0550 N.am    1  UNL1       -0.3480
     10  H         20.1150  -21.5580  -10.0220 H       1  UNL1        0.1630
     11  O         20.3970  -24.6690   -9.5700 O.2     1  UNL1       -0.2680
     12  C         18.3600  -22.7100   -9.7560 C.3     1  UNL1        0.1170
     13  C         17.4690  -21.8020  -10.6270 C.3     1  UNL1        0.0250
     14  C         18.2690  -20.9080  -11.5650 C.3     1  UNL1        0.0070
     15  C         18.1340  -22.5030   -8.2660 C.2     1  UNL1       -0.0350
     16  C         19.1760  -22.1190   -7.4110 C.2     1  UNL1        0.0100
     17  C         18.9500  -21.9500   -6.0450 C.2     1  UNL1        0.0080
     18  C         17.6760  -22.1650   -5.4990 C.2     1  UNL1       -0.0520
     19  C         16.6160  -22.5310   -6.3460 C.2     1  UNL1       -0.0510
     20  C         17.4640  -21.9340   -4.0230 C.3     1  UNL1        0.0390
     21  C         16.8580  -22.7110   -7.7170 C.2     1  UNL1        0.0170
     22  C         15.2280  -22.7890   -5.8070 C.3     1  UNL1        0.0390
     23  C         15.0030  -22.2030   -4.4150 C.3     1  UNL1        0.0050
     24  C         16.1690  -22.5490   -3.4970 C.3     1  UNL1        0.0050
     25  N         24.0350  -20.9910  -12.3850 N.pl3   1  UNL1       -0.2800
     26  H         23.6020  -20.0690  -12.3740 H       1  UNL1        0.1790
     27  S         23.9530  -21.6610  -13.9450 S.O2    1  UNL1        0.2630
     28  O         22.5910  -21.5940  -14.4280 O.2     1  UNL1       -0.2000
     29  O         24.6590  -22.9230  -13.8740 O.2     1  UNL1       -0.2000
     30  C         24.9330  -20.5540  -14.9350 C.2     1  UNL1        0.0790
     31  C         25.6170  -19.4990  -14.3240 C.2     1  UNL1        0.0260
     32  C         26.3340  -18.6000  -15.1160 C.2     1  UNL1        0.0080
     33  C         26.3950  -18.7660  -16.5070 C.2     1  UNL1       -0.0620
     34  C         27.1210  -17.7670  -17.3590 C.3     1  UNL1        0.0480
     35  C         25.7210  -19.8410  -17.1020 C.2     1  UNL1        0.0080
     36  C         25.0010  -20.7440  -16.3180 C.2     1  UNL1        0.0260
@<TRIPOS>BOND
     1    34    33    1
     2    35    33    2
     3    35    36    1
     4    33    32    1
     5    36    30    2
     6    32    31    2
     7    30    31    1
     8    30    27    1
     9    28    27    2
    10    27    29    2
    11    27    25    1
    12    25    26    1
    13    25     6    1
    14    14    13    1
    15     6     7    1
    16     6     4    2
    17     7     1    2
    18     5     4    1
    19    13    12    1
    20     4     3    1
    21     1     8    1
    22     1     2    1
    23     9    10    1
    24     9     8   am
    25     9    12    1
    26     8    11    2
    27    12    15    1
    28     3     2    2
    29    15    21    2
    30    15    16    1
    31    21    19    1
    32    16    17    2
    33    19    22    1
    34    19    18    2
    35    17    18    1
    36    22    23    1
    37    18    20    1
    38    23    24    1
    39    20    24    1
