@<TRIPOS>MOLECULE
19867_out_ligand_01.pdbqt
 34 38 0 0 0
SMALL
GASTEIGER

@<TRIPOS>ATOM
      1  C         22.6110  -22.5480  -10.1260 C.2     1  UNL1        0.0320
      2  C         21.5590  -21.7590  -10.6100 C.2     1  UNL1        0.0170
      3  C         20.2330  -22.1150  -10.3470 C.2     1  UNL1        0.0100
      4  C         19.9380  -23.2600   -9.5920 C.2     1  UNL1       -0.0300
      5  C         20.9970  -24.0300   -9.0870 C.2     1  UNL1        0.0100
      6  C         22.3260  -23.6730   -9.3450 C.2     1  UNL1        0.0170
      7  C         24.0050  -22.1520  -10.4710 C.2     1  UNL1        0.2520
      8  N         24.7640  -23.0950  -11.1220 N.am    1  UNL1       -0.3480
      9  H         24.3330  -23.9590  -11.4370 H       1  UNL1        0.1630
     10  O         24.4070  -21.0220  -10.2190 O.2     1  UNL1       -0.2680
     11  C         26.1270  -22.8390  -11.5700 C.3     1  UNL1        0.1170
     12  C         27.0220  -24.0620  -11.2770 C.3     1  UNL1        0.0250
     13  C         27.0020  -24.5120   -9.8290 C.3     1  UNL1        0.0070
     14  C         26.0730  -22.4200  -13.0310 C.2     1  UNL1       -0.0350
     15  C         26.7730  -21.3040  -13.5050 C.2     1  UNL1        0.0100
     16  C         26.7420  -20.9720  -14.8610 C.2     1  UNL1        0.0080
     17  C         26.0360  -21.7620  -15.7790 C.2     1  UNL1       -0.0520
     18  C         25.3150  -22.8780  -15.3200 C.2     1  UNL1       -0.0510
     19  C         26.0380  -21.3710  -17.2350 C.3     1  UNL1        0.0390
     20  C         25.3500  -23.2020  -13.9510 C.2     1  UNL1        0.0170
     21  C         24.5680  -23.7830  -16.2700 C.3     1  UNL1        0.0390
     22  C         24.3730  -23.1830  -17.6630 C.3     1  UNL1        0.0050
     23  C         25.6560  -22.5240  -18.1530 C.3     1  UNL1        0.0050
     24  C         18.5010  -23.6640   -9.3450 C.3     1  UNL1        0.3110
     25  N         18.1100  -23.7120   -7.9200 N.3     1  UNL1        0.0970
     26  C         16.6730  -24.0320   -7.8260 C.3     1  UNL1        0.2770
     27  C         16.1320  -24.1200   -6.3860 C.3     1  UNL1        0.0690
     28  C         16.8120  -23.1970   -5.4100 C.2     1  UNL1       -0.0490
     29  C         16.3760  -23.1460   -4.0770 C.2     1  UNL1        0.0070
     30  C         17.8980  -22.4050   -5.8170 C.2     1  UNL1       -0.0240
     31  C         17.0150  -22.3170   -3.1530 C.2     1  UNL1        0.0010
     32  C         18.0910  -21.5280   -3.5560 C.2     1  UNL1        0.0010
     33  C         18.5250  -21.5650   -4.8820 C.2     1  UNL1        0.0090
     34  C         18.3540  -22.4100   -7.2590 C.3     1  UNL1        0.3110
@<TRIPOS>BOND
     1    23    22    1
     2    23    19    1
     3    22    21    1
     4    19    17    1
     5    21    18    1
     6    17    18    2
     7    17    16    1
     8    18    20    1
     9    16    15    2
    10    20    14    2
    11    15    14    1
    12    14    11    1
    13    11    12    1
    14    11     8    1
    15     9     8    1
    16    12    13    1
    17     8     7   am
    18     2     3    1
    19     2     1    2
    20     7    10    2
    21     7     1    1
    22     3     4    2
    23     1     6    1
    24     4    24    1
    25     4     5    1
    26     6     5    2
    27    24    25    1
    28    25    26    1
    29    25    34    1
    30    26    27    1
    31    34    30    1
    32    27    28    1
    33    30    28    2
    34    30    33    1
    35    28    29    1
    36    33    32    2
    37    29    31    2
    38    32    31    1
