@<TRIPOS>MOLECULE
19869_out_ligand_01.pdbqt
 36 39 0 0 0
SMALL
GASTEIGER

@<TRIPOS>ATOM
      1  C         21.4880  -23.1550   -9.9780 C.2     1  UNL1        0.0390
      2  C         22.2610  -23.6480   -8.9180 C.2     1  UNL1        0.0170
      3  C         23.6250  -23.3870   -8.8810 C.2     1  UNL1        0.0030
      4  C         24.2080  -22.6420   -9.9040 C.2     1  UNL1        0.0250
      5  C         23.4350  -22.1460  -10.9640 C.2     1  UNL1        0.0290
      6  C         22.0530  -22.3980  -11.0280 C.2     1  UNL1       -0.0240
      7  C         21.1980  -21.9780  -12.1930 C.3     1  UNL1        0.0510
      8  C         20.0460  -23.4770   -9.9340 C.2     1  UNL1        0.2520
      9  N         19.2240  -22.3740   -9.8940 N.am    1  UNL1       -0.3480
     10  H         19.6550  -21.4730   -9.7320 H       1  UNL1        0.1630
     11  O         19.6780  -24.6420   -9.8900 O.2     1  UNL1       -0.2680
     12  C         17.8090  -22.4970   -9.5710 C.3     1  UNL1        0.1170
     13  C         17.0080  -21.4370  -10.3500 C.3     1  UNL1        0.0250
     14  C         17.6600  -21.0480  -11.6700 C.3     1  UNL1        0.0070
     15  C         17.6550  -22.4480   -8.0590 C.2     1  UNL1       -0.0350
     16  C         18.7800  -22.1540   -7.2680 C.2     1  UNL1        0.0100
     17  C         18.6800  -22.0630   -5.8790 C.2     1  UNL1        0.0080
     18  C         17.4500  -22.2670   -5.2550 C.2     1  UNL1       -0.0520
     19  C         16.3120  -22.5440   -6.0280 C.2     1  UNL1       -0.0510
     20  C         17.2840  -22.1490   -3.7630 C.3     1  UNL1        0.0390
     21  C         16.4140  -22.6170   -7.4220 C.2     1  UNL1        0.0170
     22  C         14.9920  -22.6930   -5.3190 C.3     1  UNL1        0.0390
     23  C         15.1270  -23.5380   -4.0500 C.3     1  UNL1        0.0050
     24  C         16.4000  -23.2780   -3.2300 C.3     1  UNL1        0.0050
     25  N         24.1480  -21.4430  -11.9940 N.pl3   1  UNL1       -0.1810
     26  H         23.5240  -21.0700  -12.7080 H       1  UNL1        0.1460
     27  S         25.3330  -22.3710  -12.8010 S.O2    1  UNL1        0.2450
     28  O         24.7510  -23.6810  -13.0060 O.2     1  UNL1       -0.2060
     29  O         26.6290  -22.1920  -12.1850 O.2     1  UNL1       -0.2060
     30  C         25.3700  -21.5350  -14.3680 C.2     1  UNL1        0.0740
     31  C         24.8530  -22.1560  -15.5070 C.2     1  UNL1        0.0250
     32  C         24.8990  -21.4880  -16.7320 C.2     1  UNL1        0.0080
     33  C         25.4540  -20.2030  -16.8230 C.2     1  UNL1       -0.0620
     34  C         25.5310  -19.5060  -18.1500 C.3     1  UNL1        0.0480
     35  C         25.9930  -19.6050  -15.6760 C.2     1  UNL1        0.0080
     36  C         25.9510  -20.2670  -14.4470 C.2     1  UNL1        0.0250
@<TRIPOS>BOND
     1    34    33    1
     2    33    32    2
     3    33    35    1
     4    32    31    1
     5    35    36    2
     6    31    30    2
     7    36    30    1
     8    30    27    1
     9    28    27    2
    10    27    29    2
    11    27    25    1
    12    26    25    1
    13     7     6    1
    14    25     5    1
    15    14    13    1
    16     6     5    1
    17     6     1    2
    18     5     4    2
    19    13    12    1
    20     1     8    1
    21     1     2    1
    22     8     9   am
    23     8    11    2
    24     4     3    1
    25     9    10    1
    26     9    12    1
    27    12    15    1
    28     2     3    2
    29    15    21    2
    30    15    16    1
    31    21    19    1
    32    16    17    2
    33    19    22    1
    34    19    18    2
    35    17    18    1
    36    22    23    1
    37    18    20    1
    38    23    24    1
    39    20    24    1
