@<TRIPOS>MOLECULE
19875_out_ligand_01.pdbqt
 37 40 0 0 0
SMALL
GASTEIGER

@<TRIPOS>ATOM
      1  C         22.6410  -22.4550  -10.7300 C.2     1  UNL1        0.0330
      2  C         23.3190  -22.6500   -9.5270 C.2     1  UNL1        0.0170
      3  C         24.6360  -23.1130   -9.5320 C.2     1  UNL1        0.0090
      4  C         25.3180  -23.3720  -10.7360 C.2     1  UNL1       -0.0390
      5  C         26.7130  -23.9190  -10.6460 C.3     1  UNL1        0.0500
      6  C         24.6410  -23.1260  -11.9470 C.2     1  UNL1        0.0860
      7  C         23.3040  -22.6850  -11.9390 C.2     1  UNL1        0.0420
      8  C         21.2320  -21.9790  -10.6850 C.2     1  UNL1        0.2520
      9  N         20.4000  -22.6360   -9.8040 N.am    1  UNL1       -0.3480
     10  H         20.8160  -23.2140   -9.0860 H       1  UNL1        0.1630
     11  O         20.8810  -21.0430  -11.3940 O.2     1  UNL1       -0.2680
     12  C         19.0530  -22.1530   -9.5220 C.3     1  UNL1        0.1170
     13  C         18.0720  -22.6300  -10.6090 C.3     1  UNL1        0.0250
     14  C         17.4370  -21.4680  -11.3640 C.3     1  UNL1        0.0070
     15  C         18.6740  -22.5850   -8.1120 C.2     1  UNL1       -0.0350
     16  C         18.1300  -23.8630   -7.9170 C.2     1  UNL1        0.0100
     17  C         17.7320  -24.2860   -6.6480 C.2     1  UNL1        0.0080
     18  C         17.8520  -23.4350   -5.5420 C.2     1  UNL1       -0.0520
     19  C         18.4040  -22.1550   -5.7160 C.2     1  UNL1       -0.0510
     20  C         17.4370  -23.9370   -4.1800 C.3     1  UNL1        0.0390
     21  C         18.7900  -21.7350   -7.0010 C.2     1  UNL1        0.0170
     22  C         18.5330  -21.1880   -4.5620 C.3     1  UNL1        0.0390
     23  C         18.4410  -21.8640   -3.1960 C.3     1  UNL1        0.0050
     24  C         17.2560  -22.8200   -3.1550 C.3     1  UNL1        0.0050
     25  S         25.3600  -23.3910  -13.5660 S.O2    1  UNL1        0.2630
     26  O         24.4730  -22.7500  -14.5190 O.2     1  UNL1       -0.2000
     27  O         25.7200  -24.7810  -13.7280 O.2     1  UNL1       -0.2000
     28  N         26.7500  -22.4410  -13.5330 N.pl3   1  UNL1       -0.2800
     29  H         27.6100  -22.9780  -13.5770 H       1  UNL1        0.1790
     30  C         26.7410  -21.1140  -14.0450 C.2     1  UNL1        0.0480
     31  C         26.8070  -20.9210  -15.4280 C.2     1  UNL1        0.0310
     32  C         26.8230  -19.6350  -15.9660 C.2     1  UNL1        0.0090
     33  C         26.7640  -18.5210  -15.1280 C.2     1  UNL1       -0.0610
     34  C         26.8250  -17.1350  -15.6980 C.3     1  UNL1        0.0480
     35  C         26.6980  -18.7160  -13.7420 C.2     1  UNL1        0.0150
     36  C         26.6610  -20.0070  -13.1850 C.2     1  UNL1       -0.0340
     37  C         26.5990  -20.1350  -11.6890 C.3     1  UNL1        0.0500
@<TRIPOS>BOND
     1    32    31    1
     2    32    33    2
     3    34    33    1
     4    31    30    2
     5    33    35    1
     6    26    25    2
     7    30    28    1
     8    30    36    1
     9    35    36    2
    10    27    25    2
    11    29    28    1
    12    25    28    1
    13    25     6    1
    14    36    37    1
    15     6     7    1
    16     6     4    2
    17     7     1    2
    18    11     8    2
    19    14    13    1
    20     4     5    1
    21     4     3    1
    22     1     8    1
    23     1     2    1
    24     8     9   am
    25    13    12    1
    26     9    12    1
    27     9    10    1
    28     3     2    2
    29    12    15    1
    30    15    16    2
    31    15    21    1
    32    16    17    1
    33    21    19    2
    34    17    18    2
    35    19    18    1
    36    19    22    1
    37    18    20    1
    38    22    23    1
    39    20    24    1
    40    23    24    1
