@<TRIPOS>MOLECULE
19872_out_ligand_01.pdbqt
 37 40 0 0 0
SMALL
GASTEIGER

@<TRIPOS>ATOM
      1  C         20.8870  -22.5080  -10.6150 C.2     1  UNL1        0.0330
      2  C         20.5870  -21.5030  -11.5400 C.2     1  UNL1        0.0190
      3  C         19.2830  -21.0110  -11.6460 C.2     1  UNL1        0.0260
      4  C         18.2600  -21.5230  -10.8380 C.2     1  UNL1        0.0570
      5 CL         16.6840  -20.8620  -11.0740 Cl      1  UNL1       -0.0830
      6  C         18.5560  -22.5390   -9.9260 C.2     1  UNL1        0.1020
      7  C         19.8680  -23.0340   -9.8140 C.2     1  UNL1        0.0440
      8  C         22.2840  -23.0110  -10.5370 C.2     1  UNL1        0.2520
      9  N         23.1300  -22.6030  -11.5450 N.am    1  UNL1       -0.3480
     10  H         22.7200  -22.2240  -12.3900 H       1  UNL1        0.1630
     11  O         22.6080  -23.7550   -9.6200 O.2     1  UNL1       -0.2680
     12  C         24.4620  -23.1750  -11.6920 C.3     1  UNL1        0.1170
     13  C         25.4550  -22.4790  -10.7400 C.3     1  UNL1        0.0250
     14  C         26.7940  -23.2050  -10.6680 C.3     1  UNL1        0.0070
     15  C         24.8720  -23.1060  -13.1570 C.2     1  UNL1       -0.0350
     16  C         25.2170  -24.2450  -13.9020 C.2     1  UNL1        0.0100
     17  C         25.6180  -24.1360  -15.2370 C.2     1  UNL1        0.0080
     18  C         25.6810  -22.8840  -15.8500 C.2     1  UNL1       -0.0520
     19  C         25.3600  -21.7340  -15.1150 C.2     1  UNL1       -0.0510
     20  C         26.1470  -22.7140  -17.2710 C.3     1  UNL1        0.0390
     21  C         24.9700  -21.8480  -13.7770 C.2     1  UNL1        0.0170
     22  C         25.4940  -20.3950  -15.7890 C.3     1  UNL1        0.0390
     23  C         24.9160  -20.4370  -17.2050 C.3     1  UNL1        0.0050
     24  C         25.2900  -21.6870  -18.0170 C.3     1  UNL1        0.0050
     25  S         17.3170  -23.2320   -8.8670 S.O2    1  UNL1        0.2650
     26  O         16.2090  -23.6570   -9.6980 O.2     1  UNL1       -0.2000
     27  O         17.9720  -24.1830   -7.9970 O.2     1  UNL1       -0.2000
     28  N         16.8270  -21.9330   -7.9140 N.pl3   1  UNL1       -0.2800
     29  H         17.2430  -21.0540   -8.2150 H       1  UNL1        0.1790
     30  C         16.6170  -22.1380   -6.5210 C.2     1  UNL1        0.0490
     31  C         15.3710  -22.6200   -6.1130 C.2     1  UNL1        0.0310
     32  C         15.1250  -22.8640   -4.7670 C.2     1  UNL1        0.0030
     33  C         16.1270  -22.6340   -3.8270 C.2     1  UNL1        0.0070
     34  C         17.3910  -22.1600   -4.2180 C.2     1  UNL1       -0.0540
     35  C         18.4370  -21.9450   -3.1540 C.3     1  UNL1        0.0490
     36  C         17.6440  -21.8970   -5.5850 C.2     1  UNL1       -0.0290
     37  C         18.9930  -21.4170   -6.0540 C.3     1  UNL1        0.0510
@<TRIPOS>BOND
     1    24    20    1
     2    24    23    1
     3    20    18    1
     4    23    22    1
     5    18    17    2
     6    18    19    1
     7    22    19    1
     8    17    16    1
     9    19    21    2
    10    16    15    2
    11    21    15    1
    12    15    12    1
    13    10     9    1
    14    12     9    1
    15    12    13    1
    16     3     2    1
    17     3     4    2
    18     9     8   am
    19     2     1    2
    20     5     4    1
    21     4     6    1
    22    13    14    1
    23     1     8    1
    24     1     7    1
    25     8    11    2
    26     6     7    2
    27     6    25    1
    28    26    25    2
    29    25    27    2
    30    25    28    1
    31    29    28    1
    32    28    30    1
    33    30    31    2
    34    30    36    1
    35    31    32    1
    36    37    36    1
    37    36    34    2
    38    32    33    2
    39    34    33    1
    40    34    35    1
