@<TRIPOS>MOLECULE
19877_out_ligand_01.pdbqt
 36 39 0 0 0
SMALL
GASTEIGER

@<TRIPOS>ATOM
      1  C         21.0920  -22.1330  -11.2140 C.2     1  UNL1        0.0330
      2  C         20.6080  -21.1490  -12.0800 C.2     1  UNL1        0.0170
      3  C         19.2640  -20.7700  -12.0220 C.2     1  UNL1        0.0090
      4  C         18.3760  -21.3710  -11.1100 C.2     1  UNL1       -0.0390
      5  C         16.9500  -20.8950  -11.1000 C.3     1  UNL1        0.0500
      6  C         18.8780  -22.3650  -10.2440 C.2     1  UNL1        0.0860
      7  C         20.2300  -22.7430  -10.3000 C.2     1  UNL1        0.0420
      8  C         22.5120  -22.5640  -11.2560 C.2     1  UNL1        0.2520
      9  N         23.1990  -22.2340  -12.4060 N.am    1  UNL1       -0.3480
     10  H         22.7990  -21.5170  -12.9940 H       1  UNL1        0.1630
     11  O         23.0020  -23.1520  -10.3010 O.2     1  UNL1       -0.2680
     12  C         24.6430  -22.4030  -12.4940 C.3     1  UNL1        0.1170
     13  C         24.9920  -23.8460  -12.9080 C.3     1  UNL1        0.0250
     14  C         26.4910  -24.1130  -12.8690 C.3     1  UNL1        0.0070
     15  C         25.2100  -21.3480  -13.4330 C.2     1  UNL1       -0.0350
     16  C         25.9050  -20.2570  -12.8900 C.2     1  UNL1        0.0100
     17  C         26.4220  -19.2550  -13.7120 C.2     1  UNL1        0.0080
     18  C         26.2520  -19.3130  -15.1010 C.2     1  UNL1       -0.0520
     19  C         25.5260  -20.3790  -15.6600 C.2     1  UNL1       -0.0510
     20  C         26.7920  -18.1900  -15.9510 C.3     1  UNL1        0.0390
     21  C         25.0210  -21.3890  -14.8230 C.2     1  UNL1        0.0170
     22  C         25.3270  -20.4950  -17.1520 C.3     1  UNL1        0.0390
     23  C         25.5610  -19.1810  -17.8950 C.3     1  UNL1        0.0050
     24  C         26.8620  -18.5360  -17.4370 C.3     1  UNL1        0.0050
     25  S         17.8610  -23.1630   -9.0030 S.O2    1  UNL1        0.2630
     26  O         16.6890  -23.7020   -9.6600 O.2     1  UNL1       -0.2000
     27  O         18.7070  -24.0280   -8.2090 O.2     1  UNL1       -0.2000
     28  N         17.4090  -21.8880   -7.9970 N.pl3   1  UNL1       -0.2800
     29  H         16.9920  -21.1110   -8.5050 H       1  UNL1        0.1790
     30  C         16.9880  -22.1370   -6.6580 C.2     1  UNL1        0.0480
     31  C         15.7100  -22.6500   -6.4190 C.2     1  UNL1        0.0300
     32  C         15.2630  -22.8660   -5.1150 C.2     1  UNL1        0.0020
     33  C         16.0970  -22.5750   -4.0420 C.2     1  UNL1        0.0010
     34  C         17.3820  -22.0820   -4.2710 C.2     1  UNL1        0.0090
     35  C         17.8480  -21.8650   -5.5790 C.2     1  UNL1       -0.0350
     36  C         19.2350  -21.3220   -5.7710 C.3     1  UNL1        0.0500
@<TRIPOS>BOND
     1    23    24    1
     2    23    22    1
     3    24    20    1
     4    22    19    1
     5    20    18    1
     6    19    18    2
     7    19    21    1
     8    18    17    1
     9    21    15    2
    10    17    16    2
    11    15    16    1
    12    15    12    1
    13    10     9    1
    14    13    14    1
    15    13    12    1
    16    12     9    1
    17     9     8   am
    18     2     3    1
    19     2     1    2
    20     3     4    2
    21     8     1    1
    22     8    11    2
    23     1     7    1
    24     4     5    1
    25     4     6    1
    26     7     6    2
    27     6    25    1
    28    26    25    2
    29    25    27    2
    30    25    28    1
    31    29    28    1
    32    28    30    1
    33    30    31    2
    34    30    35    1
    35    31    32    1
    36    36    35    1
    37    35    34    2
    38    32    33    2
    39    34    33    1
