@<TRIPOS>MOLECULE
19873_out_ligand_01.pdbqt
 37 40 0 0 0
SMALL
GASTEIGER

@<TRIPOS>ATOM
      1  C         21.1990  -21.9450  -11.2350 C.2     1  UNL1        0.0330
      2  C         20.5590  -21.0840  -12.1290 C.2     1  UNL1        0.0190
      3  C         19.1930  -20.8200  -11.9800 C.2     1  UNL1        0.0260
      4  C         18.4460  -21.4130  -10.9510 C.2     1  UNL1        0.0570
      5 CL         16.7820  -20.9700  -10.8940 Cl      1  UNL1       -0.0830
      6  C         19.0810  -22.2810  -10.0620 C.2     1  UNL1        0.1020
      7  C         20.4550  -22.5540  -10.2160 C.2     1  UNL1        0.0440
      8  C         22.6480  -22.2760  -11.3460 C.2     1  UNL1        0.2520
      9  N         23.2460  -22.0260  -12.5600 N.am    1  UNL1       -0.3480
     10  H         22.7560  -21.4970  -13.2650 H       1  UNL1        0.1630
     11  O         23.2420  -22.7200  -10.3710 O.2     1  UNL1       -0.2680
     12  C         24.6730  -22.2280  -12.7740 C.3     1  UNL1        0.1170
     13  C         25.0020  -23.7180  -12.9870 C.3     1  UNL1        0.0250
     14  C         26.4900  -24.0310  -12.8590 C.3     1  UNL1        0.0070
     15  C         25.1110  -21.3400  -13.9310 C.2     1  UNL1       -0.0350
     16  C         24.8040  -21.7350  -15.2450 C.2     1  UNL1        0.0100
     17  C         25.2260  -20.9770  -16.3390 C.2     1  UNL1        0.0080
     18  C         25.9580  -19.8070  -16.1390 C.2     1  UNL1       -0.0520
     19  C         26.2850  -19.4060  -14.8340 C.2     1  UNL1       -0.0510
     20  C         26.4790  -18.9900  -17.2880 C.3     1  UNL1        0.0390
     21  C         25.8740  -20.1770  -13.7400 C.2     1  UNL1        0.0170
     22  C         27.1210  -18.1650  -14.6600 C.3     1  UNL1        0.0390
     23  C         26.6270  -17.0480  -15.5800 C.3     1  UNL1        0.0050
     24  C         26.3410  -17.4870  -17.0260 C.3     1  UNL1        0.0050
     25  S         18.2380  -23.1390   -8.7540 S.O2    1  UNL1        0.2650
     26  O         19.2310  -23.9440   -8.0690 O.2     1  UNL1       -0.2000
     27  O         17.0410  -23.7680   -9.2620 O.2     1  UNL1       -0.2000
     28  N         17.8590  -21.9180   -7.6810 N.pl3   1  UNL1       -0.2800
     29  H         17.8250  -20.9690   -8.0590 H       1  UNL1        0.1790
     30  C         17.5290  -22.1430   -6.3220 C.2     1  UNL1        0.0490
     31  C         16.4090  -22.9160   -5.9970 C.2     1  UNL1        0.0370
     32  C         16.0810  -23.1810   -4.6590 C.2     1  UNL1       -0.0600
     33  C         14.8820  -24.0250   -4.3330 C.3     1  UNL1        0.0480
     34  C         16.9150  -22.6980   -3.6510 C.2     1  UNL1        0.0070
     35  C         18.0480  -21.9440   -3.9710 C.2     1  UNL1        0.0090
     36  C         18.3720  -21.6610   -5.3090 C.2     1  UNL1       -0.0350
     37  C         19.6000  -20.8500   -5.6160 C.3     1  UNL1        0.0500
@<TRIPOS>BOND
     1    20    24    1
     2    20    18    1
     3    24    23    1
     4    17    18    2
     5    17    16    1
     6    18    19    1
     7    23    22    1
     8    16    15    2
     9    19    22    1
    10    19    21    2
    11    15    21    1
    12    15    12    1
    13    10     9    1
    14    13    14    1
    15    13    12    1
    16    12     9    1
    17     9     8   am
    18     2     3    1
    19     2     1    2
    20     3     4    2
    21     8     1    1
    22     8    11    2
    23     1     7    1
    24     4     5    1
    25     4     6    1
    26     7     6    2
    27     6    25    1
    28    27    25    2
    29    25    26    2
    30    25    28    1
    31    29    28    1
    32    28    30    1
    33    30    31    2
    34    30    36    1
    35    31    32    1
    36    37    36    1
    37    36    35    2
    38    32    33    1
    39    32    34    2
    40    35    34    1
