@<TRIPOS>MOLECULE
19888_out_ligand_01.pdbqt
 34 37 0 0 0
SMALL
GASTEIGER

@<TRIPOS>ATOM
      1  C         21.0580  -22.3770  -11.0890 C.2     1  UNL1        0.0490
      2  C         19.7370  -22.3760  -10.6370 C.2     1  UNL1        0.0470
      3  C         18.7910  -21.5460  -11.2430 C.2     1  UNL1        0.0340
      4  C         19.1700  -20.6750  -12.2660 C.2     1  UNL1        0.0170
      5  C         20.4970  -20.6490  -12.6960 C.2     1  UNL1        0.0100
      6  C         21.4510  -21.5050  -12.1230 C.2     1  UNL1       -0.0350
      7  C         22.8690  -21.4480  -12.6230 C.3     1  UNL1        0.0500
      8  C         17.3810  -21.6410  -10.7950 C.2     1  UNL1        0.2520
      9  O         16.6970  -20.6320  -10.6910 O.2     1  UNL1       -0.2680
     10  N         16.9600  -22.9090  -10.4510 N.am    1  UNL1       -0.3530
     11  H         17.6680  -23.6210  -10.3430 H       1  UNL1        0.1630
     12  C         15.7580  -23.0930   -9.6670 C.3     1  UNL1        0.1610
     13  C         16.1220  -23.3340   -8.2240 C.2     1  UNL1       -0.0400
     14  C         17.0090  -24.3600   -7.8820 C.2     1  UNL1        0.0100
     15  C         17.3020  -24.6270   -6.5420 C.2     1  UNL1        0.0130
     16  C         16.7080  -23.8790   -5.5160 C.2     1  UNL1       -0.0260
     17  C         16.9880  -24.1390   -4.1650 C.2     1  UNL1        0.0120
     18  C         15.8070  -22.8420   -5.8490 C.2     1  UNL1       -0.0250
     19  C         16.3880  -23.3870   -3.1540 C.2     1  UNL1        0.0010
     20  C         15.5000  -22.3660   -3.4820 C.2     1  UNL1        0.0010
     21  C         15.2100  -22.0950   -4.8200 C.2     1  UNL1        0.0120
     22  C         15.5230  -22.5840   -7.2000 C.2     1  UNL1        0.0210
     23  N         22.0060  -23.2760  -10.5190 N.pl3   1  UNL1       -0.2800
     24  H         21.7790  -24.2670  -10.4820 H       1  UNL1        0.1790
     25  S         22.9530  -22.8000   -9.2020 S.O2    1  UNL1        0.2630
     26  O         23.5330  -24.0190   -8.6760 O.2     1  UNL1       -0.2000
     27  O         23.7850  -21.6810   -9.5850 O.2     1  UNL1       -0.2000
     28  C         21.7560  -22.2230   -8.0190 C.2     1  UNL1        0.0790
     29  C         22.0210  -21.0650   -7.2840 C.2     1  UNL1        0.0260
     30  C         21.0890  -20.6210   -6.3470 C.2     1  UNL1        0.0080
     31  C         19.8830  -21.3130   -6.1590 C.2     1  UNL1       -0.0620
     32  C         18.9020  -20.8590   -5.1200 C.3     1  UNL1        0.0480
     33  C         19.6250  -22.4650   -6.9170 C.2     1  UNL1        0.0080
     34  C         20.5520  -22.9150   -7.8550 C.2     1  UNL1        0.0260
@<TRIPOS>BOND
     1     5     4    2
     2     5     6    1
     3     7     6    1
     4     4     3    1
     5     6     1    2
     6     3     8    1
     7     3     2    2
     8     1     2    1
     9     1    23    1
    10     8     9    2
    11     8    10   am
    12    23    24    1
    13    23    25    1
    14    10    11    1
    15    10    12    1
    16    12    13    1
    17    27    25    2
    18    25    26    2
    19    25    28    1
    20    13    14    2
    21    13    22    1
    22    28    34    2
    23    28    29    1
    24    14    15    1
    25    34    33    1
    26    29    30    2
    27    22    18    2
    28    33    31    2
    29    15    16    2
    30    30    31    1
    31    31    32    1
    32    18    16    1
    33    18    21    1
    34    16    17    1
    35    21    20    2
    36    17    19    2
    37    20    19    1
