@<TRIPOS>MOLECULE
19889_out_ligand_01.pdbqt
 34 37 0 0 0
SMALL
GASTEIGER

@<TRIPOS>ATOM
      1  C         18.3180  -22.6990   -9.5710 C.2     1  UNL1        0.0860
      2  C         19.6130  -23.1960   -9.3270 C.2     1  UNL1        0.0420
      3  C         20.6890  -22.7660  -10.1060 C.2     1  UNL1        0.0330
      4  C         20.4760  -21.8260  -11.1160 C.2     1  UNL1        0.0170
      5  C         19.1890  -21.3440  -11.3690 C.2     1  UNL1        0.0090
      6  C         18.0870  -21.7720  -10.6070 C.2     1  UNL1       -0.0390
      7  C         16.7340  -21.2170  -10.9560 C.3     1  UNL1        0.0500
      8  C         22.0740  -23.2580   -9.8810 C.2     1  UNL1        0.2510
      9  O         22.2700  -24.1870   -9.1080 O.2     1  UNL1       -0.2680
     10  N         23.0740  -22.5910  -10.5510 N.am    1  UNL1       -0.3530
     11  H         22.8680  -21.7640  -11.0960 H       1  UNL1        0.1630
     12  C         24.4740  -22.9350  -10.3860 C.3     1  UNL1        0.1620
     13  C         25.3460  -22.1930  -11.3800 C.2     1  UNL1       -0.0290
     14  C         25.9160  -20.9750  -10.9540 C.2     1  UNL1        0.0100
     15  C         26.7280  -20.2260  -11.7980 C.2     1  UNL1        0.0020
     16  C         26.9980  -20.6870  -13.0820 C.2     1  UNL1        0.0120
     17  C         26.4740  -21.9060  -13.5360 C.2     1  UNL1       -0.0250
     18  C         26.7830  -22.3500  -14.8330 C.2     1  UNL1        0.0120
     19  C         25.6440  -22.6870  -12.6880 C.2     1  UNL1       -0.0180
     20  C         26.2960  -23.5620  -15.3140 C.2     1  UNL1        0.0010
     21  C         25.4930  -24.3480  -14.5010 C.2     1  UNL1        0.0010
     22  C         25.1710  -23.9180  -13.2100 C.2     1  UNL1        0.0130
     23  S         17.0230  -23.3330   -8.5120 S.O2    1  UNL1        0.2630
     24  O         17.6520  -24.2910   -7.6220 O.2     1  UNL1       -0.2000
     25  O         15.8680  -23.7180   -9.2920 O.2     1  UNL1       -0.2000
     26  N         16.6460  -22.0010   -7.5430 N.pl3   1  UNL1       -0.2800
     27  H         17.1230  -21.1620   -7.8720 H       1  UNL1        0.1790
     28  C         16.5460  -22.1870   -6.1340 C.2     1  UNL1        0.0480
     29  C         15.3240  -22.6230   -5.6130 C.2     1  UNL1        0.0300
     30  C         15.1860  -22.8600   -4.2460 C.2     1  UNL1        0.0020
     31  C         16.2720  -22.6660   -3.3970 C.2     1  UNL1        0.0010
     32  C         17.4930  -22.2290   -3.9140 C.2     1  UNL1        0.0090
     33  C         17.6450  -21.9750   -5.2870 C.2     1  UNL1       -0.0350
     34  C         18.9840  -21.5280   -5.8030 C.3     1  UNL1        0.0500
@<TRIPOS>BOND
     1    20    18    2
     2    20    21    1
     3    18    17    1
     4    21    22    2
     5    17    16    2
     6    17    19    1
     7    22    19    1
     8    16    15    1
     9    19    13    2
    10    15    14    2
    11    13    14    1
    12    13    12    1
    13     5     4    2
    14     5     6    1
    15     4     3    1
    16    11    10    1
    17     7     6    1
    18     6     1    2
    19    10    12    1
    20    10     8   am
    21     3     8    1
    22     3     2    2
    23     8     9    2
    24     1     2    1
    25     1    23    1
    26    25    23    2
    27    23    24    2
    28    23    26    1
    29    27    26    1
    30    26    28    1
    31    28    29    2
    32    28    33    1
    33    34    33    1
    34    29    30    1
    35    33    32    2
    36    30    31    2
    37    32    31    1
