@<TRIPOS>MOLECULE
19887_out_ligand_01.pdbqt
 34 37 0 0 0
SMALL
GASTEIGER

@<TRIPOS>ATOM
      1  C         20.8210  -22.4900  -10.9270 C.2     1  UNL1        0.0290
      2  C         20.6460  -21.3650  -11.7460 C.2     1  UNL1        0.0250
      3  C         19.4100  -20.7260  -11.8130 C.2     1  UNL1        0.0030
      4  C         18.3420  -21.2160  -11.0680 C.2     1  UNL1        0.0170
      5  C         18.5110  -22.3520  -10.2610 C.2     1  UNL1        0.0390
      6  C         19.7530  -23.0130  -10.1800 C.2     1  UNL1       -0.0240
      7  C         19.9240  -24.2100   -9.2840 C.3     1  UNL1        0.0510
      8  C         17.3410  -22.8210   -9.4790 C.2     1  UNL1        0.2520
      9  O         16.2030  -22.5880   -9.8620 O.2     1  UNL1       -0.2680
     10  N         17.6600  -23.5180   -8.3370 N.am    1  UNL1       -0.3530
     11  H         18.6310  -23.6990   -8.1220 H       1  UNL1        0.1630
     12  C         16.6590  -24.2080   -7.5590 C.3     1  UNL1        0.1620
     13  C         16.5090  -23.5570   -6.2020 C.2     1  UNL1       -0.0290
     14  C         15.4350  -23.9810   -5.3970 C.2     1  UNL1        0.0100
     15  C         15.2410  -23.4510   -4.1280 C.2     1  UNL1        0.0020
     16  C         16.1280  -22.4980   -3.6360 C.2     1  UNL1        0.0120
     17  C         17.2200  -22.0650   -4.4000 C.2     1  UNL1       -0.0250
     18  C         18.1090  -21.1130   -3.8750 C.2     1  UNL1        0.0120
     19  C         17.4320  -22.5950   -5.7000 C.2     1  UNL1       -0.0180
     20  C         19.2090  -20.6750   -4.6080 C.2     1  UNL1        0.0010
     21  C         19.4350  -21.1840   -5.8800 C.2     1  UNL1        0.0010
     22  C         18.5590  -22.1300   -6.4180 C.2     1  UNL1        0.0130
     23  N         22.1020  -23.1460  -10.9290 N.pl3   1  UNL1       -0.1810
     24  H         22.0150  -24.0990  -10.5710 H       1  UNL1        0.1460
     25  S         23.2700  -22.3630   -9.9540 S.O2    1  UNL1        0.2450
     26  O         23.9230  -23.4020   -9.1860 O.2     1  UNL1       -0.2060
     27  O         22.6870  -21.1980   -9.3250 O.2     1  UNL1       -0.2060
     28  C         24.4060  -21.7980  -11.1960 C.2     1  UNL1        0.0740
     29  C         24.1580  -22.1010  -12.5370 C.2     1  UNL1        0.0250
     30  C         25.0430  -21.6500  -13.5200 C.2     1  UNL1        0.0080
     31  C         26.1640  -20.8870  -13.1680 C.2     1  UNL1       -0.0620
     32  C         27.1200  -20.3960  -14.2160 C.3     1  UNL1        0.0480
     33  C         26.3910  -20.5790  -11.8200 C.2     1  UNL1        0.0080
     34  C         25.5130  -21.0290  -10.8310 C.2     1  UNL1        0.0250
@<TRIPOS>BOND
     1    32    31    1
     2    30    31    2
     3    30    29    1
     4    31    33    1
     5    29    28    2
     6    33    34    2
     7     3     2    1
     8     3     4    2
     9     2     1    2
    10    28    34    1
    11    28    25    1
    12     4     5    1
    13    23     1    1
    14    23    24    1
    15    23    25    1
    16     1     6    1
    17     5     6    2
    18     5     8    1
    19     6     7    1
    20    25    27    2
    21    25    26    2
    22     9     8    2
    23     8    10   am
    24    10    11    1
    25    10    12    1
    26    12    13    1
    27    22    21    2
    28    22    19    1
    29    13    19    2
    30    13    14    1
    31    21    20    1
    32    19    17    1
    33    14    15    2
    34    20    18    2
    35    17    18    1
    36    17    16    2
    37    15    16    1
