@<TRIPOS>MOLECULE
19886_out_ligand_01.pdbqt
 33 36 0 0 0
SMALL
GASTEIGER

@<TRIPOS>ATOM
      1  C         23.1010  -23.8040   -9.1480 C.3     1  UNL1        0.0510
      2  C         22.3310  -23.0090  -10.1690 C.2     1  UNL1       -0.0240
      3  C         22.8860  -22.6470  -11.4110 C.2     1  UNL1        0.0290
      4  C         22.1390  -21.9170  -12.3450 C.2     1  UNL1        0.0250
      5  C         20.8440  -21.5020  -12.0530 C.2     1  UNL1        0.0030
      6  C         20.2850  -21.8180  -10.8190 C.2     1  UNL1        0.0170
      7  C         21.0190  -22.5650   -9.8830 C.2     1  UNL1        0.0390
      8  C         20.3760  -22.8540   -8.5720 C.2     1  UNL1        0.2520
      9  O         20.7150  -22.2550   -7.5600 O.2     1  UNL1       -0.2680
     10  N         19.4170  -23.8390   -8.5990 N.am    1  UNL1       -0.3530
     11  H         19.3140  -24.4080   -9.4320 H       1  UNL1        0.1630
     12  C         18.8310  -24.3300   -7.3730 C.3     1  UNL1        0.1620
     13  C         17.5170  -23.6420   -7.0870 C.2     1  UNL1       -0.0290
     14  C         16.7340  -23.2360   -8.1830 C.2     1  UNL1        0.0100
     15  C         15.5070  -22.6120   -7.9880 C.2     1  UNL1        0.0020
     16  C         15.0380  -22.3930   -6.6960 C.2     1  UNL1        0.0120
     17  C         15.7840  -22.7990   -5.5800 C.2     1  UNL1       -0.0250
     18  C         15.2850  -22.5820   -4.2850 C.2     1  UNL1        0.0120
     19  C         17.0410  -23.4320   -5.7600 C.2     1  UNL1       -0.0180
     20  C         16.0040  -22.9830   -3.1610 C.2     1  UNL1        0.0010
     21  C         17.2340  -23.6060   -3.3180 C.2     1  UNL1        0.0010
     22  C         17.7460  -23.8260   -4.5990 C.2     1  UNL1        0.0130
     23  N         24.2110  -23.0420  -11.8020 N.pl3   1  UNL1       -0.1810
     24  H         24.2840  -23.2670  -12.7940 H       1  UNL1        0.1460
     25  S         25.4390  -21.9360  -11.3800 S.O2    1  UNL1        0.2450
     26  O         26.6560  -22.6510  -11.0600 O.2     1  UNL1       -0.2060
     27  O         24.8560  -20.9710  -10.4710 O.2     1  UNL1       -0.2060
     28  C         25.6890  -21.1330  -12.9460 C.2     1  UNL1        0.0740
     29  C         26.1950  -19.8300  -12.9640 C.2     1  UNL1        0.0250
     30  C         26.4060  -19.1930  -14.1870 C.2     1  UNL1        0.0020
     31  C         26.1080  -19.8540  -15.3790 C.2     1  UNL1        0.0000
     32  C         25.5910  -21.1530  -15.3550 C.2     1  UNL1        0.0020
     33  C         25.3760  -21.7970  -14.1360 C.2     1  UNL1        0.0250
@<TRIPOS>BOND
     1    31    32    2
     2    31    30    1
     3    32    33    1
     4    30    29    2
     5    33    28    2
     6    29    28    1
     7    28    25    1
     8    24    23    1
     9     4     5    2
    10     4     3    1
    11     5     6    1
    12    23     3    1
    13    23    25    1
    14     3     2    2
    15    25    26    2
    16    25    27    2
    17     6     7    2
    18     2     7    1
    19     2     1    1
    20     7     8    1
    21    11    10    1
    22    10     8   am
    23    10    12    1
    24     8     9    2
    25    14    15    1
    26    14    13    2
    27    15    16    2
    28    12    13    1
    29    13    19    1
    30    16    17    1
    31    19    17    2
    32    19    22    1
    33    17    18    1
    34    22    21    2
    35    18    20    2
    36    21    20    1
