@<TRIPOS>MOLECULE
1988_out_ligand_01.pdbqt
 29 32 0 0 0
SMALL
GASTEIGER

@<TRIPOS>ATOM
      1  C         19.2090  -22.2770  -10.2800 C.2     1  UNL1        0.0330
      2  C         18.8780  -21.3810  -11.3270 C.2     1  UNL1        0.0180
      3  C         19.8250  -21.0270  -12.2970 C.2     1  UNL1        0.0190
      4  C         21.0850  -21.5810  -12.1800 C.2     1  UNL1        0.0480
      5  C         21.4150  -22.4460  -11.1520 C.2     1  UNL1        0.0490
      6  C         20.5030  -22.8130  -10.1820 C.2     1  UNL1        0.0350
      7  C         22.8160  -22.8280  -11.3300 C.2     1  UNL1        0.2620
      8  O         23.4190  -23.5860  -10.5970 O.2     1  UNL1       -0.2670
      9  N         23.2540  -22.1760  -12.4490 N.am    1  UNL1       -0.2760
     10  C         22.2740  -21.4100  -13.0150 C.2     1  UNL1        0.2620
     11  O         22.3190  -20.7130  -14.0090 O.2     1  UNL1       -0.2670
     12  C         18.2160  -22.6590   -9.2380 C.2     1  UNL1        0.2510
     13  O         17.0870  -22.1840   -9.2740 O.2     1  UNL1       -0.2680
     14  N         18.6600  -23.5200   -8.2590 N.am    1  UNL1       -0.3530
     15  H         19.6520  -23.6730   -8.1520 H       1  UNL1        0.1630
     16  C         17.8390  -23.8340   -7.1080 C.3     1  UNL1        0.1610
     17  C         18.0950  -22.8520   -5.9930 C.2     1  UNL1       -0.0410
     18  C         17.5460  -23.0540   -4.7190 C.2     1  UNL1        0.0090
     19  C         17.8080  -22.1510   -3.6860 C.2     1  UNL1        0.0010
     20  C         18.6250  -21.0450   -3.9150 C.2     1  UNL1        0.0000
     21  C         19.1820  -20.8400   -5.1750 C.2     1  UNL1        0.0010
     22  C         18.9210  -21.7390   -6.2090 C.2     1  UNL1        0.0090
     23  C         24.6070  -22.2510  -12.9510 C.3     1  UNL1        0.1750
     24  C         25.4150  -21.0490  -12.5470 C.2     1  UNL1       -0.0220
     25  C         25.9040  -20.1450  -13.4960 C.2     1  UNL1        0.0120
     26  C         26.6670  -19.0580  -13.0820 C.2     1  UNL1        0.0200
     27  C         26.9240  -18.9130  -11.7310 C.2     1  UNL1        0.1160
     28  N         26.4800  -19.7710  -10.7850 N.2     1  UNL1       -0.2730
     29  C         25.7440  -20.8200  -11.2140 C.2     1  UNL1        0.1240
@<TRIPOS>BOND
     1    11    10    2
     2    25    26    1
     3    25    24    2
     4    26    27    2
     5    10     9   am
     6    10     4    1
     7    23    24    1
     8    23     9    1
     9    24    29    1
    10     9     7   am
    11     3     4    2
    12     3     2    1
    13     4     5    1
    14    27    28    1
    15     7     5    1
    16     7     8    2
    17     2     1    2
    18    29    28    2
    19     5     6    2
    20     1     6    1
    21     1    12    1
    22    13    12    2
    23    12    14   am
    24    14    15    1
    25    14    16    1
    26    16    17    1
    27    22    17    2
    28    22    21    1
    29    17    18    1
    30    21    20    2
    31    18    19    2
    32    20    19    1
