@<TRIPOS>MOLECULE
19883_out_ligand_01.pdbqt
 37 40 0 0 0
SMALL
GASTEIGER

@<TRIPOS>ATOM
      1  C         21.3380  -21.5540  -10.6690 C.2     1  UNL1        0.0330
      2  C         20.7730  -20.8040  -11.7020 C.2     1  UNL1        0.0170
      3  C         19.3860  -20.7650  -11.8660 C.2     1  UNL1        0.0090
      4  C         18.5330  -21.4550  -10.9880 C.2     1  UNL1       -0.0390
      5  C         17.0520  -21.3970  -11.2390 C.3     1  UNL1        0.0500
      6  C         19.1150  -22.1900   -9.9350 C.2     1  UNL1        0.0810
      7  C         20.5100  -22.2400   -9.7770 C.2     1  UNL1        0.0420
      8  C         22.8190  -21.5770  -10.5360 C.2     1  UNL1        0.2520
      9  N         23.5100  -22.1260  -11.5920 N.am    1  UNL1       -0.3480
     10  H         23.0240  -22.3360  -12.4530 H       1  UNL1        0.1630
     11  O         23.3520  -21.0980   -9.5420 O.2     1  UNL1       -0.2680
     12  C         24.9660  -22.1450  -11.6300 C.3     1  UNL1        0.1170
     13  C         25.5160  -23.3800  -10.8860 C.3     1  UNL1        0.0250
     14  C         27.0330  -23.3610  -10.7400 C.3     1  UNL1        0.0070
     15  C         25.4170  -22.0450  -13.0790 C.2     1  UNL1       -0.0350
     16  C         26.4020  -21.1310  -13.4860 C.2     1  UNL1        0.0100
     17  C         26.8300  -21.0820  -14.8150 C.2     1  UNL1        0.0080
     18  C         26.2730  -21.9450  -15.7600 C.2     1  UNL1       -0.0520
     19  C         25.2960  -22.8730  -15.3680 C.2     1  UNL1       -0.0510
     20  C         26.7340  -21.9600  -17.1930 C.3     1  UNL1        0.0390
     21  C         24.8800  -22.9250  -14.0330 C.2     1  UNL1        0.0170
     22  C         24.7730  -23.8330  -16.4010 C.3     1  UNL1        0.0390
     23  C         24.4920  -23.1260  -17.7280 C.3     1  UNL1        0.0050
     24  C         25.5500  -22.0960  -18.1510 C.3     1  UNL1        0.0050
     25  S         18.1180  -23.0880   -8.7500 S.O2    1  UNL1        0.2460
     26  O         19.0170  -23.9070   -7.9620 O.2     1  UNL1       -0.2060
     27  O         17.0020  -23.6650   -9.4650 O.2     1  UNL1       -0.2060
     28  N         17.6000  -21.8130   -7.7460 N.pl3   1  UNL1       -0.1810
     29  H         18.3030  -21.0760   -7.7560 H       1  UNL1        0.1460
     30  C         17.2220  -22.2010   -6.4160 C.2     1  UNL1        0.0290
     31  C         16.0690  -22.9760   -6.2480 C.2     1  UNL1        0.0310
     32  C         15.6620  -23.3930   -4.9760 C.2     1  UNL1       -0.0600
     33  C         14.4220  -24.2210   -4.8210 C.3     1  UNL1        0.0480
     34  C         16.4210  -23.0150   -3.8650 C.2     1  UNL1        0.0070
     35  C         17.5760  -22.2460   -4.0280 C.2     1  UNL1        0.0090
     36  C         17.9960  -21.8340   -5.3020 C.2     1  UNL1       -0.0400
     37  C         19.2530  -21.0180   -5.4260 C.3     1  UNL1        0.0500
@<TRIPOS>BOND
     1    24    23    1
     2    24    20    1
     3    23    22    1
     4    20    18    1
     5    22    19    1
     6    18    19    2
     7    18    17    1
     8    19    21    1
     9    17    16    2
    10    21    15    2
    11    16    15    1
    12    15    12    1
    13    10     9    1
    14     3     2    1
    15     3     4    2
    16     2     1    2
    17    12     9    1
    18    12    13    1
    19     9     8   am
    20     5     4    1
    21     4     6    1
    22    13    14    1
    23     1     8    1
    24     1     7    1
    25     8    11    2
    26     6     7    2
    27     6    25    1
    28    27    25    2
    29    25    26    2
    30    25    28    1
    31    29    28    1
    32    28    30    1
    33    30    31    2
    34    30    36    1
    35    31    32    1
    36    37    36    1
    37    36    35    2
    38    32    33    1
    39    32    34    2
    40    35    34    1
