@<TRIPOS>MOLECULE
19892_out_ligand_01.pdbqt
 35 38 0 0 0
SMALL
GASTEIGER

@<TRIPOS>ATOM
      1  C         16.6460  -21.1680  -10.9850 C.3     1  UNL1        0.0500
      2  C         18.0260  -21.6810  -10.6810 C.2     1  UNL1       -0.0390
      3  C         19.1010  -21.1600  -11.4250 C.2     1  UNL1        0.0090
      4  C         20.4130  -21.5930  -11.2110 C.2     1  UNL1        0.0170
      5  C         20.6770  -22.5550  -10.2340 C.2     1  UNL1        0.0330
      6  C         19.6250  -23.0840   -9.4830 C.2     1  UNL1        0.0420
      7  C         18.3050  -22.6520   -9.7000 C.2     1  UNL1        0.0860
      8  C         22.0500  -23.0710   -9.9890 C.2     1  UNL1        0.2510
      9  O         22.2050  -24.0700   -9.2990 O.2     1  UNL1       -0.2680
     10  N         23.0800  -22.3560  -10.5520 N.am    1  UNL1       -0.3530
     11  H         22.8990  -21.4740  -11.0120 H       1  UNL1        0.1630
     12  C         24.4690  -22.7170  -10.3450 C.3     1  UNL1        0.1620
     13  C         25.3550  -22.0760  -11.3930 C.2     1  UNL1       -0.0290
     14  C         25.9860  -20.8660  -11.0360 C.2     1  UNL1        0.0100
     15  C         26.8210  -20.2010  -11.9250 C.2     1  UNL1        0.0020
     16  C         27.0510  -20.7380  -13.1870 C.2     1  UNL1        0.0120
     17  C         26.4580  -21.9470  -13.5760 C.2     1  UNL1       -0.0250
     18  C         26.7250  -22.4700  -14.8530 C.2     1  UNL1        0.0120
     19  C         25.5990  -22.6440  -12.6820 C.2     1  UNL1       -0.0180
     20  C         26.1680  -23.6760  -15.2730 C.2     1  UNL1        0.0010
     21  C         25.3320  -24.3770  -14.4160 C.2     1  UNL1        0.0010
     22  C         25.0520  -23.8690  -13.1420 C.2     1  UNL1        0.0130
     23  S         17.0590  -23.3990   -8.6580 S.O2    1  UNL1        0.2630
     24  O         17.6500  -24.3770   -7.7730 O.2     1  UNL1       -0.2000
     25  O         15.9620  -23.7770   -9.5270 O.2     1  UNL1       -0.2000
     26  N         16.5030  -22.0870   -7.7580 N.pl3   1  UNL1       -0.2800
     27  H         15.7770  -21.5590   -8.2410 H       1  UNL1        0.1790
     28  C         16.4290  -22.2050   -6.3420 C.2     1  UNL1        0.0490
     29  C         15.2040  -22.6020   -5.7990 C.2     1  UNL1        0.0310
     30  C         15.0510  -22.7110   -4.4220 C.2     1  UNL1        0.0030
     31  C         16.1220  -22.4180   -3.5820 C.2     1  UNL1        0.0070
     32  C         17.3590  -22.0110   -4.1090 C.2     1  UNL1       -0.0540
     33  C         18.4860  -21.7110   -3.1540 C.3     1  UNL1        0.0490
     34  C         17.5290  -21.9190   -5.5120 C.2     1  UNL1       -0.0290
     35  C         18.8540  -21.4750   -6.0770 C.3     1  UNL1        0.0510
@<TRIPOS>BOND
     1    20    18    2
     2    20    21    1
     3    18    17    1
     4    21    22    2
     5    17    16    2
     6    17    19    1
     7    16    15    1
     8    22    19    1
     9    19    13    2
    10    15    14    2
    11     3     4    1
    12     3     2    2
    13    13    14    1
    14    13    12    1
    15     4     5    2
    16    11    10    1
    17     1     2    1
    18     2     7    1
    19    10    12    1
    20    10     8   am
    21     5     8    1
    22     5     6    1
    23     8     9    2
    24     7     6    2
    25     7    23    1
    26    25    23    2
    27    23    24    2
    28    23    26    1
    29    27    26    1
    30    26    28    1
    31    28    29    2
    32    28    34    1
    33    35    34    1
    34    29    30    1
    35    34    32    2
    36    30    31    2
    37    32    31    1
    38    32    33    1
