@<TRIPOS>MOLECULE
19891_out_ligand_01.pdbqt
 34 37 0 0 0
SMALL
GASTEIGER

@<TRIPOS>ATOM
      1  C         20.2570  -22.0360  -10.3630 C.2     1  UNL1        0.0810
      2  C         19.2070  -22.5950   -9.6180 C.2     1  UNL1        0.0420
      3  C         17.8850  -22.4680  -10.0580 C.2     1  UNL1        0.0330
      4  C         17.6080  -21.7320  -11.2130 C.2     1  UNL1        0.0170
      5  C         18.6530  -21.1600  -11.9430 C.2     1  UNL1        0.0090
      6  C         19.9930  -21.3180  -11.5450 C.2     1  UNL1       -0.0390
      7  C         21.0620  -20.6740  -12.3830 C.3     1  UNL1        0.0500
      8  C         16.8110  -23.1320   -9.2730 C.2     1  UNL1        0.2510
      9  O         15.6450  -23.0480   -9.6330 O.2     1  UNL1       -0.2680
     10  N         17.2080  -23.7750   -8.1200 N.am    1  UNL1       -0.3530
     11  H         18.1720  -23.7530   -7.8190 H       1  UNL1        0.1630
     12  C         16.2540  -24.3850   -7.2270 C.3     1  UNL1        0.1620
     13  C         16.2700  -23.6930   -5.8850 C.2     1  UNL1       -0.0290
     14  C         15.2260  -24.0150   -4.9900 C.2     1  UNL1        0.0100
     15  C         15.1400  -23.4130   -3.7390 C.2     1  UNL1        0.0020
     16  C         16.0960  -22.4750   -3.3590 C.2     1  UNL1        0.0120
     17  C         17.1470  -22.1260   -4.2230 C.2     1  UNL1       -0.0250
     18  C         18.1050  -21.1860   -3.8060 C.2     1  UNL1        0.0120
     19  C         17.2430  -22.7220   -5.5110 C.2     1  UNL1       -0.0180
     20  C         19.1670  -20.8210   -4.6370 C.2     1  UNL1        0.0010
     21  C         19.2730  -21.3810   -5.9040 C.2     1  UNL1        0.0010
     22  C         18.3200  -22.3090   -6.3380 C.2     1  UNL1        0.0130
     23  S         21.9260  -22.2950   -9.7610 S.O2    1  UNL1        0.2460
     24  O         22.6280  -21.0310   -9.8030 O.2     1  UNL1       -0.2060
     25  O         21.8470  -23.0840   -8.5520 O.2     1  UNL1       -0.2060
     26  N         22.5120  -23.3370  -10.9770 N.pl3   1  UNL1       -0.1810
     27  H         22.7160  -24.2340  -10.5340 H       1  UNL1        0.1460
     28  C         23.6640  -22.8460  -11.6750 C.2     1  UNL1        0.0220
     29  C         24.9180  -22.8860  -11.0670 C.2     1  UNL1        0.0250
     30  C         26.0400  -22.4170  -11.7550 C.2     1  UNL1        0.0080
     31  C         25.9110  -21.8930  -13.0450 C.2     1  UNL1       -0.0620
     32  C         27.1200  -21.4370  -13.8070 C.3     1  UNL1        0.0480
     33  C         24.6430  -21.8420  -13.6380 C.2     1  UNL1        0.0080
     34  C         23.5200  -22.3050  -12.9520 C.2     1  UNL1        0.0250
@<TRIPOS>BOND
     1    32    31    1
     2    33    31    2
     3    33    34    1
     4    31    30    1
     5    34    28    2
     6     7     6    1
     7     5     6    1
     8     5     4    2
     9    30    29    2
    10    28    29    1
    11    28    26    1
    12     6     1    2
    13     4     3    1
    14    26    27    1
    15    26    23    1
    16     1    23    1
    17     1     2    1
    18     3     2    2
    19     3     8    1
    20    24    23    2
    21    23    25    2
    22     9     8    2
    23     8    10   am
    24    10    11    1
    25    10    12    1
    26    12    13    1
    27    22    21    2
    28    22    19    1
    29    21    20    1
    30    13    19    2
    31    13    14    1
    32    19    17    1
    33    14    15    2
    34    20    18    2
    35    17    18    1
    36    17    16    2
    37    15    16    1
