@<TRIPOS>MOLECULE
19897_out_ligand_01.pdbqt
 35 38 0 0 0
SMALL
GASTEIGER

@<TRIPOS>ATOM
      1  C         16.6220  -21.0400  -10.9880 C.3     1  UNL1        0.0500
      2  C         17.9940  -21.5910  -10.7170 C.2     1  UNL1       -0.0390
      3  C         19.0620  -21.1140  -11.4940 C.2     1  UNL1        0.0090
      4  C         20.3590  -21.6000  -11.3130 C.2     1  UNL1        0.0170
      5  C         20.6200  -22.5920  -10.3630 C.2     1  UNL1        0.0330
      6  C         19.5720  -23.0760   -9.5760 C.2     1  UNL1        0.0420
      7  C         18.2660  -22.5790   -9.7500 C.2     1  UNL1        0.0860
      8  C         22.0210  -23.0820  -10.2240 C.2     1  UNL1        0.2510
      9  O         22.2610  -24.0470   -9.5040 O.2     1  UNL1       -0.2680
     10  N         22.9940  -22.3760  -10.8950 N.am    1  UNL1       -0.3530
     11  H         22.7700  -21.5260  -11.3940 H       1  UNL1        0.1630
     12  C         24.3930  -22.7350  -10.8050 C.3     1  UNL1        0.1610
     13  C         24.9890  -22.8750  -12.1800 C.2     1  UNL1       -0.0400
     14  C         26.0600  -23.7510  -12.3910 C.2     1  UNL1        0.0100
     15  C         26.6380  -23.8710  -13.6560 C.2     1  UNL1        0.0130
     16  C         26.1610  -23.1160  -14.7380 C.2     1  UNL1       -0.0260
     17  C         26.7350  -23.2240  -16.0150 C.2     1  UNL1        0.0120
     18  C         25.0820  -22.2250  -14.5380 C.2     1  UNL1       -0.0250
     19  C         26.2530  -22.4600  -17.0810 C.2     1  UNL1        0.0010
     20  C         25.1890  -21.5850  -16.8850 C.2     1  UNL1        0.0010
     21  C         24.6060  -21.4660  -15.6220 C.2     1  UNL1        0.0120
     22  C         24.5090  -22.1140  -13.2570 C.2     1  UNL1        0.0210
     23  S         16.9890  -23.2880   -8.7130 S.O2    1  UNL1        0.2630
     24  O         17.6120  -24.2810   -7.8610 O.2     1  UNL1       -0.2000
     25  O         15.8660  -23.6500   -9.5520 O.2     1  UNL1       -0.2000
     26  N         16.4880  -21.9830   -7.7700 N.pl3   1  UNL1       -0.2800
     27  H         16.7410  -21.0810   -8.1620 H       1  UNL1        0.1790
     28  C         16.3810  -22.1250   -6.3560 C.2     1  UNL1        0.0490
     29  C         15.1550  -22.5410   -5.8250 C.2     1  UNL1        0.0310
     30  C         15.0080  -22.7430   -4.4570 C.2     1  UNL1        0.0030
     31  C         16.0920  -22.5390   -3.6110 C.2     1  UNL1        0.0070
     32  C         17.3340  -22.1270   -4.1190 C.2     1  UNL1       -0.0540
     33  C         18.4720  -21.9260   -3.1530 C.3     1  UNL1        0.0490
     34  C         17.4830  -21.8890   -5.5080 C.2     1  UNL1       -0.0290
     35  C         18.8270  -21.4530   -6.0410 C.3     1  UNL1        0.0510
@<TRIPOS>BOND
     1    19    20    2
     2    19    17    1
     3    20    21    1
     4    17    16    2
     5    21    18    2
     6    16    18    1
     7    16    15    1
     8    18    22    1
     9    15    14    2
    10    22    13    2
    11    14    13    1
    12    13    12    1
    13     3     4    1
    14     3     2    2
    15    11    10    1
    16     4     5    2
    17     1     2    1
    18    10    12    1
    19    10     8   am
    20     2     7    1
    21     5     8    1
    22     5     6    1
    23     8     9    2
    24     7     6    2
    25     7    23    1
    26    25    23    2
    27    23    24    2
    28    23    26    1
    29    27    26    1
    30    26    28    1
    31    28    29    2
    32    28    34    1
    33    35    34    1
    34    29    30    1
    35    34    32    2
    36    30    31    2
    37    32    31    1
    38    32    33    1
