@<TRIPOS>MOLECULE
19895_out_ligand_01.pdbqt
 34 37 0 0 0
SMALL
GASTEIGER

@<TRIPOS>ATOM
      1  C         17.6460  -23.5880   -8.5570 C.2     1  UNL1        0.0810
      2  C         19.0390  -23.7640   -8.5150 C.2     1  UNL1        0.0420
      3  C         19.8500  -23.1670   -9.4820 C.2     1  UNL1        0.0330
      4  C         19.2790  -22.3910  -10.4930 C.2     1  UNL1        0.0170
      5  C         17.8920  -22.2200  -10.5360 C.2     1  UNL1        0.0090
      6  C         17.0520  -22.8220   -9.5810 C.2     1  UNL1       -0.0390
      7  C         15.5700  -22.5870   -9.6960 C.3     1  UNL1        0.0500
      8  C         21.3110  -23.4150   -9.4190 C.2     1  UNL1        0.2510
      9  O         21.7210  -24.5140   -9.0670 O.2     1  UNL1       -0.2680
     10  N         22.1150  -22.3450   -9.7340 N.am    1  UNL1       -0.3530
     11  H         21.7140  -21.4310   -9.8740 H       1  UNL1        0.1630
     12  C         23.5550  -22.4310   -9.6050 C.3     1  UNL1        0.1610
     13  C         24.2460  -21.8450  -10.8110 C.2     1  UNL1       -0.0400
     14  C         25.4690  -21.1720  -10.6710 C.2     1  UNL1        0.0100
     15  C         26.1300  -20.6580  -11.7870 C.2     1  UNL1        0.0130
     16  C         25.5920  -20.8120  -13.0740 C.2     1  UNL1       -0.0260
     17  C         26.2530  -20.3150  -14.2100 C.2     1  UNL1        0.0120
     18  C         24.3560  -21.4820  -13.2290 C.2     1  UNL1       -0.0250
     19  C         25.7040  -20.4780  -15.4830 C.2     1  UNL1        0.0010
     20  C         24.4890  -21.1370  -15.6370 C.2     1  UNL1        0.0010
     21  C         23.8180  -21.6370  -14.5190 C.2     1  UNL1        0.0120
     22  C         23.6990  -21.9910  -12.0950 C.2     1  UNL1        0.0210
     23  S         16.6870  -24.3540   -7.2530 S.O2    1  UNL1        0.2460
     24  O         17.5930  -25.0640   -6.3790 O.2     1  UNL1       -0.2060
     25  O         15.5510  -25.0120   -7.8660 O.2     1  UNL1       -0.2060
     26  N         16.0640  -22.9650   -6.4800 N.pl3   1  UNL1       -0.1810
     27  H         15.1850  -23.2570   -6.0470 H       1  UNL1        0.1460
     28  C         16.9380  -22.4210   -5.4820 C.2     1  UNL1        0.0230
     29  C         16.6620  -22.6630   -4.1390 C.2     1  UNL1        0.0240
     30  C         17.4760  -22.1050   -3.1550 C.2     1  UNL1        0.0020
     31  C         18.5530  -21.2960   -3.5130 C.2     1  UNL1        0.0070
     32  C         18.8170  -21.0220   -4.8620 C.2     1  UNL1       -0.0600
     33  C         19.9640  -20.1350   -5.2510 C.3     1  UNL1        0.0480
     34  C         18.0050  -21.5970   -5.8480 C.2     1  UNL1        0.0310
@<TRIPOS>BOND
     1    20    19    2
     2    20    21    1
     3    19    17    1
     4    21    18    2
     5    17    16    2
     6    18    16    1
     7    18    22    1
     8    16    15    1
     9    22    13    2
    10    15    14    2
    11    13    14    1
    12    13    12    1
    13     5     4    2
    14     5     6    1
    15     4     3    1
    16    11    10    1
    17    10    12    1
    18    10     8   am
    19     7     6    1
    20     6     1    2
    21     3     8    1
    22     3     2    2
    23     8     9    2
    24     1     2    1
    25     1    23    1
    26    25    23    2
    27    23    26    1
    28    23    24    2
    29    26    27    1
    30    26    28    1
    31    34    28    2
    32    34    32    1
    33    28    29    1
    34    33    32    1
    35    32    31    2
    36    29    30    2
    37    31    30    1
