@<TRIPOS>MOLECULE
19890_out_ligand_01.pdbqt
 34 37 0 0 0
SMALL
GASTEIGER

@<TRIPOS>ATOM
      1  C         20.4130  -22.1670  -10.4850 C.2     1  UNL1        0.0860
      2  C         19.3590  -22.7400   -9.7510 C.2     1  UNL1        0.0420
      3  C         18.0310  -22.5680  -10.1540 C.2     1  UNL1        0.0330
      4  C         17.7540  -21.8350  -11.3090 C.2     1  UNL1        0.0170
      5  C         18.8030  -21.2840  -12.0530 C.2     1  UNL1        0.0090
      6  C         20.1470  -21.4400  -11.6590 C.2     1  UNL1       -0.0390
      7  C         21.2100  -20.8070  -12.5130 C.3     1  UNL1        0.0500
      8  C         16.9620  -23.1380   -9.2930 C.2     1  UNL1        0.2510
      9  O         15.7860  -22.9710   -9.6050 O.2     1  UNL1       -0.2680
     10  N         17.3670  -23.8080   -8.1640 N.am    1  UNL1       -0.3530
     11  H         18.3430  -23.8290   -7.8940 H       1  UNL1        0.1630
     12  C         16.4150  -24.3670   -7.2240 C.3     1  UNL1        0.1620
     13  C         16.4730  -23.6240   -5.9080 C.2     1  UNL1       -0.0290
     14  C         15.4460  -23.9210   -4.9760 C.2     1  UNL1        0.0100
     15  C         15.3960  -23.2790   -3.7450 C.2     1  UNL1        0.0020
     16  C         16.3690  -22.3290   -3.4180 C.2     1  UNL1        0.0120
     17  C         17.3970  -22.0100   -4.3170 C.2     1  UNL1       -0.0250
     18  C         18.3570  -21.0470   -3.9590 C.2     1  UNL1        0.0120
     19  C         17.4660  -22.6510   -5.5840 C.2     1  UNL1       -0.0180
     20  C         19.3870  -20.6970   -4.8310 C.2     1  UNL1        0.0010
     21  C         19.4740  -21.3040   -6.0750 C.2     1  UNL1        0.0010
     22  C         18.5290  -22.2670   -6.4460 C.2     1  UNL1        0.0130
     23  S         22.0540  -22.4320   -9.8170 S.O2    1  UNL1        0.2630
     24  O         21.9820  -23.2320   -8.6120 O.2     1  UNL1       -0.2000
     25  O         22.7070  -21.1410   -9.8070 O.2     1  UNL1       -0.2000
     26  N         22.8170  -23.3390  -11.0210 N.pl3   1  UNL1       -0.2810
     27  H         22.6080  -24.3330  -10.9450 H       1  UNL1        0.1790
     28  C         24.1160  -22.9620  -11.4700 C.2     1  UNL1        0.0430
     29  C         25.1820  -23.0260  -10.5670 C.2     1  UNL1        0.0300
     30  C         26.4580  -22.6370  -10.9740 C.2     1  UNL1        0.0030
     31  C         26.6710  -22.1910  -12.2820 C.2     1  UNL1        0.0070
     32  C         25.6090  -22.1260  -13.1920 C.2     1  UNL1       -0.0600
     33  C         25.8490  -21.6850  -14.6070 C.3     1  UNL1        0.0480
     34  C         24.3300  -22.5290  -12.7790 C.2     1  UNL1        0.0370
@<TRIPOS>BOND
     1    33    32    1
     2    32    34    1
     3    32    31    2
     4    34    28    2
     5     7     6    1
     6    31    30    1
     7     5     6    1
     8     5     4    2
     9     6     1    2
    10    28    26    1
    11    28    29    1
    12     4     3    1
    13    26    27    1
    14    26    23    1
    15    30    29    2
    16     1    23    1
    17     1     2    1
    18     3     2    2
    19     3     8    1
    20    23    25    2
    21    23    24    2
    22     9     8    2
    23     8    10   am
    24    10    11    1
    25    10    12    1
    26    12    13    1
    27    22    21    2
    28    22    19    1
    29    21    20    1
    30    13    19    2
    31    13    14    1
    32    19    17    1
    33    14    15    2
    34    20    18    2
    35    17    18    1
    36    17    16    2
    37    15    16    1
