@<TRIPOS>MOLECULE
19899_out_ligand_01.pdbqt
 34 37 0 0 0
SMALL
GASTEIGER

@<TRIPOS>ATOM
      1  C         20.5120  -22.4140  -10.7170 C.2     1  UNL1        0.0340
      2  C         20.1880  -21.4170  -11.6400 C.2     1  UNL1        0.0170
      3  C         18.8730  -20.9560  -11.7320 C.2     1  UNL1        0.0090
      4  C         17.8600  -21.4770  -10.9060 C.2     1  UNL1       -0.0390
      5  C         16.4720  -20.9150  -11.0490 C.3     1  UNL1        0.0500
      6  C         18.2070  -22.4630   -9.9600 C.2     1  UNL1        0.0810
      7  C         19.5310  -22.9210   -9.8590 C.2     1  UNL1        0.0420
      8  C         21.9050  -22.9060  -10.5800 C.2     1  UNL1        0.2620
      9  N         22.9880  -22.4900  -11.3970 N.am    1  UNL1       -0.2870
     10  C         22.8720  -21.7490  -12.5580 C.2     1  UNL1        0.1190
     11  C         24.3440  -22.7690  -11.2110 C.2     1  UNL1        0.0530
     12  C         24.1180  -21.5210  -13.1140 C.2     1  UNL1        0.0680
     13  C         25.0610  -22.1710  -12.2580 C.2     1  UNL1        0.0090
     14  C         26.4680  -22.3120  -12.2770 C.2     1  UNL1        0.0150
     15  C         27.1210  -23.0310  -11.2720 C.2     1  UNL1        0.0010
     16  C         26.3940  -23.6120  -10.2430 C.2     1  UNL1        0.0020
     17  C         25.0040  -23.4910  -10.1950 C.2     1  UNL1        0.0310
     18  O         22.1180  -23.7440   -9.7070 O.2     1  UNL1       -0.2670
     19  C         24.3150  -20.7620  -14.3450 C.2     1  UNL1        0.2950
     20  O         24.8780  -19.6720  -14.3670 O.2     1  UNL1       -0.2590
     21  O         23.8160  -21.3830  -15.4510 O.3     1  UNL1       -0.3220
     22  C         24.6520  -22.4160  -15.9690 C.3     1  UNL1        0.2130
     23  S         17.0070  -23.1510   -8.8230 S.O2    1  UNL1        0.2460
     24  O         16.2320  -24.1470   -9.5300 O.2     1  UNL1       -0.2060
     25  O         16.3720  -22.0510   -8.1240 O.2     1  UNL1       -0.2060
     26  N         18.0420  -23.8870   -7.6770 N.pl3   1  UNL1       -0.1810
     27  H         18.9690  -23.9010   -8.1110 H       1  UNL1        0.1460
     28  C         18.1220  -23.1790   -6.4290 C.2     1  UNL1        0.0230
     29  C         17.5410  -23.7540   -5.3000 C.2     1  UNL1        0.0240
     30  C         17.6000  -23.0900   -4.0750 C.2     1  UNL1        0.0020
     31  C         18.2390  -21.8480   -3.9840 C.2     1  UNL1        0.0070
     32  C         18.8120  -21.2580   -5.1180 C.2     1  UNL1       -0.0600
     33  C         19.5200  -19.9390   -5.0200 C.3     1  UNL1        0.0480
     34  C         18.7580  -21.9370   -6.3440 C.2     1  UNL1        0.0310
@<TRIPOS>BOND
     1    22    21    1
     2    21    19    1
     3    20    19    2
     4    19    12    1
     5    12    10    2
     6    12    13    1
     7    10     9    1
     8    14    13    1
     9    14    15    2
    10    13    11    2
    11     3     2    1
    12     3     4    2
    13     2     1    2
    14     9    11    1
    15     9     8   am
    16    15    16    1
    17    11    17    1
    18     5     4    1
    19     4     6    1
    20     1     8    1
    21     1     7    1
    22     8    18    2
    23    16    17    2
    24     6     7    2
    25     6    23    1
    26    24    23    2
    27    23    25    2
    28    23    26    1
    29    27    26    1
    30    26    28    1
    31    28    34    2
    32    28    29    1
    33    34    32    1
    34    29    30    2
    35    32    33    1
    36    32    31    2
    37    30    31    1
