@<TRIPOS>MOLECULE
19896_out_ligand_01.pdbqt
 34 37 0 0 0
SMALL
GASTEIGER

@<TRIPOS>ATOM
      1  C         22.0850  -22.3350  -10.9110 C.2     1  UNL1        0.0860
      2  C         20.7040  -22.2460  -10.6540 C.2     1  UNL1        0.0420
      3  C         19.8480  -21.6730  -11.6000 C.2     1  UNL1        0.0330
      4  C         20.3670  -21.2030  -12.8070 C.2     1  UNL1        0.0170
      5  C         21.7410  -21.2640  -13.0490 C.2     1  UNL1        0.0090
      6  C         22.6260  -21.8200  -12.1070 C.2     1  UNL1       -0.0390
      7  C         24.0920  -21.8070  -12.4360 C.3     1  UNL1        0.0500
      8  C         18.3830  -21.5640  -11.3740 C.2     1  UNL1        0.2510
      9  O         17.7780  -20.5720  -11.7690 O.2     1  UNL1       -0.2680
     10  N         17.7960  -22.5990  -10.6740 N.am    1  UNL1       -0.3530
     11  H         18.3730  -23.2930  -10.2170 H       1  UNL1        0.1630
     12  C         16.4140  -22.5180  -10.2350 C.3     1  UNL1        0.1610
     13  C         16.2420  -22.9940   -8.8100 C.2     1  UNL1       -0.0400
     14  C         16.8330  -24.1810   -8.3590 C.2     1  UNL1        0.0100
     15  C         16.6980  -24.5840   -7.0270 C.2     1  UNL1        0.0130
     16  C         15.9870  -23.7990   -6.1060 C.2     1  UNL1       -0.0260
     17  C         15.8590  -24.1850   -4.7620 C.2     1  UNL1        0.0120
     18  C         15.4030  -22.5860   -6.5380 C.2     1  UNL1       -0.0250
     19  C         15.1660  -23.3810   -3.8530 C.2     1  UNL1        0.0010
     20  C         14.5860  -22.1850   -4.2770 C.2     1  UNL1        0.0010
     21  C         14.7040  -21.7880   -5.6100 C.2     1  UNL1        0.0120
     22  C         15.5420  -22.2000   -7.8840 C.2     1  UNL1        0.0210
     23  S         23.0670  -23.1110   -9.6270 S.O2    1  UNL1        0.2630
     24  O         22.4240  -24.3180   -9.1630 O.2     1  UNL1       -0.2000
     25  O         24.4300  -23.1440  -10.1140 O.2     1  UNL1       -0.2000
     26  N         23.0490  -21.9630   -8.3920 N.pl3   1  UNL1       -0.2810
     27  H         23.6190  -21.1450   -8.5990 H       1  UNL1        0.1790
     28  C         21.8830  -21.7910   -7.6000 C.2     1  UNL1        0.0420
     29  C         21.8440  -20.7500   -6.6720 C.2     1  UNL1        0.0300
     30  C         20.6920  -20.5370   -5.9130 C.2     1  UNL1        0.0090
     31  C         19.5700  -21.3570   -6.0800 C.2     1  UNL1       -0.0620
     32  C         18.3390  -21.1400   -5.2510 C.3     1  UNL1        0.0480
     33  C         19.6280  -22.4130   -6.9970 C.2     1  UNL1        0.0090
     34  C         20.7810  -22.6270   -7.7550 C.2     1  UNL1        0.0300
@<TRIPOS>BOND
     1     5     4    2
     2     5     6    1
     3     4     3    1
     4     7     6    1
     5     6     1    2
     6     9     8    2
     7     3     8    1
     8     3     2    2
     9     8    10   am
    10     1     2    1
    11     1    23    1
    12    10    12    1
    13    10    11    1
    14    12    13    1
    15    25    23    2
    16    23    24    2
    17    23    26    1
    18    13    14    2
    19    13    22    1
    20    27    26    1
    21    26    28    1
    22    14    15    1
    23    22    18    2
    24    34    28    2
    25    34    33    1
    26    28    29    1
    27    15    16    2
    28    33    31    2
    29    29    30    2
    30    18    16    1
    31    18    21    1
    32    16    17    1
    33    31    30    1
    34    31    32    1
    35    21    20    2
    36    17    19    2
    37    20    19    1
