@<TRIPOS>MOLECULE
19893_out_ligand_01.pdbqt
 35 38 0 0 0
SMALL
GASTEIGER

@<TRIPOS>ATOM
      1  C         17.6860  -23.6560   -8.5190 C.2     1  UNL1        0.0810
      2  C         19.0400  -24.0100   -8.3890 C.2     1  UNL1        0.0420
      3  C         19.9880  -23.5190   -9.2920 C.2     1  UNL1        0.0330
      4  C         19.5830  -22.6660  -10.3210 C.2     1  UNL1        0.0170
      5  C         18.2380  -22.3100  -10.4480 C.2     1  UNL1        0.0090
      6  C         17.2690  -22.7840   -9.5460 C.2     1  UNL1       -0.0390
      7  C         15.8460  -22.3500   -9.7580 C.3     1  UNL1        0.0500
      8  C         21.4180  -23.8750   -9.0850 C.2     1  UNL1        0.2510
      9  O         21.7040  -24.9720   -8.6200 O.2     1  UNL1       -0.2680
     10  N         22.3460  -22.9220   -9.4350 N.am    1  UNL1       -0.3530
     11  H         22.0610  -22.1120   -9.9650 H       1  UNL1        0.1630
     12  C         23.7670  -23.1730   -9.3320 C.3     1  UNL1        0.1620
     13  C         24.4610  -22.9150  -10.6460 C.2     1  UNL1       -0.0290
     14  C         25.8000  -23.3250  -10.7500 C.2     1  UNL1        0.0100
     15  C         26.5260  -23.1040  -11.9140 C.2     1  UNL1        0.0020
     16  C         25.9180  -22.4800  -12.9970 C.2     1  UNL1        0.0120
     17  C         24.5750  -22.0780  -12.9390 C.2     1  UNL1       -0.0250
     18  C         23.9820  -21.4510  -14.0480 C.2     1  UNL1        0.0120
     19  C         23.8180  -22.3040  -11.7580 C.2     1  UNL1       -0.0180
     20  C         22.6470  -21.0520  -14.0180 C.2     1  UNL1        0.0010
     21  C         21.8830  -21.2880  -12.8840 C.2     1  UNL1        0.0010
     22  C         22.4600  -21.9030  -11.7700 C.2     1  UNL1        0.0130
     23  S         16.5490  -24.3240   -7.3140 S.O2    1  UNL1        0.2460
     24  O         15.4380  -24.9330   -8.0140 O.2     1  UNL1       -0.2060
     25  O         17.3420  -25.0830   -6.3650 O.2     1  UNL1       -0.2060
     26  N         16.0220  -22.9450   -6.4820 N.pl3   1  UNL1       -0.1810
     27  H         15.7420  -22.2640   -7.1830 H       1  UNL1        0.1460
     28  C         16.8860  -22.4200   -5.4680 C.2     1  UNL1        0.0290
     29  C         16.6450  -22.6750   -4.1130 C.2     1  UNL1       -0.0400
     30  C         17.5200  -22.1180   -3.1650 C.2     1  UNL1        0.0090
     31  C         15.4960  -23.5270   -3.6530 C.3     1  UNL1        0.0500
     32  C         18.5910  -21.3080   -3.5600 C.2     1  UNL1        0.0070
     33  C         18.8220  -21.0510   -4.9130 C.2     1  UNL1       -0.0600
     34  C         19.9880  -20.2220   -5.3430 C.3     1  UNL1        0.0480
     35  C         17.9770  -21.6360   -5.8640 C.2     1  UNL1        0.0310
@<TRIPOS>BOND
     1    18    20    2
     2    18    17    1
     3    20    21    1
     4    16    17    2
     5    16    15    1
     6    17    19    1
     7    21    22    2
     8    15    14    2
     9    22    19    1
    10    19    13    2
    11    14    13    1
    12    13    12    1
    13     5     4    2
    14     5     6    1
    15     4     3    1
    16    11    10    1
    17     7     6    1
    18     6     1    2
    19    10    12    1
    20    10     8   am
    21     3     8    1
    22     3     2    2
    23     8     9    2
    24     1     2    1
    25     1    23    1
    26    24    23    2
    27    23    26    1
    28    23    25    2
    29    27    26    1
    30    26    28    1
    31    35    28    2
    32    35    33    1
    33    28    29    1
    34    34    33    1
    35    33    32    2
    36    29    31    1
    37    29    30    2
    38    32    30    1
