@<TRIPOS>MOLECULE
19894_out_ligand_01.pdbqt
 34 37 0 0 0
SMALL
GASTEIGER

@<TRIPOS>ATOM
      1  C         17.7630  -23.3750   -8.7910 C.2     1  UNL1        0.0860
      2  C         19.1470  -23.6170   -8.7440 C.2     1  UNL1        0.0420
      3  C         20.0000  -23.0330   -9.6840 C.2     1  UNL1        0.0330
      4  C         19.4690  -22.2100  -10.6790 C.2     1  UNL1        0.0170
      5  C         18.0940  -21.9590  -10.7220 C.2     1  UNL1        0.0090
      6  C         17.2190  -22.5370   -9.7850 C.2     1  UNL1       -0.0390
      7  C         15.7570  -22.2030   -9.8880 C.3     1  UNL1        0.0500
      8  C         21.4550  -23.3320   -9.6050 C.2     1  UNL1        0.2510
      9  O         21.8390  -24.3650   -9.0720 O.2     1  UNL1       -0.2680
     10  N         22.2990  -22.3750  -10.1280 N.am    1  UNL1       -0.3530
     11  H         21.9270  -21.4560  -10.3170 H       1  UNL1        0.1630
     12  C         23.7320  -22.4680   -9.9550 C.3     1  UNL1        0.1610
     13  C         24.4500  -21.8370  -11.1200 C.2     1  UNL1       -0.0400
     14  C         25.5880  -21.0510  -10.9040 C.2     1  UNL1        0.0100
     15  C         26.2420  -20.4390  -11.9750 C.2     1  UNL1        0.0130
     16  C         25.7710  -20.5960  -13.2870 C.2     1  UNL1       -0.0260
     17  C         26.4170  -19.9870  -14.3750 C.2     1  UNL1        0.0120
     18  C         24.6200  -21.3830  -13.5180 C.2     1  UNL1       -0.0250
     19  C         25.9360  -20.1510  -15.6730 C.2     1  UNL1        0.0010
     20  C         24.8030  -20.9260  -15.9030 C.2     1  UNL1        0.0010
     21  C         24.1480  -21.5380  -14.8320 C.2     1  UNL1        0.0120
     22  C         23.9710  -21.9920  -12.4300 C.2     1  UNL1        0.0210
     23  S         16.7620  -24.1410   -7.5190 S.O2    1  UNL1        0.2630
     24  O         17.6330  -24.8990   -6.6450 O.2     1  UNL1       -0.2000
     25  O         15.6390  -24.7910   -8.1620 O.2     1  UNL1       -0.2000
     26  N         16.2120  -22.8270   -6.6160 N.pl3   1  UNL1       -0.2800
     27  H         15.1980  -22.7840   -6.5620 H       1  UNL1        0.1790
     28  C         16.9820  -22.3230   -5.5260 C.2     1  UNL1        0.0480
     29  C         18.0980  -21.5190   -5.7760 C.2     1  UNL1        0.0300
     30  C         18.8840  -21.0490   -4.7240 C.2     1  UNL1        0.0020
     31  C         18.5490  -21.3700   -3.4120 C.2     1  UNL1        0.0010
     32  C         17.4240  -22.1510   -3.1530 C.2     1  UNL1        0.0090
     33  C         16.6210  -22.6300   -4.2020 C.2     1  UNL1       -0.0350
     34  C         15.4250  -23.4760   -3.8690 C.3     1  UNL1        0.0500
@<TRIPOS>BOND
     1    20    19    2
     2    20    21    1
     3    19    17    1
     4    21    18    2
     5    17    16    2
     6    18    16    1
     7    18    22    1
     8    16    15    1
     9    22    13    2
    10    15    14    2
    11    13    14    1
    12    13    12    1
    13     5     4    2
    14     5     6    1
    15     4     3    1
    16    11    10    1
    17    10    12    1
    18    10     8   am
    19     7     6    1
    20     6     1    2
    21     3     8    1
    22     3     2    2
    23     8     9    2
    24     1     2    1
    25     1    23    1
    26    25    23    2
    27    23    24    2
    28    23    26    1
    29    26    27    1
    30    26    28    1
    31    29    28    2
    32    29    30    1
    33    28    33    1
    34    30    31    2
    35    33    34    1
    36    33    32    2
    37    31    32    1
