@<TRIPOS>MOLECULE
19898_out_ligand_01.pdbqt
 35 38 0 0 0
SMALL
GASTEIGER

@<TRIPOS>ATOM
      1  C         17.6640  -23.6120   -8.5840 C.2     1  UNL1        0.0860
      2  C         19.0450  -23.8790   -8.5280 C.2     1  UNL1        0.0420
      3  C         19.9090  -23.3210   -9.4730 C.2     1  UNL1        0.0330
      4  C         19.4000  -22.4940  -10.4770 C.2     1  UNL1        0.0170
      5  C         18.0310  -22.2190  -10.5270 C.2     1  UNL1        0.0090
      6  C         17.1400  -22.7720   -9.5880 C.2     1  UNL1       -0.0390
      7  C         15.6840  -22.4170   -9.7070 C.3     1  UNL1        0.0500
      8  C         21.3570  -23.6480   -9.4080 C.2     1  UNL1        0.2510
      9  O         21.7340  -24.6720   -8.8540 O.2     1  UNL1       -0.2680
     10  N         22.1970  -22.7240   -9.9890 N.am    1  UNL1       -0.3530
     11  H         21.8280  -21.8140  -10.2200 H       1  UNL1        0.1630
     12  C         23.6350  -22.8560   -9.9100 C.3     1  UNL1        0.1610
     13  C         24.3360  -22.1050  -11.0140 C.2     1  UNL1       -0.0400
     14  C         25.4230  -21.2660  -10.7400 C.2     1  UNL1        0.0100
     15  C         26.0570  -20.5670  -11.7690 C.2     1  UNL1        0.0130
     16  C         25.6130  -20.6780  -13.0960 C.2     1  UNL1       -0.0260
     17  C         26.2360  -19.9770  -14.1410 C.2     1  UNL1        0.0120
     18  C         24.5110  -21.5160  -13.3870 C.2     1  UNL1       -0.0250
     19  C         25.7740  -20.0910  -15.4520 C.2     1  UNL1        0.0010
     20  C         24.6850  -20.9100  -15.7380 C.2     1  UNL1        0.0010
     21  C         24.0590  -21.6230  -14.7130 C.2     1  UNL1        0.0120
     22  C         23.8910  -22.2230  -12.3420 C.2     1  UNL1        0.0210
     23  S         16.6440  -24.3520   -7.3090 S.O2    1  UNL1        0.2630
     24  O         15.5380  -25.0250   -7.9600 O.2     1  UNL1       -0.2000
     25  O         17.5010  -25.0810   -6.3960 O.2     1  UNL1       -0.2000
     26  N         16.0680  -23.0180   -6.4450 N.pl3   1  UNL1       -0.2800
     27  H         15.0660  -23.0660   -6.2770 H       1  UNL1        0.1790
     28  C         16.8930  -22.4020   -5.4560 C.2     1  UNL1        0.0490
     29  C         16.6550  -22.6320   -4.0910 C.2     1  UNL1       -0.0350
     30  C         17.5410  -22.0800   -3.1530 C.2     1  UNL1        0.0090
     31  C         15.5030  -23.4620   -3.6030 C.3     1  UNL1        0.0500
     32  C         18.6270  -21.3030   -3.5620 C.2     1  UNL1        0.0070
     33  C         18.8330  -21.0350   -4.9170 C.2     1  UNL1       -0.0600
     34  C         20.0160  -20.2290   -5.3680 C.3     1  UNL1        0.0480
     35  C         17.9610  -21.5930   -5.8570 C.2     1  UNL1        0.0370
@<TRIPOS>BOND
     1    20    19    2
     2    20    21    1
     3    19    17    1
     4    21    18    2
     5    17    16    2
     6    18    16    1
     7    18    22    1
     8    16    15    1
     9    22    13    2
    10    15    14    2
    11    13    14    1
    12    13    12    1
    13     5     4    2
    14     5     6    1
    15     4     3    1
    16    11    10    1
    17    10    12    1
    18    10     8   am
    19     7     6    1
    20     6     1    2
    21     3     8    1
    22     3     2    2
    23     8     9    2
    24     1     2    1
    25     1    23    1
    26    24    23    2
    27    23    26    1
    28    23    25    2
    29    26    27    1
    30    26    28    1
    31    35    28    2
    32    35    33    1
    33    28    29    1
    34    34    33    1
    35    33    32    2
    36    29    31    1
    37    29    30    2
    38    32    30    1
