@<TRIPOS>MOLECULE
1990_out_ligand_01.pdbqt
 29 32 0 0 0
SMALL
GASTEIGER

@<TRIPOS>ATOM
      1  C         18.8710  -22.1580  -10.1970 C.2     1  UNL1        0.0330
      2  C         18.6330  -21.3210  -11.3170 C.2     1  UNL1        0.0180
      3  C         19.6550  -21.0390  -12.2320 C.2     1  UNL1        0.0190
      4  C         20.8880  -21.6160  -11.9990 C.2     1  UNL1        0.0480
      5  C         21.1190  -22.4460  -10.9160 C.2     1  UNL1        0.0490
      6  C         20.1310  -22.7430   -9.9980 C.2     1  UNL1        0.0350
      7  C         22.5140  -22.8800  -10.9830 C.2     1  UNL1        0.2620
      8  O         23.0480  -23.6090  -10.1710 O.2     1  UNL1       -0.2670
      9  N         23.0470  -22.2970  -12.0990 N.am    1  UNL1       -0.2760
     10  C         22.1350  -21.5230  -12.7580 C.2     1  UNL1        0.2620
     11  O         22.2700  -20.8610  -13.7700 O.2     1  UNL1       -0.2670
     12  C         17.7870  -22.4760   -9.2240 C.2     1  UNL1        0.2560
     13  O         16.6760  -22.7240   -9.6710 O.2     1  UNL1       -0.2670
     14  N         18.1790  -22.4900   -7.8980 N.am    1  UNL1       -0.3230
     15  H         19.1670  -22.3910   -7.7050 H       1  UNL1        0.1690
     16  C         17.3620  -22.7190   -6.7710 C.2     1  UNL1        0.0350
     17  C         16.0310  -22.2990   -6.6730 C.2     1  UNL1        0.0320
     18  C         15.2890  -22.5620   -5.5160 C.2     1  UNL1        0.0440
     19  C         15.8790  -23.2410   -4.4590 C.2     1  UNL1        0.1160
     20  F         15.1680  -23.4910   -3.3520 F       1  UNL1       -0.2060
     21  C         17.2000  -23.6630   -4.5350 C.2     1  UNL1        0.0440
     22  C         17.9400  -23.4000   -5.6900 C.2     1  UNL1        0.0320
     23  C         24.4070  -22.5050  -12.5420 C.3     1  UNL1        0.1750
     24  C         25.2510  -21.2780  -12.3330 C.2     1  UNL1       -0.0220
     25  C         25.7180  -20.5200  -13.4110 C.2     1  UNL1        0.0120
     26  C         26.5140  -19.4030  -13.1760 C.2     1  UNL1        0.0200
     27  C         26.8250  -19.0840  -11.8650 C.2     1  UNL1        0.1160
     28  N         26.4040  -19.7980  -10.8000 N.2     1  UNL1       -0.2730
     29  C         25.6340  -20.8790  -11.0560 C.2     1  UNL1        0.1240
@<TRIPOS>BOND
     1    11    10    2
     2    25    26    1
     3    25    24    2
     4    26    27    2
     5    10     9   am
     6    10     4    1
     7    23    24    1
     8    23     9    1
     9    24    29    1
    10     3     4    2
    11     3     2    1
    12     9     7   am
    13     4     5    1
    14    27    28    1
    15     2     1    2
    16    29    28    2
    17     7     5    1
    18     7     8    2
    19     5     6    2
    20     1     6    1
    21     1    12    1
    22    13    12    2
    23    12    14   am
    24    14    15    1
    25    14    16    1
    26    16    17    2
    27    16    22    1
    28    17    18    1
    29    22    21    2
    30    18    19    2
    31    21    19    1
    32    19    20    1
