@<TRIPOS>MOLECULE
19906_out_ligand_01.pdbqt
 34 37 0 0 0
SMALL
GASTEIGER

@<TRIPOS>ATOM
      1  C         15.4500  -22.4590   -9.6200 C.3     1  UNL1        0.0500
      2  C         16.9200  -22.7740   -9.5980 C.2     1  UNL1       -0.0390
      3  C         17.7310  -22.2360  -10.6130 C.2     1  UNL1        0.0090
      4  C         19.1050  -22.4830  -10.6450 C.2     1  UNL1        0.0170
      5  C         19.7000  -23.2600   -9.6470 C.2     1  UNL1        0.0330
      6  C         18.9120  -23.8100   -8.6320 C.2     1  UNL1        0.0420
      7  C         17.5290  -23.5670   -8.6050 C.2     1  UNL1        0.0810
      8  C         21.1530  -23.5680   -9.6620 C.2     1  UNL1        0.2520
      9  O         21.5720  -24.5410   -9.0470 O.2     1  UNL1       -0.2680
     10  N         21.9480  -22.6990  -10.3740 N.am    1  UNL1       -0.3490
     11  H         21.5290  -21.9270  -10.8690 H       1  UNL1        0.1630
     12  C         23.3390  -23.0000  -10.6700 C.3     1  UNL1        0.1140
     13  C         24.2520  -22.3820   -9.6090 C.3     1  UNL1        0.0370
     14  C         23.6470  -22.5480  -12.0880 C.2     1  UNL1       -0.0350
     15  C         22.7460  -21.6890  -12.7400 C.2     1  UNL1        0.0100
     16  C         23.0030  -21.2180  -14.0290 C.2     1  UNL1        0.0080
     17  C         24.1710  -21.5990  -14.6890 C.2     1  UNL1       -0.0520
     18  C         25.0940  -22.4370  -14.0440 C.2     1  UNL1       -0.0510
     19  C         24.5070  -21.0940  -16.0660 C.3     1  UNL1        0.0390
     20  C         24.8350  -22.9000  -12.7480 C.2     1  UNL1        0.0170
     21  C         26.3820  -22.7510  -14.7580 C.3     1  UNL1        0.0390
     22  C         26.1450  -23.0800  -16.2330 C.3     1  UNL1        0.0050
     23  C         25.0820  -22.2180  -16.9290 C.3     1  UNL1        0.0050
     24  S         16.5880  -24.2980   -7.2700 S.O2    1  UNL1        0.2460
     25  O         15.4520  -24.9840   -7.8490 O.2     1  UNL1       -0.2060
     26  O         17.5130  -24.9770   -6.3910 O.2     1  UNL1       -0.2060
     27  N         15.9740  -22.8910   -6.5210 N.pl3   1  UNL1       -0.1810
     28  H         15.0500  -23.1220   -6.1480 H       1  UNL1        0.1460
     29  C         16.8230  -22.3660   -5.4910 C.2     1  UNL1        0.0220
     30  C         16.5410  -22.6330   -4.1500 C.2     1  UNL1        0.0240
     31  C         17.3930  -22.1540   -3.1530 C.2     1  UNL1        0.0020
     32  C         18.5290  -21.4210   -3.4980 C.2     1  UNL1        0.0000
     33  C         18.8180  -21.1720   -4.8400 C.2     1  UNL1        0.0020
     34  C         17.9680  -21.6500   -5.8390 C.2     1  UNL1        0.0240
@<TRIPOS>BOND
     1    23    22    1
     2    23    19    1
     3    22    21    1
     4    19    17    1
     5    21    18    1
     6    17    18    2
     7    17    16    1
     8    18    20    1
     9    16    15    2
    10    20    14    2
    11    15    14    1
    12    14    12    1
    13    11    10    1
    14    12    10    1
    15    12    13    1
    16     4     3    1
    17     4     5    2
    18     3     2    2
    19    10     8   am
    20     8     5    1
    21     8     9    2
    22     5     6    1
    23     1     2    1
    24     2     7    1
    25     6     7    2
    26     7    24    1
    27    25    24    2
    28    24    27    1
    29    24    26    2
    30    27    28    1
    31    27    29    1
    32    34    29    2
    33    34    33    1
    34    29    30    1
    35    33    32    2
    36    30    31    2
    37    32    31    1
