@<TRIPOS>MOLECULE
19909_out_ligand_01.pdbqt
 35 38 0 0 0
SMALL
GASTEIGER

@<TRIPOS>ATOM
      1  C         18.7870  -22.2290  -10.4070 C.2     1  UNL1        0.0810
      2  C         20.1180  -22.6570  -10.2830 C.2     1  UNL1        0.0420
      3  C         21.1250  -22.0740  -11.0620 C.2     1  UNL1        0.0330
      4  C         20.8000  -21.0360  -11.9380 C.2     1  UNL1        0.0170
      5  C         19.4750  -20.6060  -12.0570 C.2     1  UNL1        0.0090
      6  C         18.4470  -21.2020  -11.3080 C.2     1  UNL1       -0.0390
      7  C         17.0470  -20.6800  -11.4780 C.3     1  UNL1        0.0500
      8  C         22.5180  -22.5810  -10.9090 C.2     1  UNL1        0.2520
      9  O         22.7350  -23.5820  -10.2370 O.2     1  UNL1       -0.2680
     10  N         23.4990  -21.8990  -11.5930 N.am    1  UNL1       -0.3490
     11  H         23.2400  -21.2090  -12.2840 H       1  UNL1        0.1630
     12  C         24.8770  -22.3670  -11.6180 C.3     1  UNL1        0.1140
     13  C         25.7620  -21.5500  -10.6730 C.3     1  UNL1        0.0370
     14  C         25.3730  -22.3710  -13.0550 C.2     1  UNL1       -0.0350
     15  C         26.5790  -21.7200  -13.3670 C.2     1  UNL1        0.0100
     16  C         27.0870  -21.7320  -14.6670 C.2     1  UNL1        0.0080
     17  C         26.3920  -22.3890  -15.6810 C.2     1  UNL1       -0.0520
     18  C         25.1920  -23.0550  -15.3860 C.2     1  UNL1       -0.0510
     19  C         26.9170  -22.4570  -17.0890 C.3     1  UNL1        0.0390
     20  C         24.6970  -23.0580  -14.0780 C.2     1  UNL1        0.0170
     21  C         24.4960  -23.7900  -16.5010 C.3     1  UNL1        0.0390
     22  C         24.4720  -22.9440  -17.7760 C.3     1  UNL1        0.0050
     23  C         25.7980  -22.2430  -18.1110 C.3     1  UNL1        0.0050
     24  S         17.5620  -23.0260   -9.3740 S.O2    1  UNL1        0.2460
     25  O         16.8250  -21.9930   -8.6760 O.2     1  UNL1       -0.2060
     26  O         16.8940  -24.0330  -10.1670 O.2     1  UNL1       -0.2060
     27  N         18.5740  -23.7580   -8.2060 N.pl3   1  UNL1       -0.1810
     28  H         19.5180  -23.7610   -8.5940 H       1  UNL1        0.1460
     29  C         18.5570  -23.0930   -6.9340 C.2     1  UNL1        0.0220
     30  C         19.2670  -21.9060   -6.7570 C.2     1  UNL1        0.0250
     31  C         19.2160  -21.2420   -5.5280 C.2     1  UNL1        0.0080
     32  C         18.4400  -21.7510   -4.4810 C.2     1  UNL1       -0.0620
     33  C         18.3920  -21.0540   -3.1530 C.3     1  UNL1        0.0480
     34  C         17.7220  -22.9360   -4.6750 C.2     1  UNL1        0.0080
     35  C         17.7730  -23.6010   -5.9020 C.2     1  UNL1        0.0250
@<TRIPOS>BOND
     1    23    22    1
     2    23    19    1
     3    22    21    1
     4    19    17    1
     5    21    18    1
     6    17    18    2
     7    17    16    1
     8    18    20    1
     9    16    15    2
    10    20    14    2
    11    15    14    1
    12    14    12    1
    13    11    10    1
    14     5     4    2
    15     5     6    1
    16     4     3    1
    17    12    10    1
    18    12    13    1
    19    10     8   am
    20     7     6    1
    21     6     1    2
    22     3     8    1
    23     3     2    2
    24     8     9    2
    25     1     2    1
    26     1    24    1
    27    26    24    2
    28    24    25    2
    29    24    27    1
    30    28    27    1
    31    27    29    1
    32    29    30    2
    33    29    35    1
    34    30    31    1
    35    35    34    2
    36    31    32    2
    37    34    32    1
    38    32    33    1
