@<TRIPOS>MOLECULE
19902_out_ligand_01.pdbqt
 33 36 0 0 0
SMALL
GASTEIGER

@<TRIPOS>ATOM
      1  C         20.8060  -23.7290   -9.1230 C.3     1  UNL1        0.0510
      2  C         20.6690  -22.7760  -10.2810 C.2     1  UNL1       -0.0240
      3  C         21.7120  -22.5760  -11.2060 C.2     1  UNL1        0.0290
      4  C         21.5760  -21.6460  -12.2470 C.2     1  UNL1        0.0250
      5  C         20.4070  -20.9070  -12.3960 C.2     1  UNL1        0.0030
      6  C         19.3510  -21.1140  -11.5170 C.2     1  UNL1        0.0170
      7  C         19.4690  -22.0560  -10.4850 C.2     1  UNL1        0.0390
      8  C         18.2600  -22.2470   -9.6450 C.2     1  UNL1        0.2520
      9  O         17.9910  -21.4460   -8.7600 O.2     1  UNL1       -0.2680
     10  N         17.4710  -23.3190   -9.9960 N.am    1  UNL1       -0.3490
     11  H         17.6710  -23.8110  -10.8560 H       1  UNL1        0.1630
     12  C         16.1850  -23.5660   -9.3650 C.3     1  UNL1        0.1140
     13  C         15.1380  -22.5360   -9.7990 C.3     1  UNL1        0.0370
     14  C         16.3820  -23.6260   -7.8580 C.2     1  UNL1       -0.0350
     15  C         17.4500  -24.3930   -7.3370 C.2     1  UNL1        0.0100
     16  C         17.6970  -24.4610   -5.9630 C.2     1  UNL1        0.0080
     17  C         16.8790  -23.7390   -5.1130 C.2     1  UNL1       -0.0520
     18  C         15.8260  -22.9680   -5.6110 C.2     1  UNL1       -0.0510
     19  C         16.9190  -23.6890   -3.6170 C.3     1  UNL1        0.0390
     20  C         15.5670  -22.9010   -6.9720 C.2     1  UNL1        0.0170
     21  C         15.0590  -22.3280   -4.4950 C.3     1  UNL1        0.0390
     22  C         16.0600  -22.4450   -3.3370 C.3     1  UNL1        0.0090
     23  N         22.9590  -23.2880  -11.1180 N.pl3   1  UNL1       -0.1810
     24  H         22.8490  -24.2390  -10.7670 H       1  UNL1        0.1460
     25  S         24.1640  -22.5130  -10.1870 S.O2    1  UNL1        0.2450
     26  O         24.9010  -23.5500   -9.4950 O.2     1  UNL1       -0.2060
     27  O         23.6050  -21.3720   -9.4940 O.2     1  UNL1       -0.2060
     28  C         25.2030  -21.8840  -11.4860 C.2     1  UNL1        0.0740
     29  C         25.1950  -22.4880  -12.7470 C.2     1  UNL1        0.0250
     30  C         26.0240  -21.9860  -13.7530 C.2     1  UNL1        0.0020
     31  C         26.8570  -20.8970  -13.4930 C.2     1  UNL1        0.0000
     32  C         26.8700  -20.3050  -12.2280 C.2     1  UNL1        0.0020
     33  C         26.0440  -20.7980  -11.2180 C.2     1  UNL1        0.0250
@<TRIPOS>BOND
     1    30    31    2
     2    30    29    1
     3    31    32    1
     4    29    28    2
     5     5     4    2
     6     5     6    1
     7     4     3    1
     8    32    33    2
     9     6     7    2
    10    28    33    1
    11    28    25    1
    12     3    23    1
    13     3     2    2
    14    23    24    1
    15    23    25    1
    16    11    10    1
    17     7     2    1
    18     7     8    1
    19     2     1    1
    20    25    26    2
    21    25    27    2
    22    10     8   am
    23    10    12    1
    24    13    12    1
    25     8     9    2
    26    12    14    1
    27    14    15    2
    28    14    20    1
    29    15    16    1
    30    20    18    2
    31    16    17    2
    32    18    17    1
    33    18    21    1
    34    17    19    1
    35    21    22    1
    36    19    22    1
