@<TRIPOS>MOLECULE
19905_out_ligand_01.pdbqt
 35 38 0 0 0
SMALL
GASTEIGER

@<TRIPOS>ATOM
      1  C         23.0510  -21.5700  -10.2640 C.2     1  UNL1        0.0290
      2  C         23.4270  -21.4670   -8.9170 C.2     1  UNL1        0.0250
      3  C         22.5800  -21.9040   -7.9000 C.2     1  UNL1        0.0030
      4  C         21.3390  -22.4390   -8.2230 C.2     1  UNL1        0.0170
      5  C         20.9390  -22.5150   -9.5660 C.2     1  UNL1        0.0390
      6  C         21.7770  -22.0660  -10.6100 C.2     1  UNL1       -0.0240
      7  C         21.3340  -22.1670  -12.0480 C.3     1  UNL1        0.0510
      8  C         19.6070  -23.1060   -9.8400 C.2     1  UNL1        0.2520
      9  O         19.4970  -24.2950  -10.1100 O.2     1  UNL1       -0.2680
     10  N         18.5610  -22.2110   -9.7680 N.am    1  UNL1       -0.3490
     11  H         18.7520  -21.2780   -9.4250 H       1  UNL1        0.1630
     12  C         17.1810  -22.6630   -9.7410 C.3     1  UNL1        0.1140
     13  C         16.2570  -21.5930  -10.3250 C.3     1  UNL1        0.0370
     14  C         16.7940  -23.0430   -8.3210 C.2     1  UNL1       -0.0330
     15  C         15.9820  -24.1700   -8.0970 C.2     1  UNL1        0.0120
     16  C         15.6320  -24.5540   -6.8010 C.2     1  UNL1        0.0400
     17  C         16.1010  -23.8250   -5.7120 C.2     1  UNL1        0.1020
     18  C         16.9020  -22.6960   -5.9180 C.2     1  UNL1        0.1020
     19  O         15.7370  -24.2710   -4.4670 O.2     1  UNL1       -0.3460
     20  C         17.2550  -22.3130   -7.2110 C.2     1  UNL1        0.0490
     21  O         17.3910  -21.9230   -4.8940 O.2     1  UNL1       -0.3460
     22  C         16.7070  -22.1930   -3.6650 C.3     1  UNL1        0.2020
     23  C         16.5600  -23.6910   -3.4480 C.3     1  UNL1        0.2020
     24  N         23.9670  -21.1210  -11.2760 N.pl3   1  UNL1       -0.1810
     25  H         23.5450  -20.8260  -12.1540 H       1  UNL1        0.1460
     26  S         25.3180  -22.1150  -11.5730 S.O2    1  UNL1        0.2450
     27  O         25.1360  -23.3480  -10.8380 O.2     1  UNL1       -0.2060
     28  O         26.5270  -21.3280  -11.4600 O.2     1  UNL1       -0.2060
     29  C         25.0730  -22.4750  -13.2970 C.2     1  UNL1        0.0740
     30  C         24.5770  -21.4880  -14.1520 C.2     1  UNL1        0.0250
     31  C         24.3870  -21.7840  -15.5020 C.2     1  UNL1        0.0080
     32  C         24.6960  -23.0580  -16.0020 C.2     1  UNL1       -0.0620
     33  C         24.4600  -23.3890  -17.4470 C.3     1  UNL1        0.0480
     34  C         25.1760  -24.0430  -15.1260 C.2     1  UNL1        0.0080
     35  C         25.3650  -23.7560  -13.7740 C.2     1  UNL1        0.0250
@<TRIPOS>BOND
     1    33    32    1
     2    32    31    2
     3    32    34    1
     4    31    30    1
     5    34    35    2
     6    30    29    2
     7    35    29    1
     8    29    26    1
     9    25    24    1
    10     7     6    1
    11    26    28    2
    12    26    24    1
    13    26    27    2
    14    24     1    1
    15     6     1    2
    16     6     5    1
    17    13    12    1
    18     1     2    1
    19     9     8    2
    20     8    10   am
    21     8     5    1
    22    10    12    1
    23    10    11    1
    24    12    14    1
    25     5     4    2
    26     2     3    2
    27    14    15    2
    28    14    20    1
    29     4     3    1
    30    15    16    1
    31    20    18    2
    32    16    17    2
    33    18    17    1
    34    18    21    1
    35    17    19    1
    36    21    22    1
    37    19    23    1
    38    22    23    1
