@<TRIPOS>MOLECULE
19907_out_ligand_01.pdbqt
 35 38 0 0 0
SMALL
GASTEIGER

@<TRIPOS>ATOM
      1  C         17.7850  -23.3240   -8.8600 C.2     1  UNL1        0.0860
      2  C         19.1740  -23.5400   -8.8780 C.2     1  UNL1        0.0420
      3  C         19.9610  -22.9980   -9.8940 C.2     1  UNL1        0.0330
      4  C         19.3600  -22.2500  -10.9070 C.2     1  UNL1        0.0170
      5  C         17.9800  -22.0260  -10.8860 C.2     1  UNL1        0.0090
      6  C         17.1700  -22.5530   -9.8630 C.2     1  UNL1       -0.0390
      7  C         15.6950  -22.2690   -9.9190 C.3     1  UNL1        0.0500
      8  C         21.4180  -23.2830   -9.8880 C.2     1  UNL1        0.2520
      9  O         21.8730  -24.1050   -9.1010 O.2     1  UNL1       -0.2680
     10  N         22.1760  -22.5700  -10.7890 N.am    1  UNL1       -0.3490
     11  H         21.7220  -21.9400  -11.4330 H       1  UNL1        0.1630
     12  C         23.5520  -22.9390  -11.0810 C.3     1  UNL1        0.1140
     13  C         24.5000  -22.3140  -10.0590 C.3     1  UNL1        0.0370
     14  C         23.8790  -22.5480  -12.5110 C.2     1  UNL1       -0.0350
     15  C         23.2610  -21.4240  -13.0780 C.2     1  UNL1        0.0100
     16  C         23.5710  -21.0160  -14.3760 C.2     1  UNL1        0.0080
     17  C         24.5140  -21.7170  -15.1390 C.2     1  UNL1       -0.0520
     18  C         25.1690  -22.8290  -14.5760 C.2     1  UNL1       -0.0510
     19  C         24.8520  -21.2170  -16.5220 C.3     1  UNL1        0.0390
     20  C         24.8360  -23.2400  -13.2730 C.2     1  UNL1        0.0170
     21  C         26.1890  -23.6220  -15.3570 C.3     1  UNL1        0.0390
     22  C         26.7360  -22.8730  -16.5710 C.3     1  UNL1        0.0050
     23  C         25.5990  -22.2510  -17.3690 C.3     1  UNL1        0.0050
     24  S         16.9000  -24.0840   -7.5050 S.O2    1  UNL1        0.2630
     25  O         15.7540  -24.7570   -8.0840 O.2     1  UNL1       -0.2000
     26  O         17.8040  -24.8110   -6.6460 O.2     1  UNL1       -0.2000
     27  N         16.2850  -22.7460   -6.6740 N.pl3   1  UNL1       -0.2800
     28  H         15.2680  -22.7710   -6.6270 H       1  UNL1        0.1790
     29  C         16.9930  -22.2780   -5.5330 C.2     1  UNL1        0.0480
     30  C         18.1160  -21.4690   -5.7310 C.2     1  UNL1        0.0300
     31  C         18.8720  -21.0360   -4.6440 C.2     1  UNL1        0.0020
     32  C         18.5060  -21.4120   -3.3550 C.2     1  UNL1        0.0010
     33  C         17.3830  -22.2160   -3.1530 C.2     1  UNL1        0.0090
     34  C         16.6100  -22.6580   -4.2390 C.2     1  UNL1       -0.0350
     35  C         15.4130  -23.5330   -3.9870 C.3     1  UNL1        0.0500
@<TRIPOS>BOND
     1    23    22    1
     2    23    19    1
     3    22    21    1
     4    19    17    1
     5    21    18    1
     6    17    18    2
     7    17    16    1
     8    18    20    1
     9    16    15    2
    10    20    14    2
    11    15    14    1
    12    14    12    1
    13    11    10    1
    14    12    10    1
    15    12    13    1
    16     4     5    2
    17     4     3    1
    18     5     6    1
    19    10     8   am
    20     7     6    1
    21     3     8    1
    22     3     2    2
    23     8     9    2
    24     6     1    2
    25     2     1    1
    26     1    24    1
    27    25    24    2
    28    24    27    1
    29    24    26    2
    30    27    28    1
    31    27    29    1
    32    30    29    2
    33    30    31    1
    34    29    34    1
    35    31    32    2
    36    34    35    1
    37    34    33    2
    38    32    33    1
