@<TRIPOS>MOLECULE
19908_out_ligand_01.pdbqt
 35 38 0 0 0
SMALL
GASTEIGER

@<TRIPOS>ATOM
      1  C         17.2170  -23.1210   -8.9510 C.2     1  UNL1        0.0810
      2  C         18.6030  -23.3460   -8.9430 C.2     1  UNL1        0.0420
      3  C         19.4000  -22.8710   -9.9900 C.2     1  UNL1        0.0330
      4  C         18.8110  -22.1630  -11.0400 C.2     1  UNL1        0.0170
      5  C         17.4310  -21.9450  -11.0510 C.2     1  UNL1        0.0090
      6  C         16.6120  -22.4120  -10.0070 C.2     1  UNL1       -0.0390
      7  C         15.1330  -22.1520  -10.0910 C.3     1  UNL1        0.0500
      8  C         20.8680  -23.1130   -9.9290 C.2     1  UNL1        0.2520
      9  O         21.3130  -23.9700   -9.1770 O.2     1  UNL1       -0.2680
     10  N         21.6460  -22.3490  -10.7700 N.am    1  UNL1       -0.3490
     11  H         21.1960  -21.8650  -11.5350 H       1  UNL1        0.1630
     12  C         23.0790  -22.5720  -10.8980 C.3     1  UNL1        0.1140
     13  C         23.8780  -21.7880   -9.8520 C.3     1  UNL1        0.0370
     14  C         23.5110  -22.2320  -12.3160 C.2     1  UNL1       -0.0350
     15  C         22.7060  -21.3990  -13.1090 C.2     1  UNL1        0.0100
     16  C         23.0980  -21.0480  -14.4030 C.2     1  UNL1        0.0080
     17  C         24.2970  -21.5320  -14.9280 C.2     1  UNL1       -0.0520
     18  C         25.1180  -22.3570  -14.1430 C.2     1  UNL1       -0.0510
     19  C         24.7790  -21.1430  -16.3000 C.3     1  UNL1        0.0390
     20  C         24.7290  -22.6940  -12.8430 C.2     1  UNL1        0.0170
     21  C         26.4300  -22.8130  -14.7250 C.3     1  UNL1        0.0390
     22  C         26.2480  -23.2700  -16.1720 C.3     1  UNL1        0.0050
     23  C         25.3950  -22.3330  -17.0400 C.3     1  UNL1        0.0050
     24  S         16.2670  -23.7800   -7.5850 S.O2    1  UNL1        0.2460
     25  O         15.6480  -25.0120   -8.0260 O.2     1  UNL1       -0.2060
     26  O         15.4870  -22.7000   -7.0230 O.2     1  UNL1       -0.2060
     27  N         17.5260  -24.2270   -6.5220 N.pl3   1  UNL1       -0.1810
     28  H         17.2760  -25.1340   -6.1250 H       1  UNL1        0.1460
     29  C         17.7700  -23.2720   -5.4800 C.2     1  UNL1        0.0230
     30  C         17.3700  -23.5570   -4.1760 C.2     1  UNL1        0.0240
     31  C         17.6440  -22.6510   -3.1530 C.2     1  UNL1        0.0020
     32  C         18.3250  -21.4650   -3.4330 C.2     1  UNL1        0.0070
     33  C         18.7370  -21.1740   -4.7390 C.2     1  UNL1       -0.0600
     34  C         19.5150  -19.9240   -5.0290 C.3     1  UNL1        0.0480
     35  C         18.4720  -22.0970   -5.7600 C.2     1  UNL1        0.0310
@<TRIPOS>BOND
     1    23    19    1
     2    23    22    1
     3    19    17    1
     4    22    21    1
     5    17    16    2
     6    17    18    1
     7    21    18    1
     8    16    15    1
     9    18    20    2
    10    15    14    2
    11    20    14    1
    12    14    12    1
    13    11    10    1
    14     5     4    2
    15     5     6    1
    16     4     3    1
    17    12    10    1
    18    12    13    1
    19    10     8   am
    20     7     6    1
    21     6     1    2
    22     3     8    1
    23     3     2    2
    24     8     9    2
    25     1     2    1
    26     1    24    1
    27    25    24    2
    28    24    26    2
    29    24    27    1
    30    27    28    1
    31    27    29    1
    32    35    29    2
    33    35    33    1
    34    29    30    1
    35    34    33    1
    36    33    32    2
    37    30    31    2
    38    32    31    1
