@<TRIPOS>MOLECULE
19904_out_ligand_01.pdbqt
 36 39 0 0 0
SMALL
GASTEIGER

@<TRIPOS>ATOM
      1  C         17.5230  -23.5220   -8.6650 C.2     1  UNL1        0.0810
      2  C         18.9170  -23.6830   -8.7160 C.2     1  UNL1        0.0420
      3  C         19.6640  -23.0710   -9.7280 C.2     1  UNL1        0.0330
      4  C         19.0110  -22.3110  -10.7020 C.2     1  UNL1        0.0170
      5  C         17.6240  -22.1430  -10.6460 C.2     1  UNL1        0.0090
      6  C         16.8570  -22.7450   -9.6330 C.2     1  UNL1       -0.0390
      7  C         15.3750  -22.4990   -9.6240 C.3     1  UNL1        0.0500
      8  C         21.1380  -23.2780   -9.7390 C.2     1  UNL1        0.2520
      9  O         21.6370  -24.1160   -8.9960 O.2     1  UNL1       -0.2680
     10  N         21.8620  -22.4700  -10.5870 N.am    1  UNL1       -0.3490
     11  H         21.3820  -21.8230  -11.1960 H       1  UNL1        0.1630
     12  C         23.2840  -22.6660  -10.8070 C.3     1  UNL1        0.1140
     13  C         24.0980  -21.7680   -9.8740 C.3     1  UNL1        0.0370
     14  C         23.6130  -22.4330  -12.2710 C.2     1  UNL1       -0.0330
     15  C         22.8680  -21.4980  -13.0080 C.2     1  UNL1        0.0120
     16  C         23.1470  -21.2600  -14.3570 C.2     1  UNL1        0.0400
     17  C         24.1830  -21.9470  -14.9810 C.2     1  UNL1        0.1020
     18  C         24.9650  -22.8480  -14.2490 C.2     1  UNL1        0.1020
     19  O         24.3870  -21.6810  -16.3130 O.2     1  UNL1       -0.3460
     20  C         24.6730  -23.1020  -12.9080 C.2     1  UNL1        0.0490
     21  O         26.0330  -23.5240  -14.7830 O.2     1  UNL1       -0.3460
     22  C         26.4430  -22.9430  -16.0280 C.3     1  UNL1        0.2020
     23  C         25.2370  -22.6640  -16.9140 C.3     1  UNL1        0.2020
     24  S         16.6530  -24.3230   -7.3190 S.O2    1  UNL1        0.2460
     25  O         15.5230  -25.0270   -7.8930 O.2     1  UNL1       -0.2060
     26  O         17.6260  -25.0050   -6.4970 O.2     1  UNL1       -0.2060
     27  N         16.0260  -22.9600   -6.4940 N.pl3   1  UNL1       -0.1810
     28  H         15.1260  -23.2330   -6.0940 H       1  UNL1        0.1460
     29  C         16.8990  -22.4500   -5.4690 C.2     1  UNL1        0.0290
     30  C         16.6620  -22.7330   -4.1160 C.2     1  UNL1       -0.0400
     31  C         17.5060  -22.1630   -3.1530 C.2     1  UNL1        0.0090
     32  C         15.5270  -23.6100   -3.6720 C.3     1  UNL1        0.0500
     33  C         18.5700  -21.3370   -3.5300 C.2     1  UNL1        0.0070
     34  C         18.8140  -21.0690   -4.8780 C.2     1  UNL1       -0.0600
     35  C         19.9260  -20.1480   -5.2850 C.3     1  UNL1        0.0480
     36  C         17.9630  -21.6190   -5.8420 C.2     1  UNL1        0.0310
@<TRIPOS>BOND
     1    23    19    1
     2    23    22    1
     3    19    17    1
     4    22    21    1
     5    17    16    2
     6    17    18    1
     7    21    18    1
     8    16    15    1
     9    18    20    2
    10    15    14    2
    11    20    14    1
    12    14    12    1
    13    11    10    1
    14    12    10    1
    15    12    13    1
    16     4     5    2
    17     4     3    1
    18     5     6    1
    19    10     8   am
    20     8     3    1
    21     8     9    2
    22     3     2    2
    23     6     7    1
    24     6     1    2
    25     2     1    1
    26     1    24    1
    27    25    24    2
    28    24    26    2
    29    24    27    1
    30    27    28    1
    31    27    29    1
    32    36    29    2
    33    36    34    1
    34    29    30    1
    35    35    34    1
    36    34    33    2
    37    30    32    1
    38    30    31    2
    39    33    31    1
