@<TRIPOS>MOLECULE
19903_out_ligand_01.pdbqt
 36 39 0 0 0
SMALL
GASTEIGER

@<TRIPOS>ATOM
      1  C         17.4980  -23.4980   -8.7540 C.2     1  UNL1        0.0860
      2  C         18.8930  -23.6800   -8.7830 C.2     1  UNL1        0.0420
      3  C         19.6740  -23.0880   -9.7820 C.2     1  UNL1        0.0330
      4  C         19.0600  -22.2690  -10.7300 C.2     1  UNL1        0.0170
      5  C         17.6760  -22.0700  -10.6940 C.2     1  UNL1        0.0090
      6  C         16.8700  -22.6830   -9.7140 C.2     1  UNL1       -0.0390
      7  C         15.3970  -22.3870   -9.7380 C.3     1  UNL1        0.0500
      8  C         21.1400  -23.3500   -9.7820 C.2     1  UNL1        0.2520
      9  O         21.6050  -24.2090   -9.0450 O.2     1  UNL1       -0.2680
     10  N         21.8930  -22.6300  -10.6770 N.am    1  UNL1       -0.3490
     11  H         21.4380  -22.0730  -11.3860 H       1  UNL1        0.1630
     12  C         23.3220  -22.8570  -10.8410 C.3     1  UNL1        0.1140
     13  C         24.1370  -22.1190   -9.7730 C.3     1  UNL1        0.0370
     14  C         23.7110  -22.4960  -12.2650 C.2     1  UNL1       -0.0350
     15  C         22.9120  -21.5930  -12.9820 C.2     1  UNL1        0.0100
     16  C         23.2650  -21.1980  -14.2730 C.2     1  UNL1        0.0080
     17  C         24.4330  -21.6840  -14.8750 C.2     1  UNL1       -0.0520
     18  C         25.2420  -22.5940  -14.1740 C.2     1  UNL1       -0.0510
     19  C         24.7570  -21.2640  -16.2880 C.3     1  UNL1        0.0390
     20  C         24.8850  -22.9720  -12.8690 C.2     1  UNL1        0.0170
     21  C         26.5220  -23.1290  -14.7680 C.3     1  UNL1        0.0390
     22  C         26.6010  -22.9660  -16.2850 C.3     1  UNL1        0.0050
     23  C         26.2010  -21.5550  -16.6930 C.3     1  UNL1        0.0050
     24  S         16.6390  -24.3010   -7.4040 S.O2    1  UNL1        0.2630
     25  O         15.4400  -24.8950   -7.9620 O.2     1  UNL1       -0.2000
     26  O         17.5630  -25.1140   -6.6430 O.2     1  UNL1       -0.2000
     27  N         16.1060  -23.0080   -6.4640 N.pl3   1  UNL1       -0.2800
     28  H         15.4380  -22.4130   -6.9520 H       1  UNL1        0.1790
     29  C         16.9400  -22.4310   -5.4640 C.2     1  UNL1        0.0490
     30  C         16.7220  -22.6940   -4.1020 C.2     1  UNL1       -0.0350
     31  C         17.5560  -22.0790   -3.1540 C.2     1  UNL1        0.0090
     32  C         15.6060  -23.5720   -3.6070 C.3     1  UNL1        0.0500
     33  C         18.6060  -21.2470   -3.5520 C.2     1  UNL1        0.0070
     34  C         18.8350  -21.0030   -4.9080 C.2     1  UNL1       -0.0600
     35  C         19.9930  -20.1530   -5.3450 C.3     1  UNL1        0.0480
     36  C         18.0050  -21.6110   -5.8560 C.2     1  UNL1        0.0370
@<TRIPOS>BOND
     1    23    19    1
     2    23    22    1
     3    19    17    1
     4    22    21    1
     5    17    16    2
     6    17    18    1
     7    21    18    1
     8    16    15    1
     9    18    20    2
    10    15    14    2
    11    20    14    1
    12    14    12    1
    13    11    10    1
    14    12    10    1
    15    12    13    1
    16     4     5    2
    17     4     3    1
    18     5     6    1
    19    10     8   am
    20     8     3    1
    21     8     9    2
    22     3     2    2
    23     7     6    1
    24     6     1    2
    25     2     1    1
    26     1    24    1
    27    25    24    2
    28    24    26    2
    29    24    27    1
    30    28    27    1
    31    27    29    1
    32    36    29    2
    33    36    34    1
    34    29    30    1
    35    35    34    1
    36    34    33    2
    37    30    32    1
    38    30    31    2
    39    33    31    1
