@<TRIPOS>MOLECULE
19914_out_ligand_01.pdbqt
 33 36 0 0 0
SMALL
GASTEIGER

@<TRIPOS>ATOM
      1  C         15.5890  -23.0370  -10.0240 C.3     1  UNL1        0.0500
      2  C         17.0370  -22.9180   -9.6390 C.2     1  UNL1       -0.0390
      3  C         17.9040  -22.2320  -10.5080 C.2     1  UNL1        0.0090
      4  C         19.2620  -22.0840  -10.2090 C.2     1  UNL1        0.0170
      5  C         19.7770  -22.6080   -9.0200 C.2     1  UNL1        0.0330
      6  C         18.9300  -23.2900   -8.1400 C.2     1  UNL1        0.0420
      7  C         17.5680  -23.4440   -8.4440 C.2     1  UNL1        0.0810
      8  C         21.2180  -22.5020   -8.6720 C.2     1  UNL1        0.2520
      9  O         21.5460  -22.1320   -7.5500 O.2     1  UNL1       -0.2680
     10  N         22.1130  -22.8130   -9.6700 N.am    1  UNL1       -0.3490
     11  H         21.7840  -22.9250  -10.6190 H       1  UNL1        0.1630
     12  C         23.5490  -22.6690   -9.4770 C.3     1  UNL1        0.1140
     13  C         24.1830  -23.9820   -9.0120 C.3     1  UNL1        0.0370
     14  C         24.1690  -22.1220  -10.7530 C.2     1  UNL1       -0.0350
     15  C         25.3560  -21.3580  -10.6660 C.2     1  UNL1        0.0100
     16  C         25.9560  -20.8110  -11.8030 C.2     1  UNL1        0.0080
     17  C         25.3480  -21.0160  -13.0280 C.2     1  UNL1       -0.0520
     18  C         24.1690  -21.7600  -13.1310 C.2     1  UNL1       -0.0510
     19  C         25.8130  -20.5650  -14.3760 C.3     1  UNL1        0.0390
     20  C         23.5700  -22.3150  -12.0100 C.2     1  UNL1        0.0170
     21  C         23.7370  -21.8790  -14.5600 C.3     1  UNL1        0.0390
     22  C         24.5320  -20.7350  -15.2060 C.3     1  UNL1        0.0090
     23  S         16.5530  -24.3200   -7.2590 S.O2    1  UNL1        0.2460
     24  O         15.4330  -24.8970   -7.9720 O.2     1  UNL1       -0.2060
     25  O         17.4200  -25.1310   -6.4340 O.2     1  UNL1       -0.2060
     26  N         15.9310  -23.0080   -6.3610 N.pl3   1  UNL1       -0.1810
     27  H         15.1000  -23.3470   -5.8730 H       1  UNL1        0.1460
     28  C         16.8680  -22.4530   -5.4280 C.2     1  UNL1        0.0220
     29  C         17.8300  -21.5400   -5.8590 C.2     1  UNL1        0.0240
     30  C         18.7090  -20.9700   -4.9360 C.2     1  UNL1        0.0020
     31  C         18.6160  -21.3060   -3.5850 C.2     1  UNL1        0.0000
     32  C         17.6400  -22.2030   -3.1550 C.2     1  UNL1        0.0020
     33  C         16.7590  -22.7710   -4.0760 C.2     1  UNL1        0.0240
@<TRIPOS>BOND
     1    22    21    1
     2    22    19    1
     3    21    18    1
     4    19    17    1
     5    18    17    2
     6    18    20    1
     7    17    16    1
     8    20    14    2
     9    16    15    2
    10    14    15    1
    11    14    12    1
    12    11    10    1
    13     3     4    1
    14     3     2    2
    15     4     5    2
    16     1     2    1
    17    10    12    1
    18    10     8   am
    19     2     7    1
    20    12    13    1
    21     5     8    1
    22     5     6    1
    23     8     9    2
    24     7     6    2
    25     7    23    1
    26    24    23    2
    27    23    25    2
    28    23    26    1
    29    26    27    1
    30    26    28    1
    31    29    28    2
    32    29    30    1
    33    28    33    1
    34    30    31    2
    35    33    32    2
    36    31    32    1
