@<TRIPOS>MOLECULE
19915_out_ligand_01.pdbqt
 34 37 0 0 0
SMALL
GASTEIGER

@<TRIPOS>ATOM
      1  C         17.5370  -23.3770   -8.8230 C.2     1  UNL1        0.0860
      2  C         18.9340  -23.5380   -8.8660 C.2     1  UNL1        0.0420
      3  C         19.6800  -23.0000   -9.9180 C.2     1  UNL1        0.0330
      4  C         19.0320  -22.2620  -10.9100 C.2     1  UNL1        0.0170
      5  C         17.6450  -22.0920  -10.8630 C.2     1  UNL1        0.0090
      6  C         16.8730  -22.6500   -9.8280 C.2     1  UNL1       -0.0390
      7  C         15.3880  -22.4230   -9.8560 C.3     1  UNL1        0.0500
      8  C         21.1530  -23.2240   -9.9280 C.2     1  UNL1        0.2520
      9  O         21.6430  -24.1110   -9.2390 O.2     1  UNL1       -0.2680
     10  N         21.8880  -22.4260  -10.7760 N.am    1  UNL1       -0.3490
     11  H         21.4110  -21.8760  -11.4770 H       1  UNL1        0.1630
     12  C         23.3180  -22.6260  -10.9650 C.3     1  UNL1        0.1140
     13  C         24.1390  -21.7660   -9.9990 C.3     1  UNL1        0.0370
     14  C         23.6620  -22.3730  -12.4240 C.2     1  UNL1       -0.0350
     15  C         22.9600  -21.4200  -13.1980 C.2     1  UNL1        0.0100
     16  C         23.2600  -21.2140  -14.5490 C.2     1  UNL1        0.0080
     17  C         24.2520  -21.9870  -15.1260 C.2     1  UNL1       -0.0520
     18  C         24.9480  -22.9410  -14.3780 C.2     1  UNL1       -0.0510
     19  C         24.7670  -21.9300  -16.5300 C.3     1  UNL1        0.0390
     20  C         24.6680  -23.1430  -13.0360 C.2     1  UNL1        0.0170
     21  C         25.9930  -23.6130  -15.2130 C.3     1  UNL1        0.0390
     22  C         25.5060  -23.2730  -16.6290 C.3     1  UNL1        0.0090
     23  S         16.7110  -24.1380   -7.4340 S.O2    1  UNL1        0.2630
     24  O         17.6500  -24.8650   -6.6100 O.2     1  UNL1       -0.2000
     25  O         15.5330  -24.7980   -7.9600 O.2     1  UNL1       -0.2000
     26  N         16.1390  -22.7960   -6.5760 N.pl3   1  UNL1       -0.2800
     27  H         15.1340  -22.8680   -6.4280 H       1  UNL1        0.1790
     28  C         16.9330  -22.2970   -5.5010 C.2     1  UNL1        0.0480
     29  C         18.0470  -21.5090   -5.8010 C.2     1  UNL1        0.0300
     30  C         18.8730  -21.0420   -4.7800 C.2     1  UNL1        0.0020
     31  C         18.5920  -21.3710   -3.4560 C.2     1  UNL1        0.0010
     32  C         17.4840  -22.1620   -3.1530 C.2     1  UNL1        0.0090
     33  C         16.6360  -22.6320   -4.1700 C.2     1  UNL1       -0.0350
     34  C         15.4730  -23.5120   -3.8070 C.3     1  UNL1        0.0500
@<TRIPOS>BOND
     1    22    19    1
     2    22    21    1
     3    19    17    1
     4    21    18    1
     5    17    16    2
     6    17    18    1
     7    16    15    1
     8    18    20    2
     9    15    14    2
    10    20    14    1
    11    14    12    1
    12    11    10    1
    13    12    10    1
    14    12    13    1
    15     4     5    2
    16     4     3    1
    17     5     6    1
    18    10     8   am
    19     8     3    1
    20     8     9    2
    21     3     2    2
    22     7     6    1
    23     6     1    2
    24     2     1    1
    25     1    23    1
    26    25    23    2
    27    23    24    2
    28    23    26    1
    29    26    27    1
    30    26    28    1
    31    29    28    2
    32    29    30    1
    33    28    33    1
    34    30    31    2
    35    33    34    1
    36    33    32    2
    37    31    32    1
