@<TRIPOS>MOLECULE
19912_out_ligand_01.pdbqt
 35 38 0 0 0
SMALL
GASTEIGER

@<TRIPOS>ATOM
      1  N         24.2510  -22.7880  -11.8600 N.am    1  UNL1       -0.3490
      2  C         23.6620  -22.0460  -10.8580 C.2     1  UNL1        0.2520
      3  O         24.2540  -21.2260  -10.1640 O.2     1  UNL1       -0.2680
      4  H         23.6400  -23.2400  -12.5250 H       1  UNL1        0.1630
      5  C         22.2080  -22.2700  -10.6610 C.2     1  UNL1        0.0320
      6  C         21.2540  -21.4310  -11.2490 C.2     1  UNL1        0.0170
      7  C         19.8940  -21.6760  -11.0430 C.2     1  UNL1        0.0100
      8  C         19.4690  -22.7480  -10.2400 C.2     1  UNL1       -0.0300
      9  C         20.4350  -23.5980   -9.6800 C.2     1  UNL1        0.0100
     10  C         21.7950  -23.3630   -9.8940 C.2     1  UNL1        0.0170
     11  C         17.9930  -23.0300  -10.0310 C.3     1  UNL1        0.3110
     12  N         17.5320  -22.7790   -8.6560 N.3     1  UNL1        0.0970
     13  C         17.0580  -24.0240   -8.0320 C.3     1  UNL1        0.2770
     14  C         16.3760  -23.7280   -6.6890 C.3     1  UNL1        0.0690
     15  C         17.2020  -22.8290   -5.8060 C.2     1  UNL1       -0.0490
     16  C         16.8990  -22.7080   -4.4440 C.2     1  UNL1        0.0070
     17  C         18.2410  -22.0630   -6.3640 C.2     1  UNL1       -0.0240
     18  C         17.6410  -21.8510   -3.6320 C.2     1  UNL1        0.0010
     19  C         18.6860  -21.1070   -4.1740 C.2     1  UNL1        0.0010
     20  C         18.9860  -21.2120   -5.5340 C.2     1  UNL1        0.0090
     21  C         18.6080  -22.1930   -7.8280 C.3     1  UNL1        0.3110
     22  C         25.6190  -22.5330  -12.2920 C.3     1  UNL1        0.1140
     23  C         26.3610  -23.8590  -12.4840 C.3     1  UNL1        0.0370
     24  C         25.6230  -21.6810  -13.5590 C.2     1  UNL1       -0.0290
     25  C         25.9760  -20.3180  -13.5470 C.2     1  UNL1       -0.0510
     26  C         25.9580  -19.5870  -14.7500 C.2     1  UNL1        0.0440
     27  C         26.3720  -19.5990  -12.2830 C.3     1  UNL1        0.0490
     28  C         25.5960  -20.1770  -15.9670 C.2     1  UNL1        0.0750
     29  C         25.2150  -21.5300  -15.9930 C.2     1  UNL1       -0.0210
     30  C         25.2450  -22.2600  -14.7880 C.2     1  UNL1        0.0200
     31  O         25.5810  -19.5180  -17.1690 O.2     1  UNL1       -0.3550
     32  C         26.3570  -18.3330  -17.2830 C.3     1  UNL1        0.2100
     33  C         24.8220  -22.2140  -17.2980 C.3     1  UNL1        0.0130
     34  C         24.0040  -23.4940  -17.0870 C.3     1  UNL1        0.0150
     35  C         26.0660  -22.4960  -18.1460 C.3     1  UNL1        0.0150
@<TRIPOS>BOND
     1    35    33    1
     2    33    34    1
     3    33    29    1
     4    32    31    1
     5    31    28    1
     6    29    28    2
     7    29    30    1
     8    28    26    1
     9    30    24    2
    10    26    25    2
    11    24    25    1
    12    24    22    1
    13    25    27    1
    14     4     1    1
    15    23    22    1
    16    22     1    1
    17     1     2   am
    18     6     7    1
    19     6     5    2
    20     7     8    2
    21     2     5    1
    22     2     3    2
    23     5    10    1
    24     8    11    1
    25     8     9    1
    26    11    12    1
    27    10     9    2
    28    12    13    1
    29    12    21    1
    30    13    14    1
    31    21    17    1
    32    14    15    1
    33    17    15    2
    34    17    20    1
    35    15    16    1
    36    20    19    2
    37    16    18    2
    38    19    18    1
