@<TRIPOS>MOLECULE
19917_out_ligand_01.pdbqt
 35 38 0 0 0
SMALL
GASTEIGER

@<TRIPOS>ATOM
      1  C         16.6140  -20.9740  -11.0450 C.3     1  UNL1        0.0500
      2  C         18.0150  -21.4980  -10.9060 C.2     1  UNL1       -0.0390
      3  C         19.0010  -20.9790  -11.7650 C.2     1  UNL1        0.0090
      4  C         20.3260  -21.4220  -11.7020 C.2     1  UNL1        0.0170
      5  C         20.6880  -22.4090  -10.7840 C.2     1  UNL1        0.0330
      6  C         19.7230  -22.9380   -9.9210 C.2     1  UNL1        0.0420
      7  C         18.3930  -22.4870   -9.9770 C.2     1  UNL1        0.0810
      8  C         22.0860  -22.9060  -10.6710 C.2     1  UNL1        0.2520
      9  O         22.3690  -23.7390   -9.8200 O.2     1  UNL1       -0.2680
     10  N         22.9860  -22.4020  -11.5830 N.am    1  UNL1       -0.3490
     11  H         22.6440  -21.8920  -12.3840 H       1  UNL1        0.1630
     12  C         24.3550  -22.8910  -11.6490 C.3     1  UNL1        0.1140
     13  C         25.2880  -22.0510  -10.7710 C.3     1  UNL1        0.0370
     14  C         24.7840  -22.9570  -13.1070 C.2     1  UNL1       -0.0350
     15  C         25.4580  -24.0790  -13.6420 C.2     1  UNL1        0.0100
     16  C         25.8800  -24.1060  -14.9760 C.2     1  UNL1        0.0080
     17  C         25.6230  -23.0050  -15.7700 C.2     1  UNL1       -0.0520
     18  C         24.9750  -21.8800  -15.2520 C.2     1  UNL1       -0.0510
     19  C         26.0060  -22.7900  -17.2000 C.3     1  UNL1        0.0390
     20  C         24.5620  -21.8380  -13.9310 C.2     1  UNL1        0.0170
     21  C         24.8690  -20.8040  -16.2850 C.3     1  UNL1        0.0390
     22  C         25.1070  -21.6040  -17.5750 C.3     1  UNL1        0.0090
     23  S         17.2360  -23.2570   -8.8470 S.O2    1  UNL1        0.2460
     24  O         18.0020  -24.1170   -7.9660 O.2     1  UNL1       -0.2060
     25  O         16.1170  -23.7740   -9.6000 O.2     1  UNL1       -0.2060
     26  N         16.7760  -21.9070   -7.9130 N.pl3   1  UNL1       -0.1810
     27  H         17.4760  -21.1810   -8.0780 H       1  UNL1        0.1460
     28  C         16.6180  -22.1610   -6.5080 C.2     1  UNL1        0.0290
     29  C         15.3840  -22.6840   -6.1130 C.2     1  UNL1        0.0250
     30  C         15.1460  -22.9940   -4.7810 C.2     1  UNL1        0.0020
     31  C         16.1500  -22.8020   -3.8380 C.2     1  UNL1        0.0070
     32  C         17.4040  -22.2930   -4.2160 C.2     1  UNL1       -0.0540
     33  C         18.4590  -22.1340   -3.1530 C.3     1  UNL1        0.0490
     34  C         17.6450  -21.9440   -5.5670 C.2     1  UNL1       -0.0340
     35  C         18.9960  -21.4220   -5.9830 C.3     1  UNL1        0.0500
@<TRIPOS>BOND
     1    22    19    1
     2    22    21    1
     3    19    17    1
     4    21    18    1
     5    17    18    2
     6    17    16    1
     7    18    20    1
     8    16    15    2
     9    20    14    2
    10    15    14    1
    11    14    12    1
    12    11    10    1
    13     3     4    1
    14     3     2    2
    15     4     5    2
    16    12    10    1
    17    12    13    1
    18    10     8   am
    19     1     2    1
    20     2     7    1
    21     5     8    1
    22     5     6    1
    23     8     9    2
    24     7     6    2
    25     7    23    1
    26    25    23    2
    27    23    24    2
    28    23    26    1
    29    27    26    1
    30    26    28    1
    31    28    29    2
    32    28    34    1
    33    29    30    1
    34    35    34    1
    35    34    32    2
    36    30    31    2
    37    32    31    1
    38    32    33    1
