@<TRIPOS>MOLECULE
19911_out_ligand_01.pdbqt
 36 39 0 0 0
SMALL
GASTEIGER

@<TRIPOS>ATOM
      1  C         18.5920  -22.2740  -10.3930 C.2     1  UNL1        0.0810
      2  C         19.8970  -22.7790  -10.2890 C.2     1  UNL1        0.0420
      3  C         20.9360  -22.2210  -11.0430 C.2     1  UNL1        0.0330
      4  C         20.6610  -21.1620  -11.9120 C.2     1  UNL1        0.0170
      5  C         19.3630  -20.6490  -12.0050 C.2     1  UNL1        0.0090
      6  C         18.3090  -21.1940  -11.2520 C.2     1  UNL1       -0.0390
      7  C         16.9400  -20.5840  -11.3890 C.3     1  UNL1        0.0500
      8  C         22.2990  -22.8120  -10.9050 C.2     1  UNL1        0.2520
      9  O         22.5260  -23.6070  -10.0010 O.2     1  UNL1       -0.2680
     10  N         23.2510  -22.4050  -11.8150 N.am    1  UNL1       -0.3490
     11  H         23.0600  -21.6240  -12.4260 H       1  UNL1        0.1630
     12  C         24.6350  -22.8380  -11.7100 C.3     1  UNL1        0.1140
     13  C         25.3900  -21.9970  -10.6760 C.3     1  UNL1        0.0370
     14  C         25.2790  -22.8160  -13.0830 C.2     1  UNL1       -0.0350
     15  C         26.3690  -23.6330  -13.4140 C.2     1  UNL1        0.0100
     16  C         26.9450  -23.5700  -14.6860 C.2     1  UNL1        0.0080
     17  C         26.4530  -22.6830  -15.6540 C.2     1  UNL1       -0.0520
     18  C         25.3580  -21.8600  -15.3400 C.2     1  UNL1       -0.0510
     19  C         27.0790  -22.6730  -17.0290 C.3     1  UNL1        0.0390
     20  C         24.7980  -21.9210  -14.0540 C.2     1  UNL1        0.0170
     21  C         24.8140  -20.8600  -16.3300 C.3     1  UNL1        0.0390
     22  C         25.2240  -21.1570  -17.7710 C.3     1  UNL1        0.0050
     23  C         26.7210  -21.4340  -17.8470 C.3     1  UNL1        0.0050
     24  S         17.3180  -23.0550   -9.4090 S.O2    1  UNL1        0.2460
     25  O         16.5830  -22.0140   -8.7250 O.2     1  UNL1       -0.2060
     26  O         16.6480  -24.0280  -10.2450 O.2     1  UNL1       -0.2060
     27  N         18.2780  -23.8340   -8.2350 N.pl3   1  UNL1       -0.1810
     28  H         19.2050  -23.9970   -8.6300 H       1  UNL1        0.1460
     29  C         18.3400  -23.1700   -6.9660 C.2     1  UNL1        0.0230
     30  C         19.1030  -22.0180   -6.8090 C.2     1  UNL1        0.0250
     31  C         19.1480  -21.3800   -5.5680 C.2     1  UNL1        0.0090
     32  C         18.4320  -21.8860   -4.4700 C.2     1  UNL1       -0.0560
     33  C         18.5010  -21.1620   -3.1530 C.3     1  UNL1        0.0490
     34  C         17.6520  -23.0490   -4.6330 C.2     1  UNL1       -0.0540
     35  C         17.6270  -23.6910   -5.8840 C.2     1  UNL1        0.0310
     36  C         16.8840  -23.6540   -3.4880 C.3     1  UNL1        0.0490
@<TRIPOS>BOND
     1    23    22    1
     2    23    19    1
     3    22    21    1
     4    19    17    1
     5    21    18    1
     6    17    18    2
     7    17    16    1
     8    18    20    1
     9    16    15    2
    10    20    14    2
    11    15    14    1
    12    14    12    1
    13    11    10    1
    14     5     4    2
    15     5     6    1
    16     4     3    1
    17    10    12    1
    18    10     8   am
    19    12    13    1
    20     7     6    1
    21     6     1    2
    22     3     8    1
    23     3     2    2
    24     8     9    2
    25     1     2    1
    26     1    24    1
    27    26    24    2
    28    24    25    2
    29    24    27    1
    30    28    27    1
    31    27    29    1
    32    29    30    2
    33    29    35    1
    34    30    31    1
    35    35    34    2
    36    31    32    2
    37    34    32    1
    38    34    36    1
    39    32    33    1
