@<TRIPOS>MOLECULE
19919_out_ligand_01.pdbqt
 35 38 0 0 0
SMALL
GASTEIGER

@<TRIPOS>ATOM
      1  C         18.3310  -22.2690  -10.1130 C.2     1  UNL1        0.0810
      2  C         19.6350  -22.7850  -10.0210 C.2     1  UNL1        0.0420
      3  C         20.6540  -22.2800  -10.8350 C.2     1  UNL1        0.0330
      4  C         20.3560  -21.2830  -11.7690 C.2     1  UNL1        0.0170
      5  C         19.0580  -20.7710  -11.8630 C.2     1  UNL1        0.0090
      6  C         18.0290  -21.2420  -11.0300 C.2     1  UNL1       -0.0390
      7  C         16.6530  -20.6550  -11.1950 C.3     1  UNL1        0.0500
      8  C         22.0220  -22.8580  -10.7020 C.2     1  UNL1        0.2520
      9  O         22.2680  -23.6520   -9.8010 O.2     1  UNL1       -0.2680
     10  N         22.9590  -22.4290  -11.6140 N.am    1  UNL1       -0.3490
     11  H         22.7530  -21.6620  -12.2340 H       1  UNL1        0.1630
     12  C         24.3310  -22.9110  -11.5920 C.3     1  UNL1        0.1140
     13  C         25.2020  -22.0670  -10.6550 C.3     1  UNL1        0.0370
     14  C         24.8500  -22.9670  -13.0200 C.2     1  UNL1       -0.0350
     15  C         25.6630  -24.0280  -13.4810 C.2     1  UNL1        0.0100
     16  C         26.1640  -24.0470  -14.7870 C.2     1  UNL1        0.0080
     17  C         25.8650  -22.9860  -15.6220 C.2     1  UNL1       -0.0520
     18  C         25.0740  -21.9230  -15.1800 C.2     1  UNL1       -0.0510
     19  C         26.2550  -22.8010  -17.0560 C.3     1  UNL1        0.0390
     20  C         24.5620  -21.9000  -13.8920 C.2     1  UNL1        0.0170
     21  C         24.8610  -20.9230  -16.2740 C.3     1  UNL1        0.0390
     22  C         25.9920  -21.2990  -17.2460 C.3     1  UNL1        0.0090
     23  S         17.0790  -22.9960   -9.0630 S.O2    1  UNL1        0.2460
     24  O         16.3410  -21.9230   -8.4320 O.2     1  UNL1       -0.2060
     25  O         16.4060  -24.0340   -9.8130 O.2     1  UNL1       -0.2060
     26  N         18.0520  -23.8100   -7.9190 N.pl3   1  UNL1       -0.1810
     27  H         17.6290  -24.7330   -7.7950 H       1  UNL1        0.1460
     28  C         18.1430  -23.1660   -6.6380 C.2     1  UNL1        0.0230
     29  C         17.4010  -23.7060   -5.5850 C.2     1  UNL1        0.0310
     30  C         17.4010  -23.0830   -4.3310 C.2     1  UNL1       -0.0600
     31  C         18.1240  -21.8940   -4.1590 C.2     1  UNL1        0.0130
     32  C         16.5880  -23.6450   -3.1990 C.3     1  UNL1        0.0480
     33  C         18.8640  -21.3390   -5.2140 C.2     1  UNL1       -0.0600
     34  C         19.6060  -20.0470   -5.0270 C.3     1  UNL1        0.0480
     35  C         18.8520  -21.9730   -6.4620 C.2     1  UNL1        0.0310
@<TRIPOS>BOND
     1    22    19    1
     2    22    21    1
     3    19    17    1
     4    21    18    1
     5    17    18    2
     6    17    16    1
     7    18    20    1
     8    16    15    2
     9    20    14    2
    10    15    14    1
    11    14    12    1
    12    11    10    1
    13     5     4    2
    14     5     6    1
    15     4     3    1
    16    10    12    1
    17    10     8   am
    18    12    13    1
    19     7     6    1
    20     6     1    2
    21     3     8    1
    22     3     2    2
    23     8     9    2
    24     1     2    1
    25     1    23    1
    26    25    23    2
    27    23    24    2
    28    23    26    1
    29    26    27    1
    30    26    28    1
    31    28    35    2
    32    28    29    1
    33    35    33    1
    34    29    30    2
    35    33    34    1
    36    33    31    2
    37    30    31    1
    38    30    32    1
