@<TRIPOS>MOLECULE
19918_out_ligand_01.pdbqt
 35 38 0 0 0
SMALL
GASTEIGER

@<TRIPOS>ATOM
      1  C         18.6650  -22.2520  -10.3750 C.2     1  UNL1        0.0810
      2  C         19.9880  -22.7010  -10.2600 C.2     1  UNL1        0.0420
      3  C         20.9980  -22.1160  -11.0300 C.2     1  UNL1        0.0330
      4  C         20.6810  -21.0910  -11.9260 C.2     1  UNL1        0.0170
      5  C         19.3640  -20.6360  -12.0310 C.2     1  UNL1        0.0090
      6  C         18.3340  -21.2100  -11.2650 C.2     1  UNL1       -0.0390
      7  C         16.9420  -20.6590  -11.4180 C.3     1  UNL1        0.0500
      8  C         22.3830  -22.6400  -10.9000 C.2     1  UNL1        0.2520
      9  O         22.5890  -23.6460  -10.2320 O.2     1  UNL1       -0.2680
     10  N         23.3660  -21.9250  -11.5500 N.am    1  UNL1       -0.3490
     11  H         23.1180  -21.1180  -12.1020 H       1  UNL1        0.1630
     12  C         24.7060  -22.4600  -11.7240 C.3     1  UNL1        0.1140
     13  C         25.7220  -21.6060  -10.9670 C.3     1  UNL1        0.0370
     14  C         24.9980  -22.5770  -13.2110 C.2     1  UNL1       -0.0350
     15  C         25.4100  -23.8260  -13.7300 C.2     1  UNL1        0.0100
     16  C         25.6740  -24.0000  -15.0930 C.2     1  UNL1        0.0080
     17  C         25.4930  -22.9230  -15.9380 C.2     1  UNL1       -0.0520
     18  C         25.0600  -21.6880  -15.4450 C.2     1  UNL1       -0.0510
     19  C         25.7410  -22.8510  -17.4120 C.3     1  UNL1        0.0390
     20  C         24.8160  -21.4980  -14.0940 C.2     1  UNL1        0.0170
     21  C         24.9710  -20.6770  -16.5460 C.3     1  UNL1        0.0390
     22  C         24.9400  -21.5910  -17.7830 C.3     1  UNL1        0.0090
     23  S         17.4310  -23.0430   -9.3490 S.O2    1  UNL1        0.2460
     24  O         16.7540  -24.0300  -10.1570 O.2     1  UNL1       -0.2060
     25  O         16.7040  -22.0080   -8.6510 O.2     1  UNL1       -0.2060
     26  N         18.4280  -23.8020   -8.1920 N.pl3   1  UNL1       -0.1810
     27  H         19.3680  -23.8730   -8.5880 H       1  UNL1        0.1460
     28  C         18.4470  -23.1410   -6.9210 C.2     1  UNL1        0.0230
     29  C         19.2020  -21.9850   -6.7520 C.2     1  UNL1        0.0250
     30  C         19.1880  -21.3210   -5.5230 C.2     1  UNL1        0.0090
     31  C         18.4110  -21.8000   -4.4570 C.2     1  UNL1       -0.0560
     32  C         18.4040  -21.0460   -3.1540 C.3     1  UNL1        0.0490
     33  C         17.6180  -22.9530   -4.6420 C.2     1  UNL1       -0.0540
     34  C         17.6510  -23.6170   -5.8790 C.2     1  UNL1        0.0310
     35  C         16.7270  -23.4810   -3.5500 C.3     1  UNL1        0.0490
@<TRIPOS>BOND
     1    22    19    1
     2    22    21    1
     3    19    17    1
     4    21    18    1
     5    17    18    2
     6    17    16    1
     7    18    20    1
     8    16    15    2
     9    20    14    2
    10    15    14    1
    11    14    12    1
    12    11    10    1
    13     5     4    2
    14     5     6    1
    15     4     3    1
    16    12    10    1
    17    12    13    1
    18    10     8   am
    19     7     6    1
    20     6     1    2
    21     3     8    1
    22     3     2    2
    23     8     9    2
    24     1     2    1
    25     1    23    1
    26    24    23    2
    27    23    25    2
    28    23    26    1
    29    27    26    1
    30    26    28    1
    31    28    29    2
    32    28    34    1
    33    29    30    1
    34    34    33    2
    35    30    31    2
    36    33    31    1
    37    33    35    1
    38    31    32    1
