@<TRIPOS>MOLECULE
19910_out_ligand_01.pdbqt
 36 39 0 0 0
SMALL
GASTEIGER

@<TRIPOS>ATOM
      1  C         16.6540  -21.0250  -11.0350 C.3     1  UNL1        0.0500
      2  C         18.0690  -21.5140  -10.9010 C.2     1  UNL1       -0.0390
      3  C         19.0490  -20.9480  -11.7380 C.2     1  UNL1        0.0090
      4  C         20.3790  -21.3760  -11.6900 C.2     1  UNL1        0.0170
      5  C         20.7530  -22.3860  -10.8030 C.2     1  UNL1        0.0330
      6  C         19.8010  -22.9400   -9.9460 C.2     1  UNL1        0.0420
      7  C         18.4690  -22.5000   -9.9810 C.2     1  UNL1        0.0810
      8  C         22.1500  -22.8770  -10.7130 C.2     1  UNL1        0.2520
      9  O         22.4490  -23.7180   -9.8720 O.2     1  UNL1       -0.2680
     10  N         23.0300  -22.3640  -11.6370 N.am    1  UNL1       -0.3490
     11  H         22.6890  -21.7870  -12.3940 H       1  UNL1        0.1630
     12  C         24.4150  -22.8050  -11.7000 C.3     1  UNL1        0.1140
     13  C         25.2950  -21.9370  -10.7970 C.3     1  UNL1        0.0370
     14  C         24.8540  -22.8520  -13.1530 C.2     1  UNL1       -0.0350
     15  C         25.2620  -24.0380  -13.7860 C.2     1  UNL1        0.0100
     16  C         25.6940  -24.0290  -15.1150 C.2     1  UNL1        0.0080
     17  C         25.7260  -22.8320  -15.8340 C.2     1  UNL1       -0.0520
     18  C         25.3400  -21.6360  -15.2120 C.2     1  UNL1       -0.0510
     19  C         26.2180  -22.7670  -17.2550 C.3     1  UNL1        0.0390
     20  C         24.9170  -21.6490  -13.8790 C.2     1  UNL1        0.0170
     21  C         25.4500  -20.3580  -15.9980 C.3     1  UNL1        0.0390
     22  C         24.9200  -20.5370  -17.4230 C.3     1  UNL1        0.0050
     23  C         25.3320  -21.8540  -18.1030 C.3     1  UNL1        0.0050
     24  S         17.3480  -23.2710   -8.8220 S.O2    1  UNL1        0.2460
     25  O         18.1480  -24.1600   -8.0110 O.2     1  UNL1       -0.2060
     26  O         16.1640  -23.7160   -9.5250 O.2     1  UNL1       -0.2060
     27  N         16.8210  -21.9290   -7.9040 N.pl3   1  UNL1       -0.1810
     28  H         15.9570  -21.6000   -8.3430 H       1  UNL1        0.1460
     29  C         16.5820  -22.1910   -6.5090 C.2     1  UNL1        0.0290
     30  C         15.3130  -22.6080   -6.0890 C.2     1  UNL1        0.0250
     31  C         15.0660  -22.8450   -4.7400 C.2     1  UNL1        0.0020
     32  C         16.0840  -22.6630   -3.8070 C.2     1  UNL1        0.0070
     33  C         17.3580  -22.2280   -4.2070 C.2     1  UNL1       -0.0540
     34  C         18.4200  -22.0430   -3.1540 C.3     1  UNL1        0.0490
     35  C         17.6050  -21.9460   -5.5710 C.2     1  UNL1       -0.0340
     36  C         18.9600  -21.4550   -6.0170 C.3     1  UNL1        0.0500
@<TRIPOS>BOND
     1    23    22    1
     2    23    19    1
     3    22    21    1
     4    19    17    1
     5    21    18    1
     6    17    18    2
     7    17    16    1
     8    18    20    1
     9    16    15    2
    10    20    14    2
    11    15    14    1
    12    14    12    1
    13    11    10    1
    14     3     4    1
    15     3     2    2
    16    12    10    1
    17    12    13    1
    18     4     5    2
    19    10     8   am
    20     1     2    1
    21     2     7    1
    22     5     8    1
    23     5     6    1
    24     8     9    2
    25     7     6    2
    26     7    24    1
    27    26    24    2
    28    24    25    2
    29    24    27    1
    30    28    27    1
    31    27    29    1
    32    29    30    2
    33    29    35    1
    34    30    31    1
    35    36    35    1
    36    35    33    2
    37    31    32    2
    38    33    32    1
    39    33    34    1
