@<TRIPOS>MOLECULE
19916_out_ligand_01.pdbqt
 34 37 0 0 0
SMALL
GASTEIGER

@<TRIPOS>ATOM
      1  C         17.3560  -23.1430   -8.9550 C.2     1  UNL1        0.0810
      2  C         18.7380  -23.3830   -8.9310 C.2     1  UNL1        0.0420
      3  C         19.5540  -22.9030   -9.9600 C.2     1  UNL1        0.0330
      4  C         18.9880  -22.1730  -11.0080 C.2     1  UNL1        0.0170
      5  C         17.6100  -21.9380  -11.0330 C.2     1  UNL1        0.0090
      6  C         16.7720  -22.4100  -10.0080 C.2     1  UNL1       -0.0390
      7  C         15.2970  -22.1360  -10.1120 C.3     1  UNL1        0.0500
      8  C         21.0150  -23.1670   -9.8850 C.2     1  UNL1        0.2520
      9  O         21.4400  -24.0320   -9.1280 O.2     1  UNL1       -0.2680
     10  N         21.8120  -22.4190  -10.7210 N.am    1  UNL1       -0.3490
     11  H         21.3800  -21.9000  -11.4740 H       1  UNL1        0.1630
     12  C         23.2420  -22.6690  -10.8350 C.3     1  UNL1        0.1140
     13  C         24.0450  -21.8040   -9.8570 C.3     1  UNL1        0.0370
     14  C         23.6660  -22.4730  -12.2820 C.2     1  UNL1       -0.0350
     15  C         23.0410  -21.5190  -13.1160 C.2     1  UNL1        0.0100
     16  C         23.4110  -21.3710  -14.4570 C.2     1  UNL1        0.0080
     17  C         24.4120  -22.1840  -14.9560 C.2     1  UNL1       -0.0520
     18  C         25.0310  -23.1420  -14.1480 C.2     1  UNL1       -0.0510
     19  C         24.9490  -22.2360  -16.3520 C.3     1  UNL1        0.0390
     20  C         24.6650  -23.3040  -12.8220 C.2     1  UNL1        0.0170
     21  C         26.0330  -23.9310  -14.9320 C.3     1  UNL1        0.0390
     22  C         26.2580  -23.0090  -16.1390 C.3     1  UNL1        0.0090
     23  S         16.3790  -23.8070   -7.6110 S.O2    1  UNL1        0.2460
     24  O         15.7610  -25.0310   -8.0760 O.2     1  UNL1       -0.2060
     25  O         15.5950  -22.7280   -7.0540 O.2     1  UNL1       -0.2060
     26  N         17.6180  -24.2680   -6.5300 N.pl3   1  UNL1       -0.1810
     27  H         17.3660  -25.1800   -6.1430 H       1  UNL1        0.1460
     28  C         17.8630  -23.3150   -5.4870 C.2     1  UNL1        0.0230
     29  C         17.5200  -23.6250   -4.1720 C.2     1  UNL1        0.0240
     30  C         17.7840  -22.7090   -3.1540 C.2     1  UNL1        0.0020
     31  C         18.4020  -21.4930   -3.4500 C.2     1  UNL1        0.0070
     32  C         18.7800  -21.1900   -4.7640 C.2     1  UNL1       -0.0600
     33  C         19.4330  -19.8770   -5.0780 C.3     1  UNL1        0.0480
     34  C         18.5000  -22.1080   -5.7840 C.2     1  UNL1        0.0310
@<TRIPOS>BOND
     1    19    22    1
     2    19    17    1
     3    22    21    1
     4    17    16    2
     5    17    18    1
     6    21    18    1
     7    16    15    1
     8    18    20    2
     9    15    14    2
    10    20    14    1
    11    14    12    1
    12    11    10    1
    13     5     4    2
    14     5     6    1
    15     4     3    1
    16    12    10    1
    17    12    13    1
    18    10     8   am
    19     7     6    1
    20     6     1    2
    21     3     8    1
    22     3     2    2
    23     8     9    2
    24     1     2    1
    25     1    23    1
    26    24    23    2
    27    23    25    2
    28    23    26    1
    29    26    27    1
    30    26    28    1
    31    34    28    2
    32    34    32    1
    33    28    29    1
    34    33    32    1
    35    32    31    2
    36    29    30    2
    37    31    30    1
