@<TRIPOS>MOLECULE
19922_out_ligand_01.pdbqt
 35 38 0 0 0
SMALL
GASTEIGER

@<TRIPOS>ATOM
      1  C         18.2940  -22.6760   -9.5620 C.2     1  UNL1        0.0810
      2  C         19.6540  -23.0330   -9.5710 C.2     1  UNL1        0.0420
      3  C         20.5170  -22.5060  -10.5370 C.2     1  UNL1        0.0330
      4  C         20.0230  -21.6170  -11.4930 C.2     1  UNL1        0.0170
      5  C         18.6690  -21.2680  -11.4890 C.2     1  UNL1        0.0090
      6  C         17.7850  -21.7830  -10.5240 C.2     1  UNL1       -0.0390
      7  C         16.3440  -21.3590  -10.5910 C.3     1  UNL1        0.0500
      8  C         21.9550  -22.8830  -10.4810 C.2     1  UNL1        0.2520
      9  O         22.3390  -23.6990   -9.6510 O.2     1  UNL1       -0.2680
     10  N         22.7780  -22.2890  -11.4140 N.am    1  UNL1       -0.3490
     11  H         22.3530  -21.8580  -12.2240 H       1  UNL1        0.1630
     12  C         24.1830  -22.6570  -11.5230 C.3     1  UNL1        0.1140
     13  C         25.0970  -21.6080  -10.8790 C.3     1  UNL1        0.0370
     14  C         24.5410  -22.8900  -12.9810 C.2     1  UNL1       -0.0330
     15  C         25.2010  -24.0700  -13.3610 C.2     1  UNL1        0.0120
     16  C         25.5330  -24.3050  -14.6980 C.2     1  UNL1        0.0400
     17  C         25.2020  -23.3660  -15.6720 C.2     1  UNL1        0.1020
     18  C         24.5580  -22.1810  -15.3070 C.2     1  UNL1        0.1020
     19  O         25.5490  -23.6690  -16.9630 O.2     1  UNL1       -0.3460
     20  C         24.2130  -21.9510  -13.9760 C.2     1  UNL1        0.0490
     21  O         24.2270  -21.1990  -16.2070 O.2     1  UNL1       -0.3460
     22  C         24.9530  -21.3580  -17.4310 C.3     1  UNL1        0.2020
     23  C         24.8970  -22.8030  -17.9000 C.3     1  UNL1        0.2020
     24  S         17.2730  -23.4250   -8.2930 S.O2    1  UNL1        0.2460
     25  O         18.1360  -24.2570   -7.4800 O.2     1  UNL1       -0.2060
     26  O         16.0840  -23.9620   -8.9130 O.2     1  UNL1       -0.2060
     27  N         16.9020  -22.0480   -7.3580 N.pl3   1  UNL1       -0.1810
     28  H         17.6470  -21.3690   -7.5200 H       1  UNL1        0.1460
     29  C         16.7420  -22.3040   -5.9520 C.2     1  UNL1        0.0280
     30  C         15.5840  -22.9930   -5.5580 C.2     1  UNL1        0.0250
     31  C         15.3770  -23.3190   -4.2190 C.2     1  UNL1        0.0020
     32  C         16.3360  -22.9700   -3.2680 C.2     1  UNL1        0.0010
     33  C         17.5000  -22.2980   -3.6580 C.2     1  UNL1        0.0080
     34  C         17.7190  -21.9490   -5.0020 C.2     1  UNL1       -0.0400
     35  C         19.0130  -21.2650   -5.3600 C.3     1  UNL1        0.0500
@<TRIPOS>BOND
     1    23    22    1
     2    23    19    1
     3    22    21    1
     4    19    17    1
     5    21    18    1
     6    17    18    2
     7    17    16    1
     8    18    20    1
     9    16    15    2
    10    20    14    2
    11    15    14    1
    12    14    12    1
    13    11    10    1
    14    12    10    1
    15    12    13    1
    16     4     5    2
    17     4     3    1
    18     5     6    1
    19    10     8   am
    20     7     6    1
    21     3     8    1
    22     3     2    2
    23     6     1    2
    24     8     9    2
    25     2     1    1
    26     1    24    1
    27    26    24    2
    28    24    25    2
    29    24    27    1
    30    28    27    1
    31    27    29    1
    32    29    30    2
    33    29    34    1
    34    30    31    1
    35    35    34    1
    36    34    33    2
    37    31    32    2
    38    33    32    1
