@<TRIPOS>MOLECULE
19921_out_ligand_01.pdbqt
 34 37 0 0 0
SMALL
GASTEIGER

@<TRIPOS>ATOM
      1  C         17.5580  -23.3860   -8.5040 C.2     1  UNL1        0.0970
      2  C         18.9300  -23.2860   -8.2140 C.2     1  UNL1        0.0430
      3  C         19.7820  -22.5660   -9.0620 C.2     1  UNL1        0.0330
      4  C         19.2640  -21.9700  -10.2160 C.2     1  UNL1        0.0190
      5  C         17.8990  -22.0790  -10.5030 C.2     1  UNL1        0.0260
      6  C         17.0390  -22.7820   -9.6500 C.2     1  UNL1        0.0570
      7 CL         15.3760  -22.8270  -10.1070 Cl      1  UNL1       -0.0830
      8  C         21.2280  -22.4840   -8.7130 C.2     1  UNL1        0.2520
      9  O         21.5640  -22.1350   -7.5880 O.2     1  UNL1       -0.2680
     10  N         22.1190  -22.7790   -9.7200 N.am    1  UNL1       -0.3490
     11  H         21.7900  -22.8490  -10.6730 H       1  UNL1        0.1630
     12  C         23.5560  -22.6520   -9.5300 C.3     1  UNL1        0.1140
     13  C         24.1860  -23.9830   -9.1060 C.3     1  UNL1        0.0370
     14  C         24.1790  -22.0930  -10.8000 C.2     1  UNL1       -0.0350
     15  C         25.3630  -21.3260  -10.7090 C.2     1  UNL1        0.0100
     16  C         25.9580  -20.7690  -11.8450 C.2     1  UNL1        0.0080
     17  C         25.3470  -20.9670  -13.0690 C.2     1  UNL1       -0.0520
     18  C         24.1720  -21.7150  -13.1750 C.2     1  UNL1       -0.0510
     19  C         25.8090  -20.5060  -14.4170 C.3     1  UNL1        0.0390
     20  C         23.5810  -22.2830  -12.0580 C.2     1  UNL1        0.0170
     21  C         23.7370  -21.8240  -14.6040 C.3     1  UNL1        0.0390
     22  C         24.5260  -20.6730  -15.2430 C.3     1  UNL1        0.0090
     23  S         16.5340  -24.3120   -7.3920 S.O2    1  UNL1        0.2470
     24  O         17.4070  -25.0390   -6.4920 O.2     1  UNL1       -0.2050
     25  O         15.5300  -24.9910   -8.1790 O.2     1  UNL1       -0.2050
     26  N         15.8460  -23.0720   -6.4390 N.pl3   1  UNL1       -0.1810
     27  H         15.5610  -22.3330   -7.0830 H       1  UNL1        0.1460
     28  C         16.7490  -22.5350   -5.4590 C.2     1  UNL1        0.0230
     29  C         16.5460  -22.7950   -4.1030 C.2     1  UNL1        0.0240
     30  C         17.3970  -22.2270   -3.1550 C.2     1  UNL1        0.0020
     31  C         18.4400  -21.3930   -3.5620 C.2     1  UNL1        0.0070
     32  C         18.6440  -21.1220   -4.9200 C.2     1  UNL1       -0.0600
     33  C         19.7300  -20.1810   -5.3530 C.3     1  UNL1        0.0480
     34  C         17.7760  -21.6850   -5.8650 C.2     1  UNL1        0.0310
@<TRIPOS>BOND
     1    22    21    1
     2    22    19    1
     3    21    18    1
     4    19    17    1
     5    18    17    2
     6    18    20    1
     7    17    16    1
     8    20    14    2
     9    16    15    2
    10    14    15    1
    11    14    12    1
    12    11    10    1
    13     5     4    2
    14     5     6    1
    15     4     3    1
    16     7     6    1
    17    10    12    1
    18    10     8   am
    19     6     1    2
    20    12    13    1
    21     3     8    1
    22     3     2    2
    23     8     9    2
    24     1     2    1
    25     1    23    1
    26    25    23    2
    27    23    24    2
    28    23    26    1
    29    27    26    1
    30    26    28    1
    31    34    28    2
    32    34    32    1
    33    28    29    1
    34    33    32    1
    35    32    31    2
    36    29    30    2
    37    31    30    1
