@<TRIPOS>MOLECULE
19925_out_ligand_01.pdbqt
 36 39 0 0 0
SMALL
GASTEIGER

@<TRIPOS>ATOM
      1  C         16.6070  -21.0310  -10.9750 C.3     1  UNL1        0.0500
      2  C         18.0070  -21.5630  -10.8360 C.2     1  UNL1       -0.0390
      3  C         18.9990  -21.0640  -11.6980 C.2     1  UNL1        0.0090
      4  C         20.3200  -21.5090  -11.6050 C.2     1  UNL1        0.0170
      5  C         20.6790  -22.4510  -10.6370 C.2     1  UNL1        0.0330
      6  C         19.7050  -22.9820   -9.7870 C.2     1  UNL1        0.0420
      7  C         18.3740  -22.5440   -9.8900 C.2     1  UNL1        0.0810
      8  C         22.0970  -22.8800  -10.5700 C.2     1  UNL1        0.2520
      9  O         22.4430  -23.7230   -9.7480 O.2     1  UNL1       -0.2680
     10  N         22.9450  -22.3060  -11.4910 N.am    1  UNL1       -0.3490
     11  H         22.5840  -21.6970  -12.2140 H       1  UNL1        0.1630
     12  C         24.3460  -22.6830  -11.5750 C.3     1  UNL1        0.1140
     13  C         25.2210  -21.6300  -10.8960 C.3     1  UNL1        0.0370
     14  C         24.6960  -22.9640  -13.0260 C.2     1  UNL1       -0.0330
     15  C         25.4410  -24.0830  -13.4360 C.2     1  UNL1        0.0120
     16  C         25.7490  -24.2820  -14.7850 C.2     1  UNL1        0.0400
     17  C         25.3270  -23.3640  -15.7420 C.2     1  UNL1        0.1020
     18  C         24.6200  -22.2230  -15.3470 C.2     1  UNL1        0.1020
     19  O         25.6470  -23.6360  -17.0470 O.2     1  UNL1       -0.3460
     20  C         24.2980  -22.0320  -14.0040 C.2     1  UNL1        0.0490
     21  O         24.2120  -21.2480  -16.2230 O.2     1  UNL1       -0.3460
     22  C         24.8790  -21.3730  -17.4830 C.3     1  UNL1        0.2020
     23  C         24.8900  -22.8220  -17.9500 C.3     1  UNL1        0.2020
     24  S         17.1720  -23.2940   -8.7920 S.O2    1  UNL1        0.2460
     25  O         16.0290  -23.6760   -9.5990 O.2     1  UNL1       -0.2060
     26  O         17.8760  -24.2580   -7.9760 O.2     1  UNL1       -0.2060
     27  N         16.6930  -21.9480   -7.8650 N.pl3   1  UNL1       -0.1810
     28  H         15.8760  -21.5140   -8.2900 H       1  UNL1        0.1460
     29  C         16.5480  -22.1910   -6.4560 C.2     1  UNL1        0.0290
     30  C         15.3120  -22.6510   -5.9940 C.2     1  UNL1        0.0250
     31  C         15.1090  -22.8820   -4.6390 C.2     1  UNL1        0.0020
     32  C         16.1430  -22.6560   -3.7400 C.2     1  UNL1        0.0070
     33  C         17.3970  -22.1990   -4.1800 C.2     1  UNL1       -0.0540
     34  C         18.4710  -21.9720   -3.1550 C.3     1  UNL1        0.0490
     35  C         17.6100  -21.9550   -5.5570 C.2     1  UNL1       -0.0340
     36  C         18.9400  -21.4620   -6.0680 C.3     1  UNL1        0.0500
@<TRIPOS>BOND
     1    23    22    1
     2    23    19    1
     3    22    21    1
     4    19    17    1
     5    21    18    1
     6    17    18    2
     7    17    16    1
     8    18    20    1
     9    16    15    2
    10    20    14    2
    11    15    14    1
    12    14    12    1
    13    11    10    1
    14     3     4    1
    15     3     2    2
    16     4     5    2
    17    12    10    1
    18    12    13    1
    19    10     8   am
    20     1     2    1
    21     2     7    1
    22     5     8    1
    23     5     6    1
    24     8     9    2
    25     7     6    2
    26     7    24    1
    27    25    24    2
    28    24    26    2
    29    24    27    1
    30    28    27    1
    31    27    29    1
    32    29    30    2
    33    29    35    1
    34    36    35    1
    35    30    31    1
    36    35    33    2
    37    31    32    2
    38    33    32    1
    39    33    34    1
