@<TRIPOS>MOLECULE
19926_out_ligand_01.pdbqt
 36 39 0 0 0
SMALL
GASTEIGER

@<TRIPOS>ATOM
      1  C         18.5800  -22.2690  -10.3740 C.2     1  UNL1        0.0860
      2  C         19.8660  -22.8130  -10.2020 C.2     1  UNL1        0.0420
      3  C         20.9500  -22.2960  -10.9140 C.2     1  UNL1        0.0330
      4  C         20.7460  -21.2420  -11.8070 C.2     1  UNL1        0.0170
      5  C         19.4720  -20.6930  -11.9710 C.2     1  UNL1        0.0090
      6  C         18.3660  -21.1980  -11.2630 C.2     1  UNL1       -0.0390
      7  C         17.0350  -20.5320  -11.4680 C.3     1  UNL1        0.0500
      8  C         22.3250  -22.8470  -10.7630 C.2     1  UNL1        0.2520
      9  O         22.5520  -23.6970   -9.9120 O.2     1  UNL1       -0.2680
     10  N         23.2690  -22.3640  -11.6460 N.am    1  UNL1       -0.3490
     11  H         22.9400  -21.8810  -12.4700 H       1  UNL1        0.1630
     12  C         24.5820  -22.9820  -11.7510 C.3     1  UNL1        0.1140
     13  C         25.6040  -22.1810  -10.9410 C.3     1  UNL1        0.0370
     14  C         24.9540  -23.1320  -13.2170 C.2     1  UNL1       -0.0330
     15  C         25.7460  -24.1930  -13.6890 C.2     1  UNL1        0.0120
     16  C         26.1010  -24.2760  -15.0380 C.2     1  UNL1        0.0400
     17  C         25.6790  -23.2940  -15.9300 C.2     1  UNL1        0.1020
     18  C         24.8800  -22.2410  -15.4820 C.2     1  UNL1        0.1020
     19  O         26.0870  -23.4280  -17.2320 O.2     1  UNL1       -0.3460
     20  C         24.5390  -22.1490  -14.1330 C.2     1  UNL1        0.0490
     21  O         24.4040  -21.2550  -16.3070 O.2     1  UNL1       -0.3460
     22  C         24.5260  -21.6240  -17.6850 C.3     1  UNL1        0.2020
     23  C         25.9010  -22.2100  -17.9620 C.3     1  UNL1        0.2020
     24  S         17.2590  -22.9960   -9.4070 S.O2    1  UNL1        0.2630
     25  O         16.4840  -21.9140   -8.8360 O.2     1  UNL1       -0.2000
     26  O         16.6150  -24.0120  -10.2100 O.2     1  UNL1       -0.2000
     27  N         18.0810  -23.7990   -8.1690 N.pl3   1  UNL1       -0.2810
     28  H         18.8800  -24.3250   -8.5150 H       1  UNL1        0.1790
     29  C         18.2010  -23.1710   -6.8980 C.2     1  UNL1        0.0430
     30  C         19.0560  -22.0800   -6.7660 C.2     1  UNL1        0.0300
     31  C         19.1390  -21.4040   -5.5490 C.2     1  UNL1        0.0090
     32  C         18.3690  -21.8100   -4.4480 C.2     1  UNL1       -0.0560
     33  C         18.4780  -21.0510   -3.1540 C.3     1  UNL1        0.0490
     34  C         17.5120  -22.9220   -4.5780 C.2     1  UNL1       -0.0540
     35  C         17.4390  -23.5940   -5.8100 C.2     1  UNL1        0.0370
     36  C         16.6600  -23.3950   -3.4320 C.3     1  UNL1        0.0490
@<TRIPOS>BOND
     1    23    22    1
     2    23    19    1
     3    22    21    1
     4    19    17    1
     5    21    18    1
     6    17    18    2
     7    17    16    1
     8    18    20    1
     9    16    15    2
    10    20    14    2
    11    15    14    1
    12    14    12    1
    13    11    10    1
    14     5     4    2
    15     5     6    1
    16     4     3    1
    17    12    10    1
    18    12    13    1
    19    10     8   am
    20     7     6    1
    21     6     1    2
    22     3     8    1
    23     3     2    2
    24     8     9    2
    25     1     2    1
    26     1    24    1
    27    26    24    2
    28    24    25    2
    29    24    27    1
    30    28    27    1
    31    27    29    1
    32    29    30    2
    33    29    35    1
    34    30    31    1
    35    35    34    2
    36    31    32    2
    37    34    32    1
    38    34    36    1
    39    32    33    1
