@<TRIPOS>MOLECULE
1992_out_ligand_01.pdbqt
 31 35 0 0 0
SMALL
GASTEIGER

@<TRIPOS>ATOM
      1  N         20.2140  -22.6750   -9.2860 N.am    1  UNL1       -0.2440
      2  C         19.8380  -21.9300  -10.3880 C.2     1  UNL1        0.2660
      3  O         18.8060  -21.3430  -10.6620 O.2     1  UNL1       -0.2670
      4  C         20.9660  -21.9160  -11.3120 C.2     1  UNL1        0.0480
      5  C         21.1060  -21.3060  -12.5450 C.2     1  UNL1        0.0210
      6  C         22.3280  -21.4670  -13.2070 C.2     1  UNL1        0.0380
      7  C         23.3590  -22.2380  -12.6300 C.2     1  UNL1        0.0770
      8  C         23.1990  -22.8270  -11.3730 C.2     1  UNL1        0.0550
      9  C         21.9810  -22.6500  -10.7430 C.2     1  UNL1        0.0510
     10  C         21.5070  -23.1370   -9.4530 C.2     1  UNL1        0.2660
     11  O         22.2260  -23.8240   -8.7510 O.2     1  UNL1       -0.2670
     12  C         19.3850  -22.9320   -8.1440 C.2     1  UNL1        0.0470
     13  C         19.3600  -22.0510   -7.0450 C.2     1  UNL1        0.0480
     14  C         18.5400  -22.3490   -5.9680 C.2     1  UNL1        0.0500
     15  C         18.3190  -21.6250   -4.7160 C.2     1  UNL1        0.2590
     16  C         17.7470  -23.4780   -5.9340 C.2     1  UNL1        0.0480
     17  N         17.4140  -22.3520   -4.0050 N.am    1  UNL1       -0.2890
     18  O         18.8510  -20.5810   -4.4000 O.2     1  UNL1       -0.2670
     19  C         17.0220  -23.4750   -4.6660 C.2     1  UNL1        0.2590
     20  H         17.0740  -22.0880   -3.0950 H       1  UNL1        0.1720
     21  O         16.2330  -24.3240   -4.3020 O.2     1  UNL1       -0.2670
     22  C         17.7310  -24.3720   -6.9790 C.2     1  UNL1        0.0200
     23  C         18.5560  -24.0890   -8.0810 C.2     1  UNL1        0.0310
     24  O         24.5910  -22.3890  -13.2280 O.2     1  UNL1       -0.3110
     25  C         25.1260  -21.2870  -13.8550 C.2     1  UNL1        0.0760
     26  C         25.8090  -20.3690  -13.0550 C.2     1  UNL1        0.0380
     27  C         26.4010  -19.2470  -13.6360 C.2     1  UNL1        0.0220
     28  C         26.3200  -19.0590  -15.0150 C.2     1  UNL1        0.0110
     29 BR         27.1210  -17.5390  -15.8030 Br      1  UNL1       -0.0510
     30  C         25.6580  -19.9870  -15.8200 C.2     1  UNL1        0.0220
     31  C         25.0650  -21.1100  -15.2400 C.2     1  UNL1        0.0380
@<TRIPOS>BOND
     1    30    31    1
     2    30    28    2
     3    29    28    1
     4    31    25    2
     5    28    27    1
     6    25    24    1
     7    25    26    1
     8    27    26    2
     9    24     7    1
    10     6     7    2
    11     6     5    1
    12     7     8    1
    13     5     4    2
    14     8     9    2
    15     4     9    1
    16     4     2    1
    17     9    10    1
    18     3     2    2
    19     2     1   am
    20    10     1   am
    21    10    11    2
    22     1    12    1
    23    12    23    2
    24    12    13    1
    25    23    22    1
    26    13    14    2
    27    22    16    2
    28    14    16    1
    29    14    15    1
    30    16    19    1
    31    15    18    2
    32    15    17   am
    33    19    21    2
    34    19    17   am
    35    17    20    1
