@<TRIPOS>MOLECULE
19923_out_ligand_01.pdbqt
 35 38 0 0 0
SMALL
GASTEIGER

@<TRIPOS>ATOM
      1  C         18.4620  -22.4020   -9.9390 C.2     1  UNL1        0.0860
      2  C         19.8110  -22.7930   -9.8800 C.2     1  UNL1        0.0420
      3  C         20.7450  -22.2540  -10.7680 C.2     1  UNL1        0.0330
      4  C         20.3340  -21.3150  -11.7150 C.2     1  UNL1        0.0170
      5  C         18.9990  -20.9050  -11.7550 C.2     1  UNL1        0.0090
      6  C         18.0410  -21.4330  -10.8690 C.2     1  UNL1       -0.0390
      7  C         16.6270  -20.9400  -10.9860 C.3     1  UNL1        0.0500
      8  C         22.1420  -22.7560  -10.7060 C.2     1  UNL1        0.2520
      9  O         22.4010  -23.7250  -10.0000 O.2     1  UNL1       -0.2680
     10  N         23.0690  -22.0690  -11.4530 N.am    1  UNL1       -0.3490
     11  H         22.7860  -21.2690  -11.9990 H       1  UNL1        0.1630
     12  C         24.4410  -22.5270  -11.6020 C.3     1  UNL1        0.1140
     13  C         25.4090  -21.5060  -11.0030 C.3     1  UNL1        0.0370
     14  C         24.7140  -22.8140  -13.0670 C.2     1  UNL1       -0.0330
     15  C         25.2620  -24.0540  -13.4400 C.2     1  UNL1        0.0120
     16  C         25.4970  -24.3580  -14.7830 C.2     1  UNL1        0.0400
     17  C         25.1760  -23.4330  -15.7720 C.2     1  UNL1        0.1020
     18  C         24.6430  -22.1910  -15.4170 C.2     1  UNL1        0.1020
     19  O         25.4110  -23.8090  -17.0690 O.2     1  UNL1       -0.3460
     20  C         24.4000  -21.8890  -14.0770 C.2     1  UNL1        0.0490
     21  O         24.3210  -21.2220  -16.3330 O.2     1  UNL1       -0.3460
     22  C         24.9150  -21.4930  -17.6080 C.3     1  UNL1        0.2020
     23  C         24.7260  -22.9520  -17.9900 C.3     1  UNL1        0.2020
     24  S         17.3690  -23.2280   -8.7860 S.O2    1  UNL1        0.2630
     25  O         16.2330  -23.6960   -9.5530 O.2     1  UNL1       -0.2000
     26  O         18.1190  -24.1380   -7.9500 O.2     1  UNL1       -0.2000
     27  N         16.8030  -21.9540   -7.8250 N.pl3   1  UNL1       -0.2810
     28  H         17.2270  -21.0640   -8.0820 H       1  UNL1        0.1790
     29  C         16.5650  -22.1940   -6.4420 C.2     1  UNL1        0.0430
     30  C         15.3880  -22.8080   -6.0170 C.2     1  UNL1        0.0300
     31  C         15.1910  -23.0710   -4.6620 C.2     1  UNL1        0.0030
     32  C         16.1740  -22.7280   -3.7330 C.2     1  UNL1        0.0070
     33  C         17.3660  -22.1240   -4.1510 C.2     1  UNL1       -0.0600
     34  C         18.4150  -21.7300   -3.1540 C.3     1  UNL1        0.0480
     35  C         17.5480  -21.8440   -5.5130 C.2     1  UNL1        0.0370
@<TRIPOS>BOND
     1    23    22    1
     2    23    19    1
     3    22    21    1
     4    19    17    1
     5    21    18    1
     6    17    18    2
     7    17    16    1
     8    18    20    1
     9    16    15    2
    10    20    14    2
    11    15    14    1
    12    14    12    1
    13    11    10    1
    14     5     4    2
    15     5     6    1
    16     4     3    1
    17    12    10    1
    18    12    13    1
    19    10     8   am
    20     7     6    1
    21     6     1    2
    22     3     8    1
    23     3     2    2
    24     8     9    2
    25     1     2    1
    26     1    24    1
    27    25    24    2
    28    24    26    2
    29    24    27    1
    30    28    27    1
    31    27    29    1
    32    29    30    2
    33    29    35    1
    34    30    31    1
    35    35    33    2
    36    31    32    2
    37    33    32    1
    38    33    34    1
