@<TRIPOS>MOLECULE
19920_out_ligand_01.pdbqt
 35 38 0 0 0
SMALL
GASTEIGER

@<TRIPOS>ATOM
      1  C         19.0970  -22.2950  -10.0960 C.2     1  UNL1        0.0810
      2  C         20.4820  -22.5270  -10.0800 C.2     1  UNL1        0.0420
      3  C         21.3140  -21.8770  -10.9960 C.2     1  UNL1        0.0330
      4  C         20.7620  -21.0010  -11.9350 C.2     1  UNL1        0.0170
      5  C         19.3830  -20.7660  -11.9460 C.2     1  UNL1        0.0090
      6  C         18.5290  -21.4110  -11.0350 C.2     1  UNL1       -0.0390
      7  C         17.0580  -21.1030  -11.1000 C.3     1  UNL1        0.0500
      8  C         22.7720  -22.1750  -10.9650 C.2     1  UNL1        0.2520
      9  O         23.4030  -22.0220   -9.9260 O.2     1  UNL1       -0.2680
     10  N         23.3320  -22.5920  -12.1500 N.am    1  UNL1       -0.3490
     11  H         22.8080  -22.4770  -13.0080 H       1  UNL1        0.1630
     12  C         24.7640  -22.8150  -12.2840 C.3     1  UNL1        0.1140
     13  C         25.0660  -24.0300  -13.1690 C.3     1  UNL1        0.0370
     14  C         25.4160  -21.5400  -12.7950 C.2     1  UNL1       -0.0350
     15  C         26.0110  -20.6500  -11.8700 C.2     1  UNL1        0.0100
     16  C         26.5900  -19.4470  -12.2860 C.2     1  UNL1        0.0080
     17  C         26.5500  -19.1300  -13.6320 C.2     1  UNL1       -0.0520
     18  C         25.9590  -19.9950  -14.5570 C.2     1  UNL1       -0.0510
     19  C         27.1210  -17.9270  -14.3140 C.3     1  UNL1        0.0390
     20  C         25.3930  -21.1950  -14.1590 C.2     1  UNL1        0.0170
     21  C         26.0790  -19.4480  -15.9480 C.3     1  UNL1        0.0390
     22  C         26.3800  -17.9700  -15.6600 C.3     1  UNL1        0.0090
     23  S         18.0990  -23.1560   -8.8840 S.O2    1  UNL1        0.2460
     24  O         16.8920  -23.6050   -9.5440 O.2     1  UNL1       -0.2060
     25  O         18.9600  -24.0790   -8.1770 O.2     1  UNL1       -0.2060
     26  N         17.6600  -21.8500   -7.8780 N.pl3   1  UNL1       -0.1810
     27  H         16.9290  -21.3180   -8.3500 H       1  UNL1        0.1460
     28  C         17.2790  -22.2200   -6.5410 C.2     1  UNL1        0.0290
     29  C         18.0460  -21.8360   -5.4300 C.2     1  UNL1       -0.0400
     30  C         17.6040  -22.2110   -4.1500 C.2     1  UNL1        0.0090
     31  C         19.3130  -21.0410   -5.5590 C.3     1  UNL1        0.0500
     32  C         16.4270  -22.9440   -3.9820 C.2     1  UNL1        0.0070
     33  C         15.6670  -23.3240   -5.0910 C.2     1  UNL1       -0.0600
     34  C         14.3790  -24.0730   -4.9070 C.3     1  UNL1        0.0480
     35  C         16.0970  -22.9480   -6.3680 C.2     1  UNL1        0.0310
@<TRIPOS>BOND
     1    21    22    1
     2    21    18    1
     3    22    19    1
     4    18    20    1
     5    18    17    2
     6    19    17    1
     7    20    14    2
     8    17    16    1
     9    13    12    1
    10    11    10    1
    11    14    12    1
    12    14    15    1
    13    16    15    2
    14    12    10    1
    15    10     8   am
    16     5     4    2
    17     5     6    1
    18     4     3    1
    19     7     6    1
    20     6     1    2
    21     3     8    1
    22     3     2    2
    23     8     9    2
    24     1     2    1
    25     1    23    1
    26    24    23    2
    27    23    25    2
    28    23    26    1
    29    27    26    1
    30    26    28    1
    31    28    35    2
    32    28    29    1
    33    35    33    1
    34    31    29    1
    35    29    30    2
    36    33    34    1
    37    33    32    2
    38    30    32    1
