@<TRIPOS>MOLECULE
19924_out_ligand_01.pdbqt
 35 38 0 0 0
SMALL
GASTEIGER

@<TRIPOS>ATOM
      1  C         18.3900  -22.2840  -10.2720 C.2     1  UNL1        0.0810
      2  C         19.6910  -22.8050  -10.1820 C.2     1  UNL1        0.0420
      3  C         20.7200  -22.2600  -10.9550 C.2     1  UNL1        0.0330
      4  C         20.4540  -21.1890  -11.8110 C.2     1  UNL1        0.0170
      5  C         19.1580  -20.6730  -11.9020 C.2     1  UNL1        0.0090
      6  C         18.1080  -21.2050  -11.1320 C.2     1  UNL1       -0.0390
      7  C         16.7390  -20.6030  -11.2870 C.3     1  UNL1        0.0500
      8  C         22.0880  -22.8240  -10.8120 C.2     1  UNL1        0.2520
      9  O         22.3030  -23.6980   -9.9820 O.2     1  UNL1       -0.2680
     10  N         23.0410  -22.3220  -11.6700 N.am    1  UNL1       -0.3490
     11  H         22.7440  -21.7700  -12.4630 H       1  UNL1        0.1630
     12  C         24.3920  -22.8630  -11.7050 C.3     1  UNL1        0.1140
     13  C         25.3600  -22.0020  -10.8860 C.3     1  UNL1        0.0370
     14  C         24.8270  -23.0270  -13.1510 C.2     1  UNL1       -0.0330
     15  C         25.7820  -23.9810  -13.5380 C.2     1  UNL1        0.0120
     16  C         26.1810  -24.0920  -14.8730 C.2     1  UNL1        0.0400
     17  C         25.6380  -23.2450  -15.8340 C.2     1  UNL1        0.1020
     18  C         24.7180  -22.2620  -15.4580 C.2     1  UNL1        0.1020
     19  O         26.0600  -23.4250  -17.1270 O.2     1  UNL1       -0.3460
     20  C         24.3080  -22.1620  -14.1290 C.2     1  UNL1        0.0490
     21  O         24.1750  -21.3650  -16.3410 O.2     1  UNL1       -0.3460
     22  C         24.9090  -21.3320  -17.5700 C.3     1  UNL1        0.2020
     23  C         25.2060  -22.7420  -18.0540 C.3     1  UNL1        0.2020
     24  S         17.1210  -23.0560   -9.2740 S.O2    1  UNL1        0.2460
     25  O         16.4690  -24.0620  -10.0850 O.2     1  UNL1       -0.2060
     26  O         16.3680  -22.0100   -8.6210 O.2     1  UNL1       -0.2060
     27  N         18.0860  -23.8950   -8.1430 N.pl3   1  UNL1       -0.1810
     28  H         17.6640  -24.8170   -8.0160 H       1  UNL1        0.1460
     29  C         18.2160  -23.2220   -6.8830 C.2     1  UNL1        0.0220
     30  C         19.0010  -22.0750   -6.7920 C.2     1  UNL1        0.0250
     31  C         19.0960  -21.3900   -5.5790 C.2     1  UNL1        0.0080
     32  C         18.3920  -21.8390   -4.4540 C.2     1  UNL1       -0.0620
     33  C         18.5110  -21.1030   -3.1530 C.3     1  UNL1        0.0480
     34  C         17.5960  -22.9860   -4.5600 C.2     1  UNL1        0.0080
     35  C         17.4990  -23.6710   -5.7740 C.2     1  UNL1        0.0250
@<TRIPOS>BOND
     1    23    22    1
     2    23    19    1
     3    22    21    1
     4    19    17    1
     5    21    18    1
     6    17    18    2
     7    17    16    1
     8    18    20    1
     9    16    15    2
    10    20    14    2
    11    15    14    1
    12    14    12    1
    13    11    10    1
    14     5     4    2
    15     5     6    1
    16     4     3    1
    17    12    10    1
    18    12    13    1
    19    10     8   am
    20     7     6    1
    21     6     1    2
    22     3     8    1
    23     3     2    2
    24     8     9    2
    25     1     2    1
    26     1    24    1
    27    25    24    2
    28    24    26    2
    29    24    27    1
    30    27    28    1
    31    27    29    1
    32    29    30    2
    33    29    35    1
    34    30    31    1
    35    35    34    2
    36    31    32    2
    37    34    32    1
    38    32    33    1
