@<TRIPOS>MOLECULE
19939_out_ligand_01.pdbqt
 37 39 0 0 0
SMALL
GASTEIGER

@<TRIPOS>ATOM
      1  C         21.2210  -21.7990  -10.6320 C.2     1  UNL1        0.0390
      2  C         20.6250  -20.9800  -11.6050 C.2     1  UNL1        0.0170
      3  C         19.2580  -21.0680  -11.8500 C.2     1  UNL1        0.0030
      4  C         18.4850  -21.9710  -11.1240 C.2     1  UNL1        0.0250
      5  C         19.0800  -22.8230  -10.1830 C.2     1  UNL1        0.0290
      6  C         20.4570  -22.7350   -9.9060 C.2     1  UNL1       -0.0240
      7  C         21.0740  -23.5960   -8.8350 C.3     1  UNL1        0.0510
      8  C         22.6670  -21.6020  -10.3600 C.2     1  UNL1        0.2520
      9  N         23.5060  -22.1430  -11.3060 N.am    1  UNL1       -0.3490
     10  H         23.1210  -22.7220  -12.0400 H       1  UNL1        0.1630
     11  O         23.0400  -20.9950   -9.3660 O.2     1  UNL1       -0.2680
     12  C         24.9530  -22.0600  -11.2010 C.3     1  UNL1        0.1140
     13  C         25.5070  -23.2710  -10.4400 C.3     1  UNL1        0.0370
     14  C         25.5240  -21.8620  -12.6000 C.2     1  UNL1       -0.0290
     15  C         26.2640  -20.7070  -12.9290 C.2     1  UNL1       -0.0510
     16  C         26.7560  -20.5500  -14.2400 C.2     1  UNL1        0.0440
     17  C         26.5890  -19.6450  -11.9100 C.3     1  UNL1        0.0490
     18  C         26.5000  -21.4900  -15.2420 C.2     1  UNL1        0.0750
     19  C         25.7350  -22.6290  -14.9400 C.2     1  UNL1       -0.0210
     20  C         25.2660  -22.7970  -13.6220 C.2     1  UNL1        0.0200
     21  O         26.9530  -21.3860  -16.5300 O.2     1  UNL1       -0.3550
     22  C         26.8120  -20.1330  -17.1870 C.3     1  UNL1        0.2100
     23  C         25.4530  -23.6960  -15.9950 C.3     1  UNL1        0.0130
     24  C         25.3140  -25.0680  -15.3290 C.3     1  UNL1        0.0150
     25  C         24.2260  -23.3790  -16.8560 C.3     1  UNL1        0.0150
     26  N         18.2690  -23.6580   -9.3400 N.pl3   1  UNL1       -0.1810
     27  H         18.8170  -23.9850   -8.5390 H       1  UNL1        0.1460
     28  S         16.8170  -23.0040   -8.7560 S.O2    1  UNL1        0.2450
     29  O         15.8170  -24.0420   -8.6360 O.2     1  UNL1       -0.2060
     30  O         16.5770  -21.7960   -9.5180 O.2     1  UNL1       -0.2060
     31  C         17.3150  -22.5370   -7.1190 C.2     1  UNL1        0.0740
     32  C         16.4430  -22.7590   -6.0510 C.2     1  UNL1        0.0250
     33  C         16.8260  -22.3840   -4.7620 C.2     1  UNL1        0.0080
     34  C         18.0740  -21.7880   -4.5380 C.2     1  UNL1       -0.0620
     35  C         18.4910  -21.3770   -3.1550 C.3     1  UNL1        0.0480
     36  C         18.9340  -21.5600   -5.6230 C.2     1  UNL1        0.0080
     37  C         18.5560  -21.9270   -6.9140 C.2     1  UNL1        0.0250
@<TRIPOS>BOND
     1    22    21    1
     2    25    23    1
     3    21    18    1
     4    23    24    1
     5    23    19    1
     6    18    19    2
     7    18    16    1
     8    19    20    1
     9    16    15    2
    10    20    14    2
    11    15    14    1
    12    15    17    1
    13    14    12    1
    14    10     9    1
    15     3     2    1
    16     3     4    2
    17     2     1    2
    18     9    12    1
    19     9     8   am
    20    12    13    1
    21     4     5    1
    22     1     8    1
    23     1     6    1
    24     8    11    2
    25     5     6    2
    26     5    26    1
    27     6     7    1
    28    30    28    2
    29    26    28    1
    30    26    27    1
    31    28    29    2
    32    28    31    1
    33    31    37    2
    34    31    32    1
    35    37    36    1
    36    32    33    2
    37    36    34    2
    38    33    34    1
    39    34    35    1
