@<TRIPOS>MOLECULE
19948_out_ligand_01.pdbqt
 36 39 0 0 0
SMALL
GASTEIGER

@<TRIPOS>ATOM
      1  C         23.5430  -22.8080  -10.9620 C.2     1  UNL1        0.0490
      2  C         23.6210  -23.2880   -9.6490 C.2     1  UNL1        0.0310
      3  C         22.5230  -23.1960   -8.7960 C.2     1  UNL1        0.0030
      4  C         21.3500  -22.6000   -9.2480 C.2     1  UNL1        0.0180
      5  C         21.2720  -22.1110  -10.5590 C.2     1  UNL1        0.0400
      6  C         22.3500  -22.2540  -11.4570 C.2     1  UNL1       -0.0190
      7  C         22.2100  -21.8420  -12.8990 C.3     1  UNL1        0.0520
      8  C         20.0140  -21.4240  -10.9400 C.2     1  UNL1        0.2520
      9  O         20.0410  -20.2940  -11.4070 O.2     1  UNL1       -0.2680
     10  N         18.8730  -22.1810  -10.7850 N.am    1  UNL1       -0.3550
     11  H         18.9820  -23.1810  -10.6520 H       1  UNL1        0.1620
     12  C         17.6040  -21.7220  -11.3170 C.3     1  UNL1        0.1490
     13  C         16.4740  -21.8670  -10.2950 C.3     1  UNL1        0.1950
     14  O         16.5730  -23.1020   -9.5730 O.2     1  UNL1       -0.3500
     15  C         16.7630  -23.0620   -8.2190 C.2     1  UNL1        0.0690
     16  C         16.0200  -24.0030   -7.5050 C.2     1  UNL1        0.0370
     17  C         16.0960  -24.0660   -6.1120 C.2     1  UNL1        0.0150
     18  C         16.9260  -23.1880   -5.4040 C.2     1  UNL1       -0.0260
     19  C         17.0130  -23.2340   -4.0040 C.2     1  UNL1        0.0120
     20  C         17.6910  -22.2400   -6.1180 C.2     1  UNL1       -0.0230
     21  C         17.8490  -22.3540   -3.3130 C.2     1  UNL1        0.0010
     22  C         18.6070  -21.4230   -4.0130 C.2     1  UNL1        0.0010
     23  C         18.5290  -21.3650   -5.4070 C.2     1  UNL1        0.0120
     24  C         17.5990  -22.1890   -7.5230 C.2     1  UNL1        0.0490
     25  N         24.7010  -22.8730  -11.7890 N.pl3   1  UNL1       -0.2800
     26  H         25.1530  -23.7830  -11.8900 H       1  UNL1        0.1790
     27  S         25.8630  -21.6490  -11.6360 S.O2    1  UNL1        0.2630
     28  O         25.3790  -20.6380  -10.7200 O.2     1  UNL1       -0.2000
     29  O         27.1210  -22.3250  -11.3950 O.2     1  UNL1       -0.2000
     30  C         25.9180  -20.9570  -13.2680 C.2     1  UNL1        0.0790
     31  C         26.0130  -19.5730  -13.4340 C.2     1  UNL1        0.0260
     32  C         26.0840  -19.0400  -14.7240 C.2     1  UNL1        0.0080
     33  C         26.0410  -19.8820  -15.8450 C.2     1  UNL1       -0.0620
     34  C         26.1720  -19.3140  -17.2280 C.3     1  UNL1        0.0480
     35  C         25.9320  -21.2670  -15.6620 C.2     1  UNL1        0.0080
     36  C         25.8570  -21.8060  -14.3770 C.2     1  UNL1        0.0260
@<TRIPOS>BOND
     1    34    33    1
     2    33    35    2
     3    33    32    1
     4    35    36    1
     5    32    31    2
     6    36    30    2
     7    31    30    1
     8    30    27    1
     9     7     6    1
    10    26    25    1
    11    25    27    1
    12    25     1    1
    13    27    29    2
    14    27    28    2
    15     6     1    2
    16     6     5    1
    17     9     8    2
    18    12    10    1
    19    12    13    1
    20     1     2    1
    21     8    10   am
    22     8     5    1
    23    10    11    1
    24     5     4    2
    25    13    14    1
    26     2     3    2
    27    14    15    1
    28     4     3    1
    29    15    24    2
    30    15    16    1
    31    24    20    1
    32    16    17    2
    33    20    23    1
    34    20    18    2
    35    17    18    1
    36    23    22    2
    37    18    19    1
    38    22    21    1
    39    19    21    2
