@<TRIPOS>MOLECULE
19944_out_ligand_01.pdbqt
 40 43 0 0 0
SMALL
GASTEIGER

@<TRIPOS>ATOM
      1  C         21.1040  -21.9660  -11.5140 C.2     1  UNL1        0.0320
      2  C         21.6890  -22.6920  -10.4730 C.2     1  UNL1        0.0170
      3  C         23.0620  -22.9490  -10.4810 C.2     1  UNL1        0.0100
      4  C         23.8680  -22.4710  -11.5250 C.2     1  UNL1       -0.0300
      5  C         23.2770  -21.7230  -12.5550 C.2     1  UNL1        0.0100
      6  C         21.9030  -21.4670  -12.5500 C.2     1  UNL1        0.0170
      7  C         19.6370  -21.7200  -11.4730 C.2     1  UNL1        0.2520
      8  N         18.9110  -22.5590  -10.6600 N.am    1  UNL1       -0.3490
      9  H         19.3930  -23.1890  -10.0340 H       1  UNL1        0.1630
     10  O         19.1470  -20.7980  -12.1130 O.2     1  UNL1       -0.2680
     11  C         17.4750  -22.4180  -10.4830 C.3     1  UNL1        0.1140
     12  C         17.0090  -21.0020  -10.8460 C.3     1  UNL1        0.0370
     13  C         17.1190  -22.8460   -9.0620 C.2     1  UNL1       -0.0290
     14  C         16.0550  -23.7350   -8.8070 C.2     1  UNL1       -0.0510
     15  C         15.7810  -24.1310   -7.4830 C.2     1  UNL1        0.0440
     16  C         15.1840  -24.2730   -9.9120 C.3     1  UNL1        0.0490
     17  C         16.5590  -23.6860   -6.4080 C.2     1  UNL1        0.0750
     18  C         17.6330  -22.8120   -6.6450 C.2     1  UNL1       -0.0210
     19  C         17.9020  -22.4170   -7.9720 C.2     1  UNL1        0.0200
     20  O         16.3510  -24.0520   -5.1040 O.2     1  UNL1       -0.3550
     21  C         15.0200  -24.0160   -4.6070 C.3     1  UNL1        0.2100
     22  C         18.5180  -22.3110   -5.5090 C.3     1  UNL1        0.0130
     23  C         19.6390  -21.4160   -6.0450 C.3     1  UNL1        0.0150
     24  C         17.7140  -21.5860   -4.4220 C.3     1  UNL1        0.0150
     25  C         25.3590  -22.7440  -11.5370 C.3     1  UNL1        0.3110
     26  N         25.7450  -23.8180  -12.4680 N.3     1  UNL1        0.0950
     27  C         24.7020  -24.0400  -13.5000 C.3     1  UNL1        0.2930
     28  C         25.2480  -24.4840  -14.8700 C.3     1  UNL1        0.1650
     29  N         26.1910  -23.4730  -15.4240 N.3     1  UNL1       -0.3030
     30  C         27.0050  -22.7640  -14.4020 C.3     1  UNL1        0.1650
     31  C         27.0620  -23.5520  -13.0820 C.3     1  UNL1        0.2930
     32  S         25.7120  -22.5850  -16.7840 S.O2    1  UNL1        0.2600
     33  O         24.2790  -22.7280  -16.9340 O.2     1  UNL1       -0.2000
     34  O         26.6150  -22.9120  -17.8680 O.2     1  UNL1       -0.2000
     35  C         26.0330  -20.8960  -16.3130 C.2     1  UNL1        0.0790
     36  C         25.5020  -20.3940  -15.1210 C.2     1  UNL1        0.0250
     37  C         25.7630  -19.0740  -14.7510 C.2     1  UNL1        0.0020
     38  C         26.5650  -18.2690  -15.5620 C.2     1  UNL1        0.0000
     39  C         27.1210  -18.7820  -16.7340 C.2     1  UNL1        0.0020
     40  C         26.8650  -20.1010  -17.1090 C.2     1  UNL1        0.0250
@<TRIPOS>BOND
     1    34    32    2
     2    40    39    1
     3    40    35    2
     4    33    32    2
     5    32    35    1
     6    32    29    1
     7    39    38    2
     8    35    36    1
     9    38    37    1
    10    29    28    1
    11    29    30    1
    12    36    37    2
    13    28    27    1
    14    30    31    1
    15    27    26    1
    16    31    26    1
    17     5     6    1
    18     5     4    2
    19     6     1    2
    20    26    25    1
    21    10     7    2
    22    25     4    1
    23     4     3    1
    24     1     7    1
    25     1     2    1
    26     7     8   am
    27    12    11    1
    28     8    11    1
    29     8     9    1
    30    11    13    1
    31     3     2    2
    32    16    14    1
    33    13    14    2
    34    13    19    1
    35    14    15    1
    36    19    18    2
    37    15    17    2
    38    18    17    1
    39    18    22    1
    40    17    20    1
    41    23    22    1
    42    22    24    1
    43    20    21    1
