@<TRIPOS>MOLECULE
19941_out_ligand_01.pdbqt
 37 39 0 0 0
SMALL
GASTEIGER

@<TRIPOS>ATOM
      1  C         20.7330  -21.8430  -11.5910 C.2     1  UNL1        0.0320
      2  C         21.4630  -21.3850  -12.6900 C.2     1  UNL1        0.0190
      3  C         22.8510  -21.5190  -12.7020 C.2     1  UNL1        0.0260
      4  C         23.5070  -22.1350  -11.6270 C.2     1  UNL1        0.0280
      5  C         22.7800  -22.6320  -10.5320 C.2     1  UNL1       -0.0390
      6  C         23.4540  -23.2820   -9.3590 C.3     1  UNL1        0.0500
      7  C         21.3850  -22.4720  -10.5210 C.2     1  UNL1        0.0250
      8  C         19.2670  -21.6190  -11.5680 C.2     1  UNL1        0.2520
      9  N         18.5580  -22.5360  -10.8220 N.am    1  UNL1       -0.3490
     10  H         19.1050  -23.1240  -10.2080 H       1  UNL1        0.1630
     11  O         18.7940  -20.6550  -12.1530 O.2     1  UNL1       -0.2680
     12  C         17.1680  -22.3570  -10.4230 C.3     1  UNL1        0.1140
     13  C         16.6150  -20.9560  -10.7080 C.3     1  UNL1        0.0370
     14  C         16.9400  -22.8770   -9.0070 C.2     1  UNL1       -0.0290
     15  C         15.9880  -23.8790   -8.7230 C.2     1  UNL1       -0.0510
     16  C         15.8350  -24.3370   -7.4000 C.2     1  UNL1        0.0440
     17  C         15.1210  -24.4920   -9.7930 C.3     1  UNL1        0.0490
     18  C         16.6230  -23.8450   -6.3520 C.2     1  UNL1        0.0750
     19  C         17.5900  -22.8630   -6.6200 C.2     1  UNL1       -0.0210
     20  C         17.7380  -22.4060   -7.9460 C.2     1  UNL1        0.0200
     21  O         16.5040  -24.2540   -5.0500 O.2     1  UNL1       -0.3550
     22  C         15.2580  -24.0300   -4.4040 C.3     1  UNL1        0.2100
     23  C         18.5130  -22.2750   -5.5590 C.3     1  UNL1        0.0130
     24  C         19.6230  -21.4050   -6.1530 C.3     1  UNL1        0.0150
     25  C         17.7460  -21.5300   -4.4630 C.3     1  UNL1        0.0150
     26  N         24.9430  -22.1700  -11.6110 N.pl3   1  UNL1       -0.1810
     27  H         25.2780  -22.4540  -10.6870 H       1  UNL1        0.1460
     28  S         25.6040  -23.2890  -12.7240 S.O2    1  UNL1        0.2450
     29  O         24.7010  -24.4060  -12.9030 O.2     1  UNL1       -0.2060
     30  O         26.9860  -23.4740  -12.3370 O.2     1  UNL1       -0.2060
     31  C         25.5720  -22.3280  -14.2160 C.2     1  UNL1        0.0740
     32  C         26.1670  -21.0650  -14.2260 C.2     1  UNL1        0.0250
     33  C         26.1230  -20.2910  -15.3860 C.2     1  UNL1        0.0080
     34  C         25.4830  -20.7740  -16.5370 C.2     1  UNL1       -0.0620
     35  C         25.4070  -19.9190  -17.7680 C.3     1  UNL1        0.0480
     36  C         24.8700  -22.0340  -16.5050 C.2     1  UNL1        0.0080
     37  C         24.9120  -22.8140  -15.3480 C.2     1  UNL1        0.0250
@<TRIPOS>BOND
     1    35    34    1
     2    34    36    2
     3    34    33    1
     4    36    37    1
     5    33    32    2
     6    37    31    2
     7    32    31    1
     8    31    28    1
     9    29    28    2
    10    28    30    2
    11    28    26    1
    12     3     2    1
    13     3     4    2
    14     2     1    2
    15    11     8    2
    16     4    26    1
    17     4     5    1
    18    26    27    1
    19     1     8    1
    20     1     7    1
    21     8     9   am
    22     9    12    1
    23     9    10    1
    24    13    12    1
    25     5     7    2
    26     5     6    1
    27    12    14    1
    28    17    15    1
    29    14    15    2
    30    14    20    1
    31    15    16    1
    32    20    19    2
    33    16    18    2
    34    19    18    1
    35    19    23    1
    36    18    21    1
    37    24    23    1
    38    23    25    1
    39    21    22    1
