@<TRIPOS>MOLECULE
19959_out_ligand_01.pdbqt
 36 39 0 0 0
SMALL
GASTEIGER

@<TRIPOS>ATOM
      1  C         22.9440  -22.7040  -10.5560 C.2     1  UNL1        0.0810
      2  C         21.6440  -22.3000  -10.9020 C.2     1  UNL1        0.0420
      3  C         20.5500  -22.7430  -10.1540 C.2     1  UNL1        0.0330
      4  C         20.7500  -23.5990   -9.0680 C.2     1  UNL1        0.0170
      5  C         22.0450  -23.9970   -8.7230 C.2     1  UNL1        0.0090
      6  C         23.1610  -23.5630   -9.4600 C.2     1  UNL1       -0.0390
      7  C         24.5250  -24.0210   -9.0230 C.3     1  UNL1        0.0500
      8  C         19.1860  -22.3100  -10.5670 C.2     1  UNL1        0.2510
      9  O         19.0550  -21.4120  -11.3870 O.2     1  UNL1       -0.2680
     10  N         18.1310  -22.9550   -9.9510 N.am    1  UNL1       -0.3550
     11  H         18.3310  -23.4310   -9.0810 H       1  UNL1        0.1620
     12  C         16.7710  -22.4790  -10.1500 C.3     1  UNL1        0.1490
     13  C         15.8090  -23.0020   -9.0840 C.3     1  UNL1        0.1950
     14  O         16.5720  -23.6580   -8.0730 O.2     1  UNL1       -0.3490
     15  C         16.2530  -23.4040   -6.7600 C.2     1  UNL1        0.0790
     16  C         15.1000  -23.8820   -6.1280 C.2     1  UNL1        0.0370
     17  C         14.8510  -23.5770   -4.7910 C.2     1  UNL1        0.0040
     18  C         15.7500  -22.7900   -4.0740 C.2     1  UNL1        0.0120
     19  C         16.9120  -22.2930   -4.6830 C.2     1  UNL1       -0.0230
     20  C         17.8130  -21.4980   -3.9560 C.2     1  UNL1        0.0120
     21  C         17.1730  -22.5970   -6.0410 C.2     1  UNL1        0.0070
     22  C         18.9700  -20.9980   -4.5530 C.2     1  UNL1        0.0010
     23  C         19.2400  -21.2870   -5.8850 C.2     1  UNL1        0.0010
     24  C         18.3530  -22.0760   -6.6190 C.2     1  UNL1        0.0150
     25  S         24.2960  -22.0750  -11.5470 S.O2    1  UNL1        0.2460
     26  O         25.0620  -23.2050  -12.0210 O.2     1  UNL1       -0.2060
     27  O         24.9170  -20.9910  -10.8150 O.2     1  UNL1       -0.2060
     28  N         23.4280  -21.3560  -12.8310 N.pl3   1  UNL1       -0.1810
     29  H         23.1160  -20.4390  -12.5060 H       1  UNL1        0.1460
     30  C         24.1870  -21.2300  -14.0420 C.2     1  UNL1        0.0230
     31  C         25.1220  -20.2040  -14.1770 C.2     1  UNL1        0.0240
     32  C         25.8790  -20.1080  -15.3440 C.2     1  UNL1        0.0020
     33  C         25.7130  -21.0450  -16.3670 C.2     1  UNL1        0.0070
     34  C         24.7980  -22.0960  -16.2240 C.2     1  UNL1       -0.0600
     35  C         24.6130  -23.1110  -17.3120 C.3     1  UNL1        0.0480
     36  C         24.0340  -22.1800  -15.0520 C.2     1  UNL1        0.0310
@<TRIPOS>BOND
     1    35    34    1
     2    33    34    2
     3    33    32    1
     4    34    36    1
     5    32    31    2
     6    36    30    2
     7    31    30    1
     8    30    28    1
     9    28    29    1
    10    28    25    1
    11    26    25    2
    12    25    27    2
    13    25     1    1
    14     9     8    2
    15     2     1    2
    16     2     3    1
    17     8     3    1
    18     8    10   am
    19     1     6    1
    20     3     4    2
    21    12    10    1
    22    12    13    1
    23    10    11    1
    24     6     7    1
    25     6     5    2
    26    13    14    1
    27     4     5    1
    28    14    15    1
    29    15    16    2
    30    15    21    1
    31    24    21    1
    32    24    23    2
    33    16    17    1
    34    21    19    2
    35    23    22    1
    36    17    18    2
    37    19    18    1
    38    19    20    1
    39    22    20    2
