@<TRIPOS>MOLECULE
19957_out_ligand_01.pdbqt
 34 38 0 0 0
SMALL
GASTEIGER

@<TRIPOS>ATOM
      1  C         19.0720  -22.1670  -10.5970 C.2     1  UNL1        0.0320
      2  C         19.5450  -21.1890  -11.4780 C.2     1  UNL1        0.0170
      3  C         20.9120  -21.0870  -11.7490 C.2     1  UNL1        0.0100
      4  C         21.8240  -21.9570  -11.1360 C.2     1  UNL1       -0.0300
      5  C         21.3430  -22.9220  -10.2370 C.2     1  UNL1        0.0100
      6  C         19.9750  -23.0300   -9.9690 C.2     1  UNL1        0.0170
      7  C         17.6080  -22.2340  -10.3350 C.2     1  UNL1        0.2510
      8  O         16.8630  -21.3780  -10.7970 O.2     1  UNL1       -0.2680
      9  N         17.1710  -23.3080   -9.5840 N.am    1  UNL1       -0.3550
     10  H         17.7970  -24.0990   -9.5040 H       1  UNL1        0.1620
     11  C         15.7500  -23.5670   -9.4180 C.3     1  UNL1        0.1490
     12  C         15.4620  -24.4820   -8.2280 C.3     1  UNL1        0.1950
     13  O         16.5820  -24.4400   -7.3470 O.2     1  UNL1       -0.3490
     14  C         16.4490  -23.7510   -6.1650 C.2     1  UNL1        0.0790
     15  C         15.3980  -23.9440   -5.2610 C.2     1  UNL1        0.0370
     16  C         15.3380  -23.2030   -4.0810 C.2     1  UNL1        0.0040
     17  C         16.3260  -22.2640   -3.7940 C.2     1  UNL1        0.0120
     18  C         17.3900  -22.0500   -4.6810 C.2     1  UNL1       -0.0230
     19  C         18.3840  -21.1010   -4.3860 C.2     1  UNL1        0.0120
     20  C         17.4620  -22.7970   -5.8820 C.2     1  UNL1        0.0070
     21  C         19.4470  -20.8810   -5.2610 C.2     1  UNL1        0.0010
     22  C         19.5300  -21.6080   -6.4420 C.2     1  UNL1        0.0010
     23  C         18.5510  -22.5540   -6.7480 C.2     1  UNL1        0.0150
     24  C         23.3100  -21.8220  -11.4020 C.3     1  UNL1        0.3110
     25  N         23.7270  -22.3560  -12.7100 N.3     1  UNL1        0.0970
     26  C         24.8970  -23.2330  -12.5480 C.3     1  UNL1        0.2770
     27  C         25.2270  -23.9520  -13.8620 C.3     1  UNL1        0.0690
     28  C         25.2830  -23.0090  -15.0360 C.2     1  UNL1       -0.0490
     29  C         25.8820  -23.4140  -16.2370 C.2     1  UNL1        0.0070
     30  C         24.6870  -21.7390  -14.9440 C.2     1  UNL1       -0.0240
     31  C         25.9140  -22.5520  -17.3320 C.2     1  UNL1        0.0010
     32  C         25.3430  -21.2850  -17.2390 C.2     1  UNL1        0.0010
     33  C         24.7340  -20.8790  -16.0510 C.2     1  UNL1        0.0090
     34  C         24.0610  -21.2630  -13.6480 C.3     1  UNL1        0.3110
@<TRIPOS>BOND
     1    31    32    2
     2    31    29    1
     3    32    33    1
     4    29    28    2
     5    33    30    2
     6    28    30    1
     7    28    27    1
     8    30    34    1
     9    27    26    1
    10    34    25    1
    11    25    26    1
    12    25    24    1
    13     3     2    1
    14     3     4    2
    15     2     1    2
    16    24     4    1
    17     4     5    1
    18     8     7    2
    19     1     7    1
    20     1     6    1
    21     7     9   am
    22     5     6    2
    23     9    10    1
    24     9    11    1
    25    11    12    1
    26    12    13    1
    27    13    14    1
    28    23    22    2
    29    23    20    1
    30    22    21    1
    31    14    20    2
    32    14    15    1
    33    20    18    1
    34    15    16    2
    35    21    19    2
    36    18    19    1
    37    18    17    2
    38    16    17    1
