@<TRIPOS>MOLECULE
19956_out_ligand_01.pdbqt
 32 35 0 0 0
SMALL
GASTEIGER

@<TRIPOS>ATOM
      1  C         22.6000  -22.6200   -9.2860 C.2     1  UNL1        0.0320
      2  C         21.8710  -23.5960   -9.9760 C.2     1  UNL1        0.0170
      3  C         20.6230  -24.0110   -9.5040 C.2     1  UNL1        0.0100
      4  C         20.0850  -23.4500   -8.3370 C.2     1  UNL1       -0.0300
      5  C         20.8110  -22.4590   -7.6610 C.2     1  UNL1        0.0100
      6  C         22.0600  -22.0440   -8.1310 C.2     1  UNL1        0.0170
      7  C         23.9280  -22.2160   -9.8260 C.2     1  UNL1        0.2520
      8  N         24.7820  -23.2380  -10.1740 N.am    1  UNL1       -0.3490
      9  H         24.4290  -24.1840  -10.2240 H       1  UNL1        0.1630
     10  O         24.1980  -21.0290   -9.9700 O.2     1  UNL1       -0.2680
     11  C         26.0760  -22.9830  -10.7890 C.3     1  UNL1        0.1140
     12  C         27.1150  -24.0190  -10.3420 C.3     1  UNL1        0.0370
     13  C         25.8960  -22.9070  -12.3030 C.2     1  UNL1       -0.0290
     14  C         25.9770  -21.6790  -12.9930 C.2     1  UNL1       -0.0530
     15  C         25.7780  -21.6530  -14.3840 C.2     1  UNL1        0.0140
     16  C         26.2810  -20.3840  -12.2860 C.3     1  UNL1        0.0490
     17  C         25.4750  -22.8140  -15.1090 C.2     1  UNL1       -0.0560
     18  C         25.2750  -22.7220  -16.5960 C.3     1  UNL1        0.0490
     19  C         25.3740  -24.0370  -14.4280 C.2     1  UNL1       -0.0560
     20  C         25.5730  -24.0650  -13.0380 C.2     1  UNL1        0.0170
     21  C         25.0360  -25.3130  -15.1490 C.3     1  UNL1        0.0490
     22  C         18.7270  -23.8940   -7.8250 C.3     1  UNL1        0.3110
     23  N         17.6980  -22.8520   -7.9620 N.3     1  UNL1        0.0970
     24  C         16.3640  -23.4230   -8.2070 C.3     1  UNL1        0.2770
     25  C         15.8050  -24.2580   -7.0440 C.3     1  UNL1        0.0690
     26  C         16.0450  -23.6220   -5.6990 C.2     1  UNL1       -0.0490
     27  C         15.4050  -24.1310   -4.5610 C.2     1  UNL1        0.0070
     28  C         16.9560  -22.5580   -5.5700 C.2     1  UNL1       -0.0240
     29  C         15.6520  -23.5740   -3.3060 C.2     1  UNL1        0.0010
     30  C         16.5410  -22.5100   -3.1770 C.2     1  UNL1        0.0010
     31  C         17.1880  -22.0010   -4.3040 C.2     1  UNL1        0.0090
     32  C         17.6330  -21.9620   -6.7880 C.3     1  UNL1        0.3110
@<TRIPOS>BOND
     1    18    17    1
     2    21    19    1
     3    17    19    2
     4    17    15    1
     5    19    20    1
     6    15    14    2
     7    20    13    2
     8    14    13    1
     9    14    16    1
    10    13    11    1
    11    11    12    1
    12    11     8    1
    13     9     8    1
    14     8     7   am
    15     2     3    1
    16     2     1    2
    17    10     7    2
    18     7     1    1
    19     3     4    2
    20     1     6    1
    21     4    22    1
    22     4     5    1
    23    24    23    1
    24    24    25    1
    25     6     5    2
    26    23    22    1
    27    23    32    1
    28    25    26    1
    29    32    28    1
    30    26    28    2
    31    26    27    1
    32    28    31    1
    33    27    29    2
    34    31    30    2
    35    29    30    1
