@<TRIPOS>MOLECULE
19958_out_ligand_01.pdbqt
 36 39 0 0 0
SMALL
GASTEIGER

@<TRIPOS>ATOM
      1  C         18.4750  -22.6490   -9.6720 C.2     1  UNL1        0.0810
      2  C         19.7870  -23.1130   -9.4780 C.2     1  UNL1        0.0420
      3  C         20.8270  -22.6570  -10.2960 C.2     1  UNL1        0.0330
      4  C         20.5490  -21.7550  -11.3260 C.2     1  UNL1        0.0170
      5  C         19.2420  -21.3000  -11.5260 C.2     1  UNL1        0.0090
      6  C         18.1860  -21.7360  -10.7050 C.2     1  UNL1       -0.0390
      7  C         16.8070  -21.2090  -10.9830 C.3     1  UNL1        0.0500
      8  C         22.2000  -23.1830  -10.0600 C.2     1  UNL1        0.2510
      9  O         22.3920  -24.0500   -9.2170 O.2     1  UNL1       -0.2680
     10  N         23.2150  -22.6110  -10.7990 N.am    1  UNL1       -0.3550
     11  H         23.0480  -21.7160  -11.2380 H       1  UNL1        0.1620
     12  C         24.6030  -22.9530  -10.5290 C.3     1  UNL1        0.1490
     13  C         25.5470  -21.7700  -10.7600 C.3     1  UNL1        0.1950
     14  O         26.3460  -22.0580  -11.9140 O.2     1  UNL1       -0.3490
     15  C         26.0080  -21.4350  -13.0930 C.2     1  UNL1        0.0790
     16  C         26.0210  -20.0480  -13.2760 C.2     1  UNL1        0.0370
     17  C         25.6510  -19.4950  -14.5000 C.2     1  UNL1        0.0040
     18  C         25.2640  -20.3210  -15.5530 C.2     1  UNL1        0.0120
     19  C         25.2400  -21.7130  -15.3990 C.2     1  UNL1       -0.0230
     20  C         24.8490  -22.5410  -16.4650 C.2     1  UNL1        0.0120
     21  C         25.6120  -22.2860  -14.1580 C.2     1  UNL1        0.0070
     22  C         24.8240  -23.9280  -16.3230 C.2     1  UNL1        0.0010
     23  C         25.1890  -24.5060  -15.1140 C.2     1  UNL1        0.0010
     24  C         25.5770  -23.6950  -14.0450 C.2     1  UNL1        0.0150
     25  S         17.2060  -23.2920   -8.5830 S.O2    1  UNL1        0.2460
     26  O         16.0690  -23.6610   -9.3950 O.2     1  UNL1       -0.2060
     27  O         17.8430  -24.2400   -7.6890 O.2     1  UNL1       -0.2060
     28  N         16.8400  -21.9140   -7.6340 N.pl3   1  UNL1       -0.1810
     29  H         17.5710  -21.2220   -7.8110 H       1  UNL1        0.1460
     30  C         16.7570  -22.1950   -6.2230 C.2     1  UNL1        0.0280
     31  C         15.5490  -22.6760   -5.7010 C.2     1  UNL1        0.0250
     32  C         15.4180  -22.9150   -4.3340 C.2     1  UNL1        0.0020
     33  C         16.4900  -22.6680   -3.4820 C.2     1  UNL1        0.0010
     34  C         17.6930  -22.1800   -3.9970 C.2     1  UNL1        0.0080
     35  C         17.8430  -21.9390   -5.3720 C.2     1  UNL1       -0.0400
     36  C         19.1560  -21.4270   -5.8880 C.3     1  UNL1        0.0500
@<TRIPOS>BOND
     1    20    22    2
     2    20    19    1
     3    22    23    1
     4    18    19    2
     5    18    17    1
     6    19    21    1
     7    23    24    2
     8    17    16    2
     9    21    24    1
    10    21    15    2
    11    16    15    1
    12    15    14    1
    13    14    13    1
    14     5     4    2
    15     5     6    1
    16     4     3    1
    17    11    10    1
    18     7     6    1
    19    10    12    1
    20    10     8   am
    21    13    12    1
    22     6     1    2
    23     3     8    1
    24     3     2    2
    25     8     9    2
    26     1     2    1
    27     1    25    1
    28    26    25    2
    29    25    27    2
    30    25    28    1
    31    29    28    1
    32    28    30    1
    33    30    31    2
    34    30    35    1
    35    36    35    1
    36    31    32    1
    37    35    34    2
    38    32    33    2
    39    34    33    1
