@<TRIPOS>MOLECULE
19951_out_ligand_01.pdbqt
 37 39 0 0 0
SMALL
GASTEIGER

@<TRIPOS>ATOM
      1  C         17.5620  -23.6050   -8.5550 C.2     1  UNL1        0.0810
      2  C         18.9430  -23.8560   -8.5080 C.2     1  UNL1        0.0420
      3  C         19.7920  -23.3330   -9.4910 C.2     1  UNL1        0.0330
      4  C         19.2590  -22.5340  -10.5070 C.2     1  UNL1        0.0170
      5  C         17.8860  -22.2890  -10.5560 C.2     1  UNL1        0.0090
      6  C         17.0130  -22.8300   -9.5940 C.2     1  UNL1       -0.0390
      7  C         15.5490  -22.5100   -9.7120 C.3     1  UNL1        0.0500
      8  C         21.2480  -23.6260   -9.4040 C.2     1  UNL1        0.2510
      9  O         21.6400  -24.6890   -8.9330 O.2     1  UNL1       -0.2680
     10  N         22.0980  -22.6710   -9.9230 N.am    1  UNL1       -0.3550
     11  H         21.7220  -21.9620  -10.5370 H       1  UNL1        0.1620
     12  C         23.5310  -22.9040   -9.9690 C.3     1  UNL1        0.1490
     13  C         24.3330  -21.6440  -10.3060 C.3     1  UNL1        0.1950
     14  O         24.9550  -21.7650  -11.5850 O.2     1  UNL1       -0.3490
     15  C         25.6470  -20.7100  -12.1170 C.2     1  UNL1        0.0750
     16  C         26.4400  -19.8430  -11.3460 C.2     1  UNL1        0.0370
     17  C         27.1200  -18.7800  -11.9370 C.2     1  UNL1        0.0030
     18  C         27.0160  -18.5710  -13.3030 C.2     1  UNL1        0.0010
     19  C         26.2270  -19.4210  -14.0800 C.2     1  UNL1        0.0110
     20  C         25.5210  -20.5090  -13.5170 C.2     1  UNL1       -0.0170
     21  C         24.6520  -21.4290  -14.4130 C.3     1  UNL1       -0.0210
     22  C         24.9060  -21.1260  -15.9070 C.3     1  UNL1        0.0190
     23  C         23.1530  -21.2500  -14.0840 C.3     1  UNL1        0.0190
     24  C         24.9480  -22.9430  -14.2300 C.3     1  UNL1        0.0190
     25  S         16.5510  -24.3180   -7.2560 S.O2    1  UNL1        0.2460
     26  O         17.4480  -24.9480   -6.3090 O.2     1  UNL1       -0.2060
     27  O         15.4810  -25.0550   -7.8890 O.2     1  UNL1       -0.2060
     28  N         15.9410  -22.9160   -6.4890 N.pl3   1  UNL1       -0.1810
     29  H         15.7940  -22.2150   -7.2170 H       1  UNL1        0.1460
     30  C         16.8060  -22.3920   -5.4610 C.2     1  UNL1        0.0290
     31  C         16.5910  -22.7010   -4.1100 C.2     1  UNL1       -0.0400
     32  C         17.4830  -22.1910   -3.1530 C.2     1  UNL1        0.0090
     33  C         15.4510  -23.5700   -3.6580 C.3     1  UNL1        0.0500
     34  C         18.5680  -21.3990   -3.5340 C.2     1  UNL1        0.0070
     35  C         18.7950  -21.1060   -4.8830 C.2     1  UNL1       -0.0600
     36  C         19.9540  -20.2440   -5.2870 C.3     1  UNL1        0.0480
     37  C         17.9010  -21.5990   -5.8410 C.2     1  UNL1        0.0310
@<TRIPOS>BOND
     1    22    21    1
     2    21    24    1
     3    21    23    1
     4    21    20    1
     5    19    20    1
     6    19    18    2
     7    20    15    2
     8    18    17    1
     9    15    14    1
    10    15    16    1
    11    17    16    2
    12    14    13    1
    13     5     4    2
    14     5     6    1
    15    11    10    1
    16     4     3    1
    17    13    12    1
    18    12    10    1
    19    10     8   am
    20     7     6    1
    21     6     1    2
    22     3     8    1
    23     3     2    2
    24     8     9    2
    25     1     2    1
    26     1    25    1
    27    27    25    2
    28    25    28    1
    29    25    26    2
    30    29    28    1
    31    28    30    1
    32    37    30    2
    33    37    35    1
    34    30    31    1
    35    36    35    1
    36    35    34    2
    37    31    33    1
    38    31    32    2
    39    34    32    1
