@<TRIPOS>MOLECULE
19960_out_ligand_01.pdbqt
 37 40 0 0 0
SMALL
GASTEIGER

@<TRIPOS>ATOM
      1  C         22.9820  -22.7140  -10.5560 C.2     1  UNL1        0.0810
      2  C         21.6800  -22.3170  -10.8980 C.2     1  UNL1        0.0420
      3  C         20.5900  -22.7570  -10.1430 C.2     1  UNL1        0.0330
      4  C         20.7970  -23.6070   -9.0550 C.2     1  UNL1        0.0170
      5  C         22.0940  -24.0010   -8.7120 C.2     1  UNL1        0.0090
      6  C         23.2060  -23.5660   -9.4570 C.2     1  UNL1       -0.0390
      7  C         24.5740  -24.0140   -9.0190 C.3     1  UNL1        0.0500
      8  C         19.2270  -22.3270  -10.5520 C.2     1  UNL1        0.2510
      9  O         19.0870  -21.5020  -11.4470 O.2     1  UNL1       -0.2680
     10  N         18.1760  -22.8790   -9.8520 N.am    1  UNL1       -0.3550
     11  H         18.3580  -23.4220   -9.0190 H       1  UNL1        0.1620
     12  C         16.8020  -22.5060  -10.1400 C.3     1  UNL1        0.1490
     13  C         15.8110  -22.9670   -9.0660 C.3     1  UNL1        0.1950
     14  O         16.4750  -23.6850   -8.0260 O.2     1  UNL1       -0.3490
     15  C         16.1820  -23.4170   -6.7110 C.2     1  UNL1        0.0790
     16  C         15.0370  -23.8700   -6.0470 C.2     1  UNL1        0.0370
     17  C         14.8190  -23.5400   -4.7100 C.2     1  UNL1        0.0040
     18  C         15.7420  -22.7550   -4.0230 C.2     1  UNL1        0.0120
     19  C         16.9000  -22.2910   -4.6600 C.2     1  UNL1       -0.0230
     20  C         17.8310  -21.5030   -3.9600 C.2     1  UNL1        0.0120
     21  C         17.1330  -22.6210   -6.0180 C.2     1  UNL1        0.0070
     22  C         18.9880  -21.0380   -4.5840 C.2     1  UNL1        0.0010
     23  C         19.2310  -21.3540   -5.9150 C.2     1  UNL1        0.0010
     24  C         18.3140  -22.1360   -6.6220 C.2     1  UNL1        0.0150
     25  S         24.3300  -22.0850  -11.5520 S.O2    1  UNL1        0.2460
     26  O         24.9250  -20.9730  -10.8400 O.2     1  UNL1       -0.2060
     27  O         25.1190  -23.2140  -11.9890 O.2     1  UNL1       -0.2060
     28  N         23.4620  -21.4140  -12.8600 N.pl3   1  UNL1       -0.1810
     29  H         23.0810  -20.5180  -12.5490 H       1  UNL1        0.1460
     30  C         24.2430  -21.2510  -14.0520 C.2     1  UNL1        0.0230
     31  C         25.0870  -20.1530  -14.1820 C.2     1  UNL1        0.0250
     32  C         25.8210  -19.9770  -15.3560 C.2     1  UNL1        0.0090
     33  C         25.7110  -20.8910  -16.4160 C.2     1  UNL1       -0.0560
     34  C         26.5250  -20.6700  -17.6620 C.3     1  UNL1        0.0490
     35  C         24.8520  -22.0010  -16.2850 C.2     1  UNL1       -0.0540
     36  C         24.1110  -22.1610  -15.1010 C.2     1  UNL1        0.0310
     37  C         24.6920  -23.0060  -17.3940 C.3     1  UNL1        0.0490
@<TRIPOS>BOND
     1    34    33    1
     2    37    35    1
     3    33    35    2
     4    33    32    1
     5    35    36    1
     6    32    31    2
     7    36    30    2
     8    31    30    1
     9    30    28    1
    10    28    29    1
    11    28    25    1
    12    27    25    2
    13    25    26    2
    14    25     1    1
    15     9     8    2
    16     2     1    2
    17     2     3    1
    18     1     6    1
    19     8     3    1
    20     8    10   am
    21     3     4    2
    22    12    10    1
    23    12    13    1
    24    10    11    1
    25     6     7    1
    26     6     5    2
    27    13    14    1
    28     4     5    1
    29    14    15    1
    30    15    16    2
    31    15    21    1
    32    24    21    1
    33    24    23    2
    34    16    17    1
    35    21    19    2
    36    23    22    1
    37    17    18    2
    38    19    18    1
    39    19    20    1
    40    22    20    2
