@<TRIPOS>MOLECULE
19966_out_ligand_01.pdbqt
 33 35 0 0 0
SMALL
GASTEIGER

@<TRIPOS>ATOM
      1  C         21.3140  -21.8560  -10.5260 C.2     1  UNL1        0.0390
      2  C         20.6350  -21.2850  -11.6090 C.2     1  UNL1        0.0170
      3  C         19.2710  -21.5140  -11.7670 C.2     1  UNL1        0.0030
      4  C         18.5980  -22.3050  -10.8390 C.2     1  UNL1        0.0250
      5  C         19.2730  -22.8510   -9.7410 C.2     1  UNL1        0.0290
      6  C         20.6530  -22.6430   -9.5650 C.2     1  UNL1       -0.0240
      7  C         21.3830  -23.2280   -8.3870 C.3     1  UNL1        0.0510
      8  C         22.7690  -21.6160  -10.4570 C.2     1  UNL1        0.2520
      9  N         23.4680  -22.1470  -11.5150 N.am    1  UNL1       -0.3490
     10  H         22.9520  -22.5630  -12.2810 H       1  UNL1        0.1630
     11  O         23.2410  -20.9840   -9.5230 O.2     1  UNL1       -0.2680
     12  C         24.8960  -21.9400  -11.6870 C.3     1  UNL1        0.1140
     13  C         25.6750  -23.1490  -11.1580 C.3     1  UNL1        0.0370
     14  C         25.1800  -21.6280  -13.1520 C.2     1  UNL1       -0.0290
     15  C         25.8950  -20.4750  -13.5390 C.2     1  UNL1       -0.0530
     16  C         26.1130  -20.2240  -14.9050 C.2     1  UNL1        0.0140
     17  C         26.4430  -19.4960  -12.5340 C.3     1  UNL1        0.0490
     18  C         25.6120  -21.0740  -15.9020 C.2     1  UNL1       -0.0560
     19  C         25.8800  -20.7500  -17.3470 C.3     1  UNL1        0.0490
     20  C         24.8830  -22.2140  -15.5260 C.2     1  UNL1       -0.0560
     21  C         24.6710  -22.4710  -14.1610 C.2     1  UNL1        0.0170
     22  C         24.3040  -23.1530  -16.5490 C.3     1  UNL1        0.0490
     23  N         18.5190  -23.7050   -8.8680 N.pl3   1  UNL1       -0.1810
     24  H         18.2830  -24.5990   -9.3050 H       1  UNL1        0.1460
     25  S         17.0570  -23.0380   -8.2900 S.O2    1  UNL1        0.2450
     26  O         16.1590  -24.1590   -8.0940 O.2     1  UNL1       -0.2060
     27  O         16.6710  -21.8810   -9.0700 O.2     1  UNL1       -0.2060
     28  C         17.5730  -22.4570   -6.6890 C.2     1  UNL1        0.0740
     29  C         18.7130  -21.6470   -6.5880 C.2     1  UNL1        0.0250
     30  C         19.0980  -21.1490   -5.3410 C.2     1  UNL1        0.0020
     31  C         18.3440  -21.4570   -4.2050 C.2     1  UNL1        0.0000
     32  C         17.2050  -22.2550   -4.3110 C.2     1  UNL1        0.0020
     33  C         16.8080  -22.7580   -5.5570 C.2     1  UNL1        0.0250
@<TRIPOS>BOND
     1    19    18    1
     2    22    20    1
     3    18    20    2
     4    18    16    1
     5    20    21    1
     6    16    15    2
     7    21    14    2
     8    15    14    1
     9    15    17    1
    10    14    12    1
    11    10     9    1
    12     3     2    1
    13     3     4    2
    14    12     9    1
    15    12    13    1
    16     2     1    2
    17     9     8   am
    18     4     5    1
    19     1     8    1
    20     1     6    1
    21     8    11    2
    22     5     6    2
    23     5    23    1
    24     6     7    1
    25    24    23    1
    26    27    25    2
    27    23    25    1
    28    25    26    2
    29    25    28    1
    30    28    29    2
    31    28    33    1
    32    29    30    1
    33    33    32    2
    34    30    31    2
    35    32    31    1
