@<TRIPOS>MOLECULE
19961_out_ligand_01.pdbqt
 33 35 0 0 0
SMALL
GASTEIGER

@<TRIPOS>ATOM
      1  C         20.3620  -22.7650  -10.6290 C.2     1  UNL1        0.0330
      2  C         19.8910  -21.7090  -11.4180 C.2     1  UNL1        0.0170
      3  C         20.7180  -21.1400  -12.3920 C.2     1  UNL1        0.0090
      4  C         22.0200  -21.6180  -12.5980 C.2     1  UNL1       -0.0400
      5  C         22.8740  -20.9700  -13.6510 C.3     1  UNL1        0.0500
      6  C         22.4970  -22.6530  -11.7820 C.2     1  UNL1        0.0290
      7  C         21.6780  -23.2130  -10.7970 C.2     1  UNL1        0.0420
      8  C         19.5190  -23.4400   -9.6020 C.2     1  UNL1        0.2520
      9  N         18.2770  -22.8960   -9.3620 N.am    1  UNL1       -0.3490
     10  H         17.9660  -22.0870   -9.8780 H       1  UNL1        0.1630
     11  O         19.9280  -24.4530   -9.0480 O.2     1  UNL1       -0.2680
     12  C         17.3410  -23.4850   -8.4180 C.3     1  UNL1        0.1140
     13  C         15.8800  -23.3990   -8.8780 C.3     1  UNL1        0.0370
     14  C         17.5510  -22.8980   -7.0240 C.2     1  UNL1       -0.0290
     15  C         16.7490  -23.1800   -5.9000 C.2     1  UNL1       -0.0530
     16  C         17.0770  -22.5940   -4.6600 C.2     1  UNL1        0.0140
     17  C         15.5890  -24.1400   -5.9060 C.3     1  UNL1        0.0490
     18  C         18.1620  -21.7180   -4.5100 C.2     1  UNL1       -0.0560
     19  C         18.4720  -21.1480   -3.1530 C.3     1  UNL1        0.0490
     20  C         18.9440  -21.4090   -5.6300 C.2     1  UNL1       -0.0560
     21  C         18.6310  -22.0020   -6.8640 C.2     1  UNL1        0.0170
     22  C         20.1330  -20.4940   -5.5320 C.3     1  UNL1        0.0490
     23  N         23.8520  -23.1170  -11.9070 N.pl3   1  UNL1       -0.1810
     24  H         23.9200  -24.0960  -11.6210 H       1  UNL1        0.1460
     25  S         24.9670  -22.2630  -10.9290 S.O2    1  UNL1        0.2450
     26  O         24.2700  -21.3430  -10.0560 O.2     1  UNL1       -0.2060
     27  O         25.9070  -23.2420  -10.4220 O.2     1  UNL1       -0.2060
     28  C         25.7960  -21.2950  -12.1680 C.2     1  UNL1        0.0740
     29  C         26.1800  -21.8840  -13.3730 C.2     1  UNL1        0.0250
     30  C         26.8430  -21.1140  -14.3320 C.2     1  UNL1        0.0020
     31  C         27.1210  -19.7710  -14.0790 C.2     1  UNL1        0.0000
     32  C         26.7470  -19.1920  -12.8670 C.2     1  UNL1        0.0020
     33  C         26.0840  -19.9540  -11.9040 C.2     1  UNL1        0.0250
@<TRIPOS>BOND
     1    30    31    2
     2    30    29    1
     3    31    32    1
     4     5     4    1
     5    29    28    2
     6    32    33    2
     7     4     3    2
     8     4     6    1
     9     3     2    1
    10    28    33    1
    11    28    25    1
    12    23     6    1
    13    23    24    1
    14    23    25    1
    15     6     7    2
    16     2     1    2
    17    25    27    2
    18    25    26    2
    19     7     1    1
    20     1     8    1
    21    10     9    1
    22     8     9   am
    23     8    11    2
    24     9    12    1
    25    13    12    1
    26    12    14    1
    27    14    21    2
    28    14    15    1
    29    21    20    1
    30    17    15    1
    31    15    16    2
    32    20    22    1
    33    20    18    2
    34    16    18    1
    35    18    19    1
