@<TRIPOS>MOLECULE
19962_out_ligand_01.pdbqt
 34 36 0 0 0
SMALL
GASTEIGER

@<TRIPOS>ATOM
      1  C         19.4760  -22.4760  -10.4730 C.2     1  UNL1        0.0290
      2  C         20.8330  -22.7400  -10.6810 C.2     1  UNL1        0.0420
      3  C         21.5540  -21.9960  -11.6200 C.2     1  UNL1        0.0330
      4  C         20.9190  -20.9830  -12.3450 C.2     1  UNL1        0.0170
      5  C         19.5600  -20.7300  -12.1430 C.2     1  UNL1        0.0090
      6  C         18.8240  -21.4690  -11.2020 C.2     1  UNL1       -0.0400
      7  C         17.3600  -21.1810  -11.0240 C.3     1  UNL1        0.0500
      8  C         22.9990  -22.2950  -11.7930 C.2     1  UNL1        0.2520
      9  O         23.5910  -22.9540  -10.9470 O.2     1  UNL1       -0.2680
     10  N         23.5860  -21.8060  -12.9380 N.am    1  UNL1       -0.3490
     11  H         23.0170  -21.3450  -13.6320 H       1  UNL1        0.1630
     12  C         24.9950  -21.9990  -13.2310 C.3     1  UNL1        0.1140
     13  C         25.2940  -23.3220  -13.9450 C.3     1  UNL1        0.0370
     14  C         25.5770  -20.8000  -13.9740 C.2     1  UNL1       -0.0290
     15  C         25.3890  -20.7710  -15.3750 C.2     1  UNL1        0.0170
     16  C         25.8740  -19.7300  -16.1810 C.2     1  UNL1       -0.0560
     17  C         25.6360  -19.7730  -17.6660 C.3     1  UNL1        0.0490
     18  C         26.5690  -18.6720  -15.5810 C.2     1  UNL1       -0.0560
     19  C         27.1210  -17.5310  -16.3900 C.3     1  UNL1        0.0490
     20  C         26.7630  -18.6890  -14.1910 C.2     1  UNL1        0.0140
     21  C         26.2700  -19.7280  -13.3750 C.2     1  UNL1       -0.0530
     22  C         26.5910  -19.6270  -11.9060 C.3     1  UNL1        0.0490
     23  N         18.7390  -23.2930   -9.5490 N.pl3   1  UNL1       -0.1810
     24  H         17.8780  -22.8180   -9.2670 H       1  UNL1        0.1460
     25  S         19.5860  -23.6420   -8.1060 S.O2    1  UNL1        0.2450
     26  O         19.9850  -25.0330   -8.0830 O.2     1  UNL1       -0.2060
     27  O         20.5400  -22.5680   -7.9240 O.2     1  UNL1       -0.2060
     28  C         18.2850  -23.4380   -6.9160 C.2     1  UNL1        0.0740
     29  C         17.1580  -24.2610   -6.9600 C.2     1  UNL1        0.0250
     30  C         16.1420  -24.0840   -6.0180 C.2     1  UNL1        0.0080
     31  C         16.2500  -23.0920   -5.0330 C.2     1  UNL1       -0.0620
     32  C         15.1410  -22.8820   -4.0430 C.3     1  UNL1        0.0480
     33  C         17.3760  -22.2570   -5.0190 C.2     1  UNL1        0.0080
     34  C         18.3940  -22.4270   -5.9580 C.2     1  UNL1        0.0250
@<TRIPOS>BOND
     1    17    16    1
     2    19    18    1
     3    16    18    2
     4    16    15    1
     5    18    20    1
     6    15    14    2
     7    20    21    2
     8    14    21    1
     9    14    12    1
    10    13    12    1
    11    11    10    1
    12    21    22    1
    13    12    10    1
    14    10     8   am
    15     4     5    2
    16     4     3    1
    17     5     6    1
    18     8     3    1
    19     8     9    2
    20     3     2    2
    21     6     7    1
    22     6     1    2
    23     2     1    1
    24     1    23    1
    25    23    24    1
    26    23    25    1
    27    25    26    2
    28    25    27    2
    29    25    28    1
    30    29    28    2
    31    29    30    1
    32    28    34    1
    33    30    31    2
    34    34    33    2
    35    31    33    1
    36    31    32    1
