@<TRIPOS>MOLECULE
19965_out_ligand_01.pdbqt
 33 35 0 0 0
SMALL
GASTEIGER

@<TRIPOS>ATOM
      1  C         21.4380  -22.6280  -11.1490 C.2     1  UNL1        0.0230
      2  C         21.7580  -21.7300  -12.1670 C.2     1  UNL1        0.0240
      3  C         20.7920  -20.8480  -12.6500 C.2     1  UNL1        0.0030
      4  C         19.5100  -20.8480  -12.0970 C.2     1  UNL1        0.0170
      5  C         19.2010  -21.7290  -11.0500 C.2     1  UNL1        0.0330
      6  C         20.1660  -22.6280  -10.5800 C.2     1  UNL1        0.0410
      7  C         17.8550  -21.7490  -10.4220 C.2     1  UNL1        0.2520
      8  O         17.0410  -20.8750  -10.6900 O.2     1  UNL1       -0.2680
      9  N         17.6080  -22.8010   -9.5720 N.am    1  UNL1       -0.3490
     10  H         18.2570  -23.5750   -9.5330 H       1  UNL1        0.1630
     11  C         16.3130  -22.9990   -8.9420 C.3     1  UNL1        0.1140
     12  C         15.5640  -24.1700   -9.5900 C.3     1  UNL1        0.0370
     13  C         16.5230  -23.1410   -7.4380 C.2     1  UNL1       -0.0290
     14  C         15.5620  -22.6500   -6.5310 C.2     1  UNL1        0.0170
     15  C         15.7100  -22.7850   -5.1390 C.2     1  UNL1       -0.0560
     16  C         14.6550  -22.2200   -4.2260 C.3     1  UNL1        0.0490
     17  C         16.8490  -23.4300   -4.6310 C.2     1  UNL1       -0.0560
     18  C         17.0630  -23.6050   -3.1530 C.3     1  UNL1        0.0490
     19  C         17.7990  -23.9420   -5.5260 C.2     1  UNL1        0.0140
     20  C         17.6440  -23.8230   -6.9190 C.2     1  UNL1       -0.0530
     21  C         18.7100  -24.4100   -7.8080 C.3     1  UNL1        0.0490
     22  N         22.4660  -23.4840  -10.6300 N.pl3   1  UNL1       -0.1810
     23  H         22.0890  -24.0940   -9.9010 H       1  UNL1        0.1460
     24  S         23.7660  -22.6340   -9.9140 S.O2    1  UNL1        0.2450
     25  O         24.4610  -23.5880   -9.0740 O.2     1  UNL1       -0.2060
     26  O         23.3110  -21.3570   -9.4090 O.2     1  UNL1       -0.2060
     27  C         24.7710  -22.3170  -11.3420 C.2     1  UNL1        0.0740
     28  C         25.4340  -21.0960  -11.4750 C.2     1  UNL1        0.0250
     29  C         26.1990  -20.8510  -12.6170 C.2     1  UNL1        0.0080
     30  C         26.2890  -21.8120  -13.6320 C.2     1  UNL1       -0.0620
     31  C         27.1210  -21.5600  -14.8570 C.3     1  UNL1        0.0480
     32  C         25.6170  -23.0340  -13.4840 C.2     1  UNL1        0.0080
     33  C         24.8530  -23.2870  -12.3440 C.2     1  UNL1        0.0250
@<TRIPOS>BOND
     1    31    30    1
     2    30    32    2
     3    30    29    1
     4    32    33    1
     5     3     2    1
     6     3     4    2
     7    29    28    2
     8    33    27    2
     9     2     1    2
    10     4     5    1
    11    28    27    1
    12    27    24    1
    13     1    22    1
    14     1     6    1
    15     5     6    2
    16     5     7    1
    17     8     7    2
    18    22    24    1
    19    22    23    1
    20     7     9   am
    21    24    26    2
    22    24    25    2
    23    12    11    1
    24     9    10    1
    25     9    11    1
    26    11    13    1
    27    21    20    1
    28    13    20    2
    29    13    14    1
    30    20    19    1
    31    14    15    2
    32    19    17    2
    33    15    17    1
    34    15    16    1
    35    17    18    1
