@<TRIPOS>MOLECULE
19969_out_ligand_01.pdbqt
 34 36 0 0 0
SMALL
GASTEIGER

@<TRIPOS>ATOM
      1  C         21.1490  -22.1030  -11.1160 C.2     1  UNL1        0.0330
      2  C         20.5830  -21.2160  -12.0360 C.2     1  UNL1        0.0170
      3  C         19.2200  -20.9100  -11.9670 C.2     1  UNL1        0.0090
      4  C         18.3950  -21.4770  -10.9820 C.2     1  UNL1       -0.0390
      5  C         16.9340  -21.1210  -10.9860 C.3     1  UNL1        0.0500
      6  C         18.9710  -22.3870  -10.0720 C.2     1  UNL1        0.0810
      7  C         20.3380  -22.7010  -10.1450 C.2     1  UNL1        0.0420
      8  C         22.5940  -22.4640  -11.1530 C.2     1  UNL1        0.2520
      9  N         23.2150  -22.3810  -12.3780 N.am    1  UNL1       -0.3490
     10  H         22.7430  -21.9380  -13.1550 H       1  UNL1        0.1630
     11  O         23.1730  -22.7800  -10.1200 O.2     1  UNL1       -0.2680
     12  C         24.6350  -22.6560  -12.5410 C.3     1  UNL1        0.1140
     13  C         24.8600  -23.9690  -13.3040 C.3     1  UNL1        0.0370
     14  C         25.3020  -21.4510  -13.1970 C.2     1  UNL1       -0.0290
     15  C         25.9690  -20.4710  -12.4330 C.2     1  UNL1       -0.0530
     16  C         26.5550  -19.3700  -13.0840 C.2     1  UNL1        0.0140
     17  C         26.0920  -20.5670  -10.9360 C.3     1  UNL1        0.0490
     18  C         26.4760  -19.2050  -14.4740 C.2     1  UNL1       -0.0560
     19  C         27.1190  -18.0030  -15.1100 C.3     1  UNL1        0.0490
     20  C         25.7810  -20.1560  -15.2360 C.2     1  UNL1       -0.0560
     21  C         25.2040  -21.2620  -14.5910 C.2     1  UNL1        0.0170
     22  C         25.6470  -20.0210  -16.7290 C.3     1  UNL1        0.0490
     23  S         18.0000  -23.1950   -8.8030 S.O2    1  UNL1        0.2460
     24  O         18.8970  -24.0070   -8.0080 O.2     1  UNL1       -0.2060
     25  O         16.8280  -23.7560   -9.4380 O.2     1  UNL1       -0.2060
     26  N         17.5780  -21.8510   -7.8370 N.pl3   1  UNL1       -0.1810
     27  H         18.3240  -21.1620   -7.9210 H       1  UNL1        0.1460
     28  C         17.2950  -22.1680   -6.4620 C.2     1  UNL1        0.0280
     29  C         16.1260  -22.8780   -6.1730 C.2     1  UNL1        0.0250
     30  C         15.8160  -23.2260   -4.8590 C.2     1  UNL1        0.0020
     31  C         16.6790  -22.8690   -3.8280 C.2     1  UNL1        0.0010
     32  C         17.8510  -22.1650   -4.1100 C.2     1  UNL1        0.0080
     33  C         18.1770  -21.8060   -5.4280 C.2     1  UNL1       -0.0400
     34  C         19.4530  -21.0520   -5.6800 C.3     1  UNL1        0.0500
@<TRIPOS>BOND
     1    22    20    1
     2    20    21    1
     3    20    18    2
     4    19    18    1
     5    21    14    2
     6    18    16    1
     7    13    12    1
     8    14    12    1
     9    14    15    1
    10    10     9    1
    11    16    15    2
    12    12     9    1
    13    15    17    1
    14     9     8   am
    15     2     3    1
    16     2     1    2
    17     3     4    2
    18     8     1    1
    19     8    11    2
    20     1     7    1
    21     5     4    1
    22     4     6    1
    23     7     6    2
    24     6    23    1
    25    25    23    2
    26    23    24    2
    27    23    26    1
    28    27    26    1
    29    26    28    1
    30    28    29    2
    31    28    33    1
    32    29    30    1
    33    34    33    1
    34    33    32    2
    35    30    31    2
    36    32    31    1
