@<TRIPOS>MOLECULE
19968_out_ligand_01.pdbqt
 33 35 0 0 0
SMALL
GASTEIGER

@<TRIPOS>ATOM
      1  C         21.2040  -22.3740  -10.9780 C.2     1  UNL1        0.0330
      2  C         20.5930  -21.5110  -11.8910 C.2     1  UNL1        0.0170
      3  C         19.2310  -21.2180  -11.7730 C.2     1  UNL1        0.0090
      4  C         18.4500  -21.7910  -10.7540 C.2     1  UNL1       -0.0390
      5  C         16.9940  -21.4220  -10.6800 C.3     1  UNL1        0.0500
      6  C         19.0770  -22.6640   -9.8420 C.2     1  UNL1        0.0810
      7  C         20.4450  -22.9540   -9.9580 C.2     1  UNL1        0.0420
      8  C         22.6460  -22.7300  -11.0770 C.2     1  UNL1        0.2520
      9  N         23.2410  -22.5240  -12.3000 N.am    1  UNL1       -0.3490
     10  H         22.7530  -21.9920  -13.0090 H       1  UNL1        0.1630
     11  O         23.2360  -23.1550  -10.0920 O.2     1  UNL1       -0.2680
     12  C         24.6630  -22.7500  -12.5080 C.3     1  UNL1        0.1140
     13  C         24.9090  -24.0700  -13.2490 C.3     1  UNL1        0.0370
     14  C         25.2610  -21.5310  -13.2030 C.2     1  UNL1       -0.0290
     15  C         25.9130  -20.5150  -12.4730 C.2     1  UNL1       -0.0530
     16  C         26.4270  -19.3960  -13.1510 C.2     1  UNL1        0.0140
     17  C         26.0910  -20.5920  -10.9780 C.3     1  UNL1        0.0490
     18  C         26.2880  -19.2440  -14.5370 C.2     1  UNL1       -0.0560
     19  C         26.8670  -18.0280  -15.2080 C.3     1  UNL1        0.0490
     20  C         25.6240  -20.2400  -15.2700 C.2     1  UNL1       -0.0560
     21  C         25.1110  -21.3590  -14.5940 C.2     1  UNL1        0.0170
     22  C         25.4400  -20.1280  -16.7590 C.3     1  UNL1        0.0490
     23  S         18.1810  -23.4260   -8.4930 S.O2    1  UNL1        0.2460
     24  O         16.8800  -23.8230   -8.9890 O.2     1  UNL1       -0.2060
     25  O         19.0660  -24.3720   -7.8490 O.2     1  UNL1       -0.2060
     26  N         17.9200  -22.0700   -7.4880 N.pl3   1  UNL1       -0.1810
     27  H         17.5650  -21.3200   -8.0830 H       1  UNL1        0.1460
     28  C         17.0210  -22.3230   -6.4000 C.2     1  UNL1        0.0220
     29  C         15.6460  -22.2270   -6.6060 C.2     1  UNL1        0.0240
     30  C         14.7670  -22.4310   -5.5420 C.2     1  UNL1        0.0020
     31  C         15.2650  -22.7170   -4.2710 C.2     1  UNL1        0.0000
     32  C         16.6430  -22.7920   -4.0610 C.2     1  UNL1        0.0020
     33  C         17.5240  -22.5890   -5.1250 C.2     1  UNL1        0.0240
@<TRIPOS>BOND
     1    22    20    1
     2    20    21    1
     3    20    18    2
     4    19    18    1
     5    21    14    2
     6    18    16    1
     7    13    12    1
     8    14    12    1
     9    14    15    1
    10    16    15    2
    11    10     9    1
    12    12     9    1
    13    15    17    1
    14     9     8   am
    15     2     3    1
    16     2     1    2
    17     3     4    2
    18     8     1    1
    19     8    11    2
    20     1     7    1
    21     4     5    1
    22     4     6    1
    23     7     6    2
    24     6    23    1
    25    24    23    2
    26    23    25    2
    27    23    26    1
    28    27    26    1
    29    26    28    1
    30    29    28    2
    31    29    30    1
    32    28    33    1
    33    30    31    2
    34    33    32    2
    35    31    32    1
