@<TRIPOS>MOLECULE
19963_out_ligand_01.pdbqt
 34 36 0 0 0
SMALL
GASTEIGER

@<TRIPOS>ATOM
      1  C         23.3770  -22.6370  -11.4670 C.2     1  UNL1        0.0280
      2  C         22.6000  -22.0310  -12.4620 C.2     1  UNL1        0.0260
      3  C         21.2460  -21.7730  -12.2350 C.2     1  UNL1        0.0190
      4  C         20.6650  -22.1380  -11.0150 C.2     1  UNL1        0.0320
      5  C         21.4520  -22.7260  -10.0150 C.2     1  UNL1        0.0250
      6  C         22.8150  -22.9830  -10.2290 C.2     1  UNL1       -0.0390
      7  C         23.6160  -23.6600   -9.1540 C.3     1  UNL1        0.0500
      8  C         19.2200  -21.9190  -10.7380 C.2     1  UNL1        0.2520
      9  O         18.7190  -20.8340  -11.0040 O.2     1  UNL1       -0.2680
     10  N         18.5610  -22.9790  -10.1530 N.am    1  UNL1       -0.3490
     11  H         19.1470  -23.6990   -9.7520 H       1  UNL1        0.1630
     12  C         17.2270  -22.9050   -9.5630 C.3     1  UNL1        0.1140
     13  C         16.3210  -21.8080  -10.1280 C.3     1  UNL1        0.0370
     14  C         17.3130  -22.9130   -8.0410 C.2     1  UNL1       -0.0290
     15  C         18.1880  -22.0180   -7.3950 C.2     1  UNL1        0.0170
     16  C         18.3460  -21.9990   -5.9990 C.2     1  UNL1       -0.0560
     17  C         19.2990  -21.0090   -5.3860 C.3     1  UNL1        0.0490
     18  C         17.5890  -22.8810   -5.2120 C.2     1  UNL1       -0.0560
     19  C         17.7110  -22.9010   -3.7140 C.3     1  UNL1        0.0490
     20  C         16.7160  -23.7800   -5.8440 C.2     1  UNL1        0.0140
     21  C         16.5720  -23.8130   -7.2450 C.2     1  UNL1       -0.0530
     22  C         15.6090  -24.8060   -7.8370 C.3     1  UNL1        0.0490
     23  N         24.7420  -22.9750  -11.7510 N.pl3   1  UNL1       -0.1810
     24  H         25.0660  -23.7200  -11.1310 H       1  UNL1        0.1460
     25  S         25.8400  -21.6810  -11.5420 S.O2    1  UNL1        0.2450
     26  O         25.2670  -20.6690  -10.6820 O.2     1  UNL1       -0.2060
     27  O         27.1210  -22.2910  -11.2560 O.2     1  UNL1       -0.2060
     28  C         25.8910  -21.0300  -13.1940 C.2     1  UNL1        0.0740
     29  C         25.9680  -19.6470  -13.3860 C.2     1  UNL1        0.0250
     30  C         26.0230  -19.1360  -14.6830 C.2     1  UNL1        0.0080
     31  C         26.0210  -20.0000  -15.7880 C.2     1  UNL1       -0.0620
     32  C         26.0520  -19.4400  -17.1800 C.3     1  UNL1        0.0480
     33  C         25.9470  -21.3860  -15.5800 C.2     1  UNL1        0.0080
     34  C         25.8900  -21.9030  -14.2840 C.2     1  UNL1        0.0250
@<TRIPOS>BOND
     1    32    31    1
     2    31    33    2
     3    31    30    1
     4    33    34    1
     5    30    29    2
     6    34    28    2
     7    29    28    1
     8    28    25    1
     9     2     3    1
    10     2     1    2
    11     3     4    2
    12    23    25    1
    13    23     1    1
    14    23    24    1
    15    25    27    2
    16    25    26    2
    17     1     6    1
    18     4     8    1
    19     4     5    1
    20     9     8    2
    21     8    10   am
    22     6     5    2
    23     6     7    1
    24    10    11    1
    25    10    12    1
    26    13    12    1
    27    12    14    1
    28    14    15    2
    29    14    21    1
    30    22    21    1
    31    15    16    1
    32    21    20    2
    33    16    17    1
    34    16    18    2
    35    20    18    1
    36    18    19    1
