@<TRIPOS>MOLECULE
19964_out_ligand_01.pdbqt
 32 34 0 0 0
SMALL
GASTEIGER

@<TRIPOS>ATOM
      1  C         19.3310  -21.7360  -11.0820 C.2     1  UNL1        0.0330
      2  C         19.6960  -20.8420  -12.0980 C.2     1  UNL1        0.0170
      3  C         20.9970  -20.8500  -12.6030 C.2     1  UNL1        0.0030
      4  C         21.9340  -21.7500  -12.0970 C.2     1  UNL1        0.0240
      5  C         21.5740  -22.6430  -11.0890 C.2     1  UNL1        0.0230
      6  C         20.2720  -22.6530  -10.5910 C.2     1  UNL1        0.0410
      7  C         17.9550  -21.7730  -10.5170 C.2     1  UNL1        0.2520
      8  N         17.7120  -22.7290   -9.5580 N.am    1  UNL1       -0.3490
      9  H         18.3960  -23.4440   -9.3630 H       1  UNL1        0.1630
     10  O         17.1030  -20.9910  -10.9230 O.2     1  UNL1       -0.2680
     11  C         16.4100  -22.8750   -8.9230 C.3     1  UNL1        0.1140
     12  C         15.6020  -23.9890   -9.6000 C.3     1  UNL1        0.0370
     13  C         16.6200  -23.0520   -7.4210 C.2     1  UNL1       -0.0290
     14  C         17.7400  -23.7550   -6.9260 C.2     1  UNL1       -0.0530
     15  C         17.8970  -23.9210   -5.5390 C.2     1  UNL1        0.0140
     16  C         18.7970  -24.3210   -7.8410 C.3     1  UNL1        0.0490
     17  C         16.9600  -23.4210   -4.6250 C.2     1  UNL1       -0.0560
     18  C         17.1800  -23.6380   -3.1530 C.3     1  UNL1        0.0490
     19  C         15.8230  -22.7560   -5.1100 C.2     1  UNL1       -0.0560
     20  C         15.6690  -22.5790   -6.4960 C.2     1  UNL1        0.0170
     21  C         14.7790  -22.2040   -4.1770 C.3     1  UNL1        0.0490
     22  N         22.5350  -23.5980  -10.6170 N.pl3   1  UNL1       -0.1810
     23  H         23.0430  -24.0200  -11.3970 H       1  UNL1        0.1460
     24  S         23.7160  -22.9390   -9.5690 S.O2    1  UNL1        0.2450
     25  O         23.1260  -21.7590   -8.9750 O.2     1  UNL1       -0.2060
     26  O         24.3150  -23.9880   -8.7710 O.2     1  UNL1       -0.2060
     27  C         24.9310  -22.4120  -10.7540 C.2     1  UNL1        0.0740
     28  C         25.3730  -21.0840  -10.7270 C.2     1  UNL1        0.0250
     29  C         26.3230  -20.6610  -11.6570 C.2     1  UNL1        0.0020
     30  C         26.8200  -21.5570  -12.6060 C.2     1  UNL1        0.0000
     31  C         26.3660  -22.8780  -12.6330 C.2     1  UNL1        0.0020
     32  C         25.4150  -23.3100  -11.7090 C.2     1  UNL1        0.0250
@<TRIPOS>BOND
     1    31    30    2
     2    31    32    1
     3    30    29    1
     4     3     2    1
     5     3     4    2
     6     2     1    2
     7     4     5    1
     8    32    27    2
     9    29    28    2
    10    23    22    1
    11     5    22    1
    12     5     6    2
    13     1     6    1
    14     1     7    1
    15    10     7    2
    16    27    28    1
    17    27    24    1
    18    22    24    1
    19     7     8   am
    20    12    11    1
    21    24    25    2
    22    24    26    2
    23     8     9    1
    24     8    11    1
    25    11    13    1
    26    16    14    1
    27    13    14    2
    28    13    20    1
    29    14    15    1
    30    20    19    2
    31    15    17    2
    32    19    17    1
    33    19    21    1
    34    17    18    1
