@<TRIPOS>MOLECULE
19978_out_ligand_01.pdbqt
 34 36 0 0 0
SMALL
GASTEIGER

@<TRIPOS>ATOM
      1  C         21.0420  -22.3190  -10.9870 C.2     1  UNL1        0.0330
      2  C         20.4090  -21.4700  -11.8980 C.2     1  UNL1        0.0190
      3  C         19.0450  -21.1940  -11.7630 C.2     1  UNL1        0.0260
      4  C         18.3000  -21.7510  -10.7160 C.2     1  UNL1        0.0570
      5 CL         16.6240  -21.3470  -10.6710 Cl      1  UNL1       -0.0830
      6  C         18.9350  -22.5880   -9.7970 C.2     1  UNL1        0.0970
      7  C         20.3070  -22.8660   -9.9270 C.2     1  UNL1        0.0430
      8  C         22.4940  -22.6420  -11.0810 C.2     1  UNL1        0.2520
      9  N         23.1310  -22.2670  -12.2400 N.am    1  UNL1       -0.3490
     10  H         22.6110  -21.8670  -13.0060 H       1  UNL1        0.1630
     11  O         23.0450  -23.2330  -10.1600 O.2     1  UNL1       -0.2680
     12  C         24.5490  -22.5120  -12.4590 C.3     1  UNL1        0.1140
     13  C         24.8220  -23.8870  -13.0750 C.3     1  UNL1        0.0370
     14  C         25.1610  -21.3480  -13.2320 C.2     1  UNL1       -0.0290
     15  C         25.9670  -20.3360  -12.6700 C.2     1  UNL1       -0.0530
     16  C         26.4650  -19.3150  -13.5040 C.2     1  UNL1        0.0140
     17  C         26.2950  -20.2440  -11.2050 C.3     1  UNL1        0.0490
     18  C         26.2140  -19.2870  -14.8840 C.2     1  UNL1       -0.0560
     19  C         26.7800  -18.1700  -15.7170 C.3     1  UNL1        0.0490
     20  C         25.4370  -20.3050  -15.4540 C.2     1  UNL1       -0.0560
     21  C         24.9250  -21.3160  -14.6250 C.2     1  UNL1        0.0170
     22  C         25.1350  -20.3350  -16.9270 C.3     1  UNL1        0.0490
     23  S         18.0600  -23.3050   -8.4280 S.O2    1  UNL1        0.2470
     24  O         19.0050  -24.0900   -7.6690 O.2     1  UNL1       -0.2050
     25  O         16.8420  -23.8890   -8.9520 O.2     1  UNL1       -0.2050
     26  N         17.5660  -21.9130   -7.5720 N.pl3   1  UNL1       -0.1810
     27  H         16.7050  -21.5810   -8.0040 H       1  UNL1        0.1460
     28  C         17.3850  -22.1170   -6.1560 C.2     1  UNL1        0.0280
     29  C         16.2260  -22.7710   -5.7270 C.2     1  UNL1        0.0250
     30  C         15.9880  -22.9710   -4.3690 C.2     1  UNL1        0.0020
     31  C         16.9050  -22.5100   -3.4300 C.2     1  UNL1        0.0010
     32  C         18.0600  -21.8490   -3.8500 C.2     1  UNL1        0.0080
     33  C         18.3180  -21.6420   -5.2170 C.2     1  UNL1       -0.0400
     34  C         19.5690  -20.9120   -5.6140 C.3     1  UNL1        0.0500
@<TRIPOS>BOND
     1    22    20    1
     2    19    18    1
     3    20    18    2
     4    20    21    1
     5    18    16    1
     6    21    14    2
     7    16    15    2
     8    14    15    1
     9    14    12    1
    10    13    12    1
    11    10     9    1
    12    15    17    1
    13    12     9    1
    14     9     8   am
    15     2     3    1
    16     2     1    2
    17     3     4    2
    18     8     1    1
    19     8    11    2
    20     1     7    1
    21     4     5    1
    22     4     6    1
    23     7     6    2
    24     6    23    1
    25    25    23    2
    26    23    24    2
    27    23    26    1
    28    27    26    1
    29    26    28    1
    30    28    29    2
    31    28    33    1
    32    29    30    1
    33    34    33    1
    34    33    32    2
    35    30    31    2
    36    32    31    1
