@<TRIPOS>MOLECULE
19977_out_ligand_01.pdbqt
 35 37 0 0 0
SMALL
GASTEIGER

@<TRIPOS>ATOM
      1  C         18.9590  -22.3190  -10.1400 C.2     1  UNL1        0.0810
      2  C         20.3170  -22.6750  -10.1250 C.2     1  UNL1        0.0420
      3  C         21.2000  -22.1100  -11.0480 C.2     1  UNL1        0.0330
      4  C         20.7330  -21.1780  -11.9790 C.2     1  UNL1        0.0170
      5  C         19.3820  -20.8230  -11.9910 C.2     1  UNL1        0.0090
      6  C         18.4740  -21.3800  -11.0720 C.2     1  UNL1       -0.0390
      7  C         17.0300  -20.9740  -11.1700 C.3     1  UNL1        0.0500
      8  C         22.6330  -22.5040  -10.9980 C.2     1  UNL1        0.2520
      9  O         22.9750  -23.4700  -10.3280 O.2     1  UNL1       -0.2680
     10  N         23.4870  -21.7480  -11.7710 N.am    1  UNL1       -0.3490
     11  H         23.0710  -21.2190  -12.5260 H       1  UNL1        0.1630
     12  C         24.8850  -22.1200  -11.9420 C.3     1  UNL1        0.1140
     13  C         25.8120  -21.4920  -10.8980 C.3     1  UNL1        0.0370
     14  C         25.3700  -21.8300  -13.3600 C.2     1  UNL1       -0.0290
     15  C         25.6150  -20.4780  -13.6850 C.2     1  UNL1        0.0170
     16  C         26.0640  -20.0760  -14.9540 C.2     1  UNL1       -0.0560
     17  C         26.3200  -18.6170  -15.2150 C.3     1  UNL1        0.0490
     18  C         26.3000  -21.0530  -15.9320 C.2     1  UNL1       -0.0560
     19  C         26.8030  -20.6910  -17.3020 C.3     1  UNL1        0.0490
     20  C         26.0480  -22.3990  -15.6230 C.2     1  UNL1        0.0140
     21  C         25.5710  -22.8050  -14.3610 C.2     1  UNL1       -0.0530
     22  C         25.3720  -24.2820  -14.1490 C.3     1  UNL1        0.0490
     23  S         17.8860  -23.1280   -8.9600 S.O2    1  UNL1        0.2460
     24  O         18.6810  -24.0790   -8.2090 O.2     1  UNL1       -0.2060
     25  O         16.6860  -23.5440   -9.6520 O.2     1  UNL1       -0.2060
     26  N         17.5590  -21.8430   -7.8980 N.pl3   1  UNL1       -0.1810
     27  H         18.3960  -21.2560   -7.8680 H       1  UNL1        0.1460
     28  C         17.1770  -22.1860   -6.5530 C.2     1  UNL1        0.0290
     29  C         18.0820  -21.9050   -5.5160 C.2     1  UNL1       -0.0400
     30  C         17.7820  -22.3370   -4.2160 C.2     1  UNL1        0.0090
     31  C         19.3580  -21.1530   -5.7700 C.3     1  UNL1        0.0500
     32  C         16.6180  -23.0630   -3.9550 C.2     1  UNL1        0.0070
     33  C         15.7340  -23.3760   -4.9920 C.2     1  UNL1       -0.0600
     34  C         14.5090  -24.1980   -4.7210 C.3     1  UNL1        0.0480
     35  C         16.0390  -22.9610   -6.2940 C.2     1  UNL1        0.0310
@<TRIPOS>BOND
     1    19    18    1
     2    18    20    2
     3    18    16    1
     4    20    21    1
     5    17    16    1
     6    16    15    2
     7    21    22    1
     8    21    14    2
     9    15    14    1
    10    14    12    1
    11    11    10    1
    12     5     4    2
    13     5     6    1
    14     4     3    1
    15    12    10    1
    16    12    13    1
    17    10     8   am
    18     7     6    1
    19     6     1    2
    20     3     8    1
    21     3     2    2
    22     8     9    2
    23     1     2    1
    24     1    23    1
    25    25    23    2
    26    23    24    2
    27    23    26    1
    28    26    27    1
    29    26    28    1
    30    28    35    2
    31    28    29    1
    32    35    33    1
    33    31    29    1
    34    29    30    2
    35    33    34    1
    36    33    32    2
    37    30    32    1
