@<TRIPOS>MOLECULE
19976_out_ligand_01.pdbqt
 35 37 0 0 0
SMALL
GASTEIGER

@<TRIPOS>ATOM
      1  C         18.7300  -22.2980  -10.2630 C.2     1  UNL1        0.0810
      2  C         20.0430  -22.7700  -10.0880 C.2     1  UNL1        0.0420
      3  C         21.0790  -22.2720  -10.8840 C.2     1  UNL1        0.0330
      4  C         20.8020  -21.2900  -11.8380 C.2     1  UNL1        0.0170
      5  C         19.4950  -20.8260  -12.0170 C.2     1  UNL1        0.0090
      6  C         18.4370  -21.3280  -11.2410 C.2     1  UNL1       -0.0390
      7  C         17.0600  -20.7680  -11.4750 C.3     1  UNL1        0.0500
      8  C         22.4890  -22.7240  -10.7250 C.2     1  UNL1        0.2520
      9  O         22.7700  -23.5530   -9.8680 O.2     1  UNL1       -0.2680
     10  N         23.4170  -22.1450  -11.5600 N.am    1  UNL1       -0.3490
     11  H         23.1550  -21.3720  -12.1550 H       1  UNL1        0.1630
     12  C         24.8290  -22.4820  -11.5010 C.3     1  UNL1        0.1140
     13  C         25.6180  -21.5410  -10.5870 C.3     1  UNL1        0.0370
     14  C         25.3830  -22.6090  -12.9150 C.2     1  UNL1       -0.0290
     15  C         24.8260  -21.7530  -13.8900 C.2     1  UNL1        0.0170
     16  C         25.2570  -21.7510  -15.2250 C.2     1  UNL1       -0.0560
     17  C         24.6050  -20.8190  -16.2090 C.3     1  UNL1        0.0490
     18  C         26.2780  -22.6270  -15.6120 C.2     1  UNL1       -0.0560
     19  C         26.7820  -22.6740  -17.0270 C.3     1  UNL1        0.0490
     20  C         26.8470  -23.4730  -14.6510 C.2     1  UNL1        0.0140
     21  C         26.4290  -23.4680  -13.3070 C.2     1  UNL1       -0.0530
     22  C         27.1130  -24.4240  -12.3750 C.3     1  UNL1        0.0490
     23  S         17.4610  -22.9910   -9.2080 S.O2    1  UNL1        0.2460
     24  O         16.8040  -24.0480   -9.9490 O.2     1  UNL1       -0.2060
     25  O         16.7100  -21.8960   -8.6400 O.2     1  UNL1       -0.2060
     26  N         18.3960  -23.7720   -8.0180 N.pl3   1  UNL1       -0.1810
     27  H         18.0210  -24.7180   -7.9220 H       1  UNL1        0.1460
     28  C         18.3860  -23.1340   -6.7320 C.2     1  UNL1        0.0230
     29  C         17.6890  -23.7580   -5.7010 C.2     1  UNL1        0.0310
     30  C         17.6040  -23.1580   -4.4410 C.2     1  UNL1       -0.0600
     31  C         18.2000  -21.9050   -4.2430 C.2     1  UNL1        0.0130
     32  C         16.8380  -23.8160   -3.3320 C.3     1  UNL1        0.0480
     33  C         18.8760  -21.2560   -5.2850 C.2     1  UNL1       -0.0600
     34  C         19.5430  -19.9340   -5.0490 C.3     1  UNL1        0.0480
     35  C         18.9680  -21.8810   -6.5330 C.2     1  UNL1        0.0310
@<TRIPOS>BOND
     1    19    18    1
     2    17    16    1
     3    18    16    2
     4    18    20    1
     5    16    15    1
     6    20    21    2
     7    15    14    2
     8    21    14    1
     9    21    22    1
    10    14    12    1
    11    11    10    1
    12     5     4    2
    13     5     6    1
    14     4     3    1
    15    10    12    1
    16    10     8   am
    17    12    13    1
    18     7     6    1
    19     6     1    2
    20     3     8    1
    21     3     2    2
    22     8     9    2
    23     1     2    1
    24     1    23    1
    25    24    23    2
    26    23    25    2
    27    23    26    1
    28    26    27    1
    29    26    28    1
    30    28    35    2
    31    28    29    1
    32    35    33    1
    33    29    30    2
    34    33    34    1
    35    33    31    2
    36    30    31    1
    37    30    32    1
