@<TRIPOS>MOLECULE
19970_out_ligand_01.pdbqt
 34 36 0 0 0
SMALL
GASTEIGER

@<TRIPOS>ATOM
      1  C         18.9200  -22.2310  -10.1000 C.2     1  UNL1        0.0810
      2  C         20.2670  -22.5440   -9.8620 C.2     1  UNL1        0.0420
      3  C         21.2640  -22.0510  -10.7110 C.2     1  UNL1        0.0330
      4  C         20.9120  -21.2530  -11.8020 C.2     1  UNL1        0.0170
      5  C         19.5700  -20.9360  -12.0330 C.2     1  UNL1        0.0090
      6  C         18.5520  -21.4220  -11.1950 C.2     1  UNL1       -0.0390
      7  C         17.1340  -21.0220  -11.4920 C.3     1  UNL1        0.0500
      8  C         22.6770  -22.4300  -10.4360 C.2     1  UNL1        0.2520
      9  O         22.9210  -23.3490   -9.6640 O.2     1  UNL1       -0.2680
     10  N         23.6430  -21.6920  -11.0770 N.am    1  UNL1       -0.3490
     11  H         23.3880  -20.8540  -11.5830 H       1  UNL1        0.1630
     12  C         25.0620  -21.9240  -10.8570 C.3     1  UNL1        0.1140
     13  C         25.8210  -20.5970  -10.7350 C.3     1  UNL1        0.0370
     14  C         25.5830  -22.8440  -11.9560 C.2     1  UNL1       -0.0290
     15  C         25.0700  -22.7560  -13.2660 C.2     1  UNL1        0.0170
     16  C         25.5060  -23.6040  -14.2980 C.2     1  UNL1       -0.0560
     17  C         24.9320  -23.4440  -15.6790 C.3     1  UNL1        0.0490
     18  C         26.4830  -24.5740  -14.0210 C.2     1  UNL1       -0.0560
     19  C         27.0000  -25.4990  -15.0880 C.3     1  UNL1        0.0490
     20  C         26.9840  -24.6830  -12.7160 C.2     1  UNL1        0.0140
     21  C         26.5410  -23.8440  -11.6800 C.2     1  UNL1       -0.0530
     22  C         27.1190  -24.0370  -10.3020 C.3     1  UNL1        0.0490
     23  S         17.7060  -22.8940   -8.9650 S.O2    1  UNL1        0.2460
     24  O         17.0550  -24.0110   -9.6130 O.2     1  UNL1       -0.2060
     25  O         16.9480  -21.7820   -8.4270 O.2     1  UNL1       -0.2060
     26  N         18.7270  -23.4400   -7.7120 N.pl3   1  UNL1       -0.1810
     27  H         19.6840  -23.4490   -8.0700 H       1  UNL1        0.1460
     28  C         18.6350  -22.6770   -6.5010 C.2     1  UNL1        0.0230
     29  C         19.3900  -21.5160   -6.3520 C.2     1  UNL1        0.0240
     30  C         19.3090  -20.7840   -5.1700 C.2     1  UNL1        0.0020
     31  C         18.4800  -21.2170   -4.1330 C.2     1  UNL1        0.0070
     32  C         17.7430  -22.4000   -4.2630 C.2     1  UNL1       -0.0600
     33  C         16.8340  -22.8500   -3.1560 C.3     1  UNL1        0.0480
     34  C         17.8220  -23.1270   -5.4580 C.2     1  UNL1        0.0310
@<TRIPOS>BOND
     1    17    16    1
     2    19    18    1
     3    16    18    2
     4    16    15    1
     5    18    20    1
     6    15    14    2
     7    20    21    2
     8     5     4    2
     9     5     6    1
    10    14    21    1
    11    14    12    1
    12     4     3    1
    13    21    22    1
    14    11    10    1
    15     7     6    1
    16     6     1    2
    17    10    12    1
    18    10     8   am
    19    12    13    1
    20     3     8    1
    21     3     2    2
    22     8     9    2
    23     1     2    1
    24     1    23    1
    25    24    23    2
    26    23    25    2
    27    23    26    1
    28    27    26    1
    29    26    28    1
    30    28    29    2
    31    28    34    1
    32    29    30    1
    33    34    32    2
    34    30    31    2
    35    32    31    1
    36    32    33    1
