@<TRIPOS>MOLECULE
19972_out_ligand_01.pdbqt
 35 37 0 0 0
SMALL
GASTEIGER

@<TRIPOS>ATOM
      1  C         20.9560  -22.2510  -10.7900 C.2     1  UNL1        0.0330
      2  C         20.5490  -21.3080  -11.7350 C.2     1  UNL1        0.0170
      3  C         19.2110  -20.9130  -11.8050 C.2     1  UNL1        0.0090
      4  C         18.2470  -21.4630  -10.9440 C.2     1  UNL1       -0.0390
      5  C         16.8280  -20.9790  -11.0550 C.3     1  UNL1        0.0500
      6  C         18.6650  -22.4320  -10.0100 C.2     1  UNL1        0.0810
      7  C         20.0130  -22.8240   -9.9330 C.2     1  UNL1        0.0420
      8  C         22.3940  -22.6290  -10.7400 C.2     1  UNL1        0.2520
      9  N         23.2550  -21.8230  -11.4570 N.am    1  UNL1       -0.3490
     10  H         22.8630  -21.1520  -12.1010 H       1  UNL1        0.1630
     11  O         22.7410  -23.6180  -10.1050 O.2     1  UNL1       -0.2680
     12  C         24.6410  -22.2060  -11.6670 C.3     1  UNL1        0.1140
     13  C         25.5610  -21.5310  -10.6490 C.3     1  UNL1        0.0370
     14  C         25.1120  -21.9720  -13.1000 C.2     1  UNL1       -0.0290
     15  C         25.3000  -22.9760  -14.0740 C.2     1  UNL1       -0.0530
     16  C         25.7410  -22.6080  -15.3610 C.2     1  UNL1        0.0140
     17  C         25.1220  -24.4460  -13.8110 C.3     1  UNL1        0.0490
     18  C         25.9830  -21.2720  -15.7160 C.2     1  UNL1       -0.0560
     19  C         26.4500  -20.9510  -17.1090 C.3     1  UNL1        0.0490
     20  C         25.7820  -20.2690  -14.7600 C.2     1  UNL1       -0.0560
     21  C         25.3580  -20.6320  -13.4710 C.2     1  UNL1        0.0170
     22  C         26.0380  -18.8200  -15.0720 C.3     1  UNL1        0.0490
     23  S         17.5170  -23.2060   -8.8750 S.O2    1  UNL1        0.2460
     24  O         16.3910  -23.6760   -9.6560 O.2     1  UNL1       -0.2060
     25  O         18.2720  -24.1030   -8.0290 O.2     1  UNL1       -0.2060
     26  N         16.9830  -21.8540   -7.9870 N.pl3   1  UNL1       -0.1810
     27  H         16.1750  -21.4380   -8.4460 H       1  UNL1        0.1460
     28  C         16.7720  -22.1080   -6.5910 C.2     1  UNL1        0.0290
     29  C         15.4920  -22.5310   -6.2140 C.2     1  UNL1        0.0250
     30  C         15.1880  -22.7530   -4.8760 C.2     1  UNL1        0.0020
     31  C         16.1560  -22.5320   -3.9030 C.2     1  UNL1        0.0070
     32  C         17.4390  -22.0780   -4.2540 C.2     1  UNL1       -0.0540
     33  C         18.4400  -21.8380   -3.1530 C.3     1  UNL1        0.0490
     34  C         17.7670  -21.8770   -5.6190 C.2     1  UNL1       -0.0340
     35  C         19.1380  -21.3620   -5.9780 C.3     1  UNL1        0.0500
@<TRIPOS>BOND
     1    19    18    1
     2    18    16    2
     3    18    20    1
     4    16    15    1
     5    22    20    1
     6    20    21    2
     7    15    17    1
     8    15    14    2
     9    21    14    1
    10    14    12    1
    11    10     9    1
    12     3     2    1
    13     3     4    2
    14     2     1    2
    15    12     9    1
    16    12    13    1
    17     9     8   am
    18     5     4    1
    19     4     6    1
    20     1     8    1
    21     1     7    1
    22     8    11    2
    23     6     7    2
    24     6    23    1
    25    24    23    2
    26    23    25    2
    27    23    26    1
    28    27    26    1
    29    26    28    1
    30    28    29    2
    31    28    34    1
    32    29    30    1
    33    35    34    1
    34    34    32    2
    35    30    31    2
    36    32    31    1
    37    32    33    1
