@<TRIPOS>MOLECULE
19975_out_ligand_01.pdbqt
 35 37 0 0 0
SMALL
GASTEIGER

@<TRIPOS>ATOM
      1  C         18.7270  -22.2570  -10.4290 C.2     1  UNL1        0.0810
      2  C         20.0590  -22.6800  -10.3130 C.2     1  UNL1        0.0420
      3  C         21.0610  -22.0730  -11.0770 C.2     1  UNL1        0.0330
      4  C         20.7270  -21.0490  -11.9680 C.2     1  UNL1        0.0170
      5  C         19.3990  -20.6220  -12.0780 C.2     1  UNL1        0.0090
      6  C         18.3780  -21.2200  -11.3190 C.2     1  UNL1       -0.0390
      7  C         16.9750  -20.7040  -11.4800 C.3     1  UNL1        0.0500
      8  C         22.4550  -22.5710  -10.9370 C.2     1  UNL1        0.2520
      9  O         22.7050  -23.4670  -10.1410 O.2     1  UNL1       -0.2680
     10  N         23.4020  -21.9580  -11.7250 N.am    1  UNL1       -0.3490
     11  H         23.1660  -21.1270  -12.2480 H       1  UNL1        0.1630
     12  C         24.8120  -22.3080  -11.6490 C.3     1  UNL1        0.1140
     13  C         25.5540  -21.3420  -10.7160 C.3     1  UNL1        0.0370
     14  C         25.3690  -22.3890  -13.0680 C.2     1  UNL1       -0.0290
     15  C         24.8780  -21.5450  -14.0840 C.2     1  UNL1        0.0170
     16  C         25.3420  -21.6210  -15.4080 C.2     1  UNL1       -0.0560
     17  C         24.7930  -20.6710  -16.4390 C.3     1  UNL1        0.0490
     18  C         26.3240  -22.5710  -15.7370 C.2     1  UNL1       -0.0560
     19  C         26.8500  -22.7040  -17.1400 C.3     1  UNL1        0.0490
     20  C         26.8050  -23.4280  -14.7370 C.2     1  UNL1        0.0140
     21  C         26.3380  -23.3560  -13.4140 C.2     1  UNL1       -0.0530
     22  C         26.9050  -24.3160  -12.3990 C.3     1  UNL1        0.0490
     23  S         17.5070  -23.0830   -9.4100 S.O2    1  UNL1        0.2460
     24  O         16.8720  -24.1040  -10.2150 O.2     1  UNL1       -0.2060
     25  O         16.7340  -22.0650   -8.7310 O.2     1  UNL1       -0.2060
     26  N         18.5230  -23.7880   -8.2360 N.pl3   1  UNL1       -0.1810
     27  H         19.4700  -23.8040   -8.6210 H       1  UNL1        0.1460
     28  C         18.4950  -23.1320   -6.9630 C.2     1  UNL1        0.0230
     29  C         19.2210  -21.9580   -6.7700 C.2     1  UNL1        0.0250
     30  C         19.1800  -21.3150   -5.5310 C.2     1  UNL1        0.0090
     31  C         18.4090  -21.8290   -4.4780 C.2     1  UNL1       -0.0560
     32  C         18.3990  -21.1120   -3.1540 C.3     1  UNL1        0.0490
     33  C         17.6460  -22.9980   -4.6880 C.2     1  UNL1       -0.0540
     34  C         17.7000  -23.6390   -5.9370 C.2     1  UNL1        0.0310
     35  C         16.7800  -23.5780   -3.6020 C.3     1  UNL1        0.0490
@<TRIPOS>BOND
     1    19    18    1
     2    17    16    1
     3    18    16    2
     4    18    20    1
     5    16    15    1
     6    20    21    2
     7    15    14    2
     8    21    14    1
     9    21    22    1
    10    14    12    1
    11    11    10    1
    12     5     4    2
    13     5     6    1
    14     4     3    1
    15    10    12    1
    16    10     8   am
    17    12    13    1
    18     7     6    1
    19     6     1    2
    20     3     8    1
    21     3     2    2
    22     8     9    2
    23     1     2    1
    24     1    23    1
    25    24    23    2
    26    23    25    2
    27    23    26    1
    28    27    26    1
    29    26    28    1
    30    28    29    2
    31    28    34    1
    32    29    30    1
    33    34    33    2
    34    30    31    2
    35    33    31    1
    36    33    35    1
    37    31    32    1
