@<TRIPOS>MOLECULE
19983_out_ligand_01.pdbqt
 35 37 0 0 0
SMALL
GASTEIGER

@<TRIPOS>ATOM
      1  C         19.3640  -22.3300  -10.3430 C.2     1  UNL1        0.0810
      2  C         20.7310  -22.5940  -10.1570 C.2     1  UNL1        0.0420
      3  C         21.6920  -21.9670  -10.9610 C.2     1  UNL1        0.0330
      4  C         21.2780  -21.0460  -11.9270 C.2     1  UNL1        0.0170
      5  C         19.9160  -20.7810  -12.1110 C.2     1  UNL1        0.0090
      6  C         18.9380  -21.4250  -11.3350 C.2     1  UNL1       -0.0390
      7  C         17.4960  -21.0750  -11.5750 C.3     1  UNL1        0.0500
      8  C         23.1290  -22.2920  -10.7240 C.2     1  UNL1        0.2520
      9  O         23.4400  -23.3880  -10.2710 O.2     1  UNL1       -0.2680
     10  N         24.0510  -21.3310  -11.0710 N.am    1  UNL1       -0.3490
     11  H         23.7670  -20.5410  -11.6330 H       1  UNL1        0.1630
     12  C         25.4850  -21.5660  -10.9590 C.3     1  UNL1        0.1140
     13  C         26.2770  -20.2540  -11.0380 C.3     1  UNL1        0.0370
     14  C         25.9000  -22.5880  -12.0130 C.2     1  UNL1       -0.0290
     15  C         25.4780  -22.4350  -13.3500 C.2     1  UNL1        0.0170
     16  C         25.8200  -23.3580  -14.3520 C.2     1  UNL1       -0.0560
     17  C         25.3510  -23.1210  -15.7620 C.3     1  UNL1        0.0490
     18  C         26.5830  -24.4870  -14.0120 C.2     1  UNL1       -0.0560
     19  C         26.9880  -25.5040  -15.0440 C.3     1  UNL1        0.0490
     20  C         26.9900  -24.6580  -12.6810 C.2     1  UNL1        0.0140
     21  C         26.6520  -23.7330  -11.6760 C.2     1  UNL1       -0.0530
     22  C         27.1200  -23.9980  -10.2690 C.3     1  UNL1        0.0490
     23  S         18.2040  -23.1640   -9.2620 S.O2    1  UNL1        0.2460
     24  O         17.0540  -23.5440  -10.0570 O.2     1  UNL1       -0.2060
     25  O         18.9410  -24.1350   -8.4850 O.2     1  UNL1       -0.2060
     26  N         17.7110  -21.8550   -8.2800 N.pl3   1  UNL1       -0.1810
     27  H         17.0240  -21.3150   -8.8020 H       1  UNL1        0.1460
     28  C         17.2210  -22.2340   -6.9820 C.2     1  UNL1        0.0280
     29  C         15.9640  -22.8410   -6.9000 C.2     1  UNL1        0.0250
     30  C         15.4350  -23.2080   -5.6630 C.2     1  UNL1        0.0080
     31  C         16.1550  -22.9760   -4.4900 C.2     1  UNL1       -0.0610
     32  C         15.5730  -23.3320   -3.1540 C.3     1  UNL1        0.0480
     33  C         17.4060  -22.3470   -4.5740 C.2     1  UNL1        0.0150
     34  C         17.9550  -21.9730   -5.8140 C.2     1  UNL1       -0.0390
     35  C         19.3000  -21.2980   -5.8380 C.3     1  UNL1        0.0500
@<TRIPOS>BOND
     1    17    16    1
     2    19    18    1
     3    16    18    2
     4    16    15    1
     5    18    20    1
     6    15    14    2
     7    20    21    2
     8     5     4    2
     9     5     6    1
    10    14    21    1
    11    14    12    1
    12     4     3    1
    13    21    22    1
    14    11    10    1
    15     7     6    1
    16     6     1    2
    17    10    12    1
    18    10     8   am
    19    13    12    1
    20     3     8    1
    21     3     2    2
    22     8     9    2
    23     1     2    1
    24     1    23    1
    25    24    23    2
    26    23    25    2
    27    23    26    1
    28    27    26    1
    29    26    28    1
    30    28    29    2
    31    28    34    1
    32    29    30    1
    33    35    34    1
    34    34    33    2
    35    30    31    2
    36    33    31    1
    37    31    32    1
