@<TRIPOS>MOLECULE
19980_out_ligand_01.pdbqt
 34 36 0 0 0
SMALL
GASTEIGER

@<TRIPOS>ATOM
      1  C         23.3160  -22.0050  -11.6950 C.2     1  UNL1        0.1020
      2  C         22.0380  -22.5290  -11.4390 C.2     1  UNL1        0.0440
      3  C         21.5730  -22.6550  -10.1230 C.2     1  UNL1        0.0330
      4  C         22.4050  -22.2800   -9.0640 C.2     1  UNL1        0.0190
      5  C         23.6740  -21.7510   -9.3240 C.2     1  UNL1        0.0260
      6  C         24.1340  -21.6030  -10.6380 C.2     1  UNL1        0.0570
      7 CL         25.7140  -20.9380  -10.8340 Cl      1  UNL1       -0.0830
      8  C         20.2120  -23.2210   -9.9100 C.2     1  UNL1        0.2520
      9  O         20.0770  -24.4310   -9.7660 O.2     1  UNL1       -0.2680
     10  N         19.1620  -22.3280   -9.9150 N.am    1  UNL1       -0.3490
     11  H         19.3300  -21.3410  -10.0180 H       1  UNL1        0.1630
     12  C         17.8140  -22.7410   -9.5470 C.3     1  UNL1        0.1140
     13  C         16.7790  -21.8320  -10.2090 C.3     1  UNL1        0.0370
     14  C         17.6480  -22.7450   -8.0310 C.2     1  UNL1       -0.0290
     15  C         18.4040  -21.8550   -7.2430 C.2     1  UNL1        0.0170
     16  C         18.3040  -21.8230   -5.8410 C.2     1  UNL1       -0.0560
     17  C         19.1520  -20.8540   -5.0640 C.3     1  UNL1        0.0490
     18  C         17.4020  -22.6860   -5.2040 C.2     1  UNL1       -0.0560
     19  C         17.2570  -22.7170   -3.7070 C.3     1  UNL1        0.0490
     20  C         16.6490  -23.5820   -5.9800 C.2     1  UNL1        0.0140
     21  C         16.7540  -23.6210   -7.3810 C.2     1  UNL1       -0.0530
     22  C         15.9130  -24.6160   -8.1360 C.3     1  UNL1        0.0490
     23  S         23.8450  -21.8750  -13.3830 S.O2    1  UNL1        0.2640
     24  O         24.5000  -23.1150  -13.7450 O.2     1  UNL1       -0.2000
     25  O         22.7170  -21.3970  -14.1530 O.2     1  UNL1       -0.2000
     26  N         24.9930  -20.6440  -13.3760 N.pl3   1  UNL1       -0.2810
     27  H         25.6490  -20.7550  -12.6050 H       1  UNL1        0.1790
     28  C         25.4970  -20.0850  -14.5900 C.2     1  UNL1        0.0420
     29  C         26.1100  -18.8320  -14.5160 C.2     1  UNL1        0.0300
     30  C         26.6250  -18.2300  -15.6670 C.2     1  UNL1        0.0090
     31  C         26.5190  -18.8630  -16.9080 C.2     1  UNL1       -0.0620
     32  C         27.0550  -18.2190  -18.1510 C.3     1  UNL1        0.0480
     33  C         25.8530  -20.0880  -16.9840 C.2     1  UNL1        0.0090
     34  C         25.3370  -20.6940  -15.8320 C.2     1  UNL1        0.0300
@<TRIPOS>BOND
     1    32    31    1
     2    33    31    2
     3    33    34    1
     4    31    30    1
     5    34    28    2
     6    30    29    2
     7    28    29    1
     8    28    26    1
     9    25    23    2
    10    24    23    2
    11    23    26    1
    12    23     1    1
    13    26    27    1
    14     1     2    2
    15     1     6    1
    16     2     3    1
    17     7     6    1
    18     6     5    2
    19    13    12    1
    20     3     8    1
    21     3     4    2
    22    11    10    1
    23    10     8   am
    24    10    12    1
    25     8     9    2
    26    12    14    1
    27     5     4    1
    28    22    21    1
    29    14    21    2
    30    14    15    1
    31    21    20    1
    32    15    16    2
    33    20    18    2
    34    16    18    1
    35    16    17    1
    36    18    19    1
