@<TRIPOS>MOLECULE
19989_out_ligand_01.pdbqt
 33 36 0 0 0
SMALL
GASTEIGER

@<TRIPOS>ATOM
      1  C         22.3710  -22.6190  -10.2220 C.2     1  UNL1        0.0320
      2  C         22.0360  -23.7150   -9.4190 C.2     1  UNL1        0.0170
      3  C         20.6940  -24.0240   -9.1840 C.2     1  UNL1        0.0100
      4  C         19.6690  -23.2460   -9.7450 C.2     1  UNL1       -0.0300
      5  C         20.0120  -22.1370  -10.5310 C.2     1  UNL1        0.0100
      6  C         21.3540  -21.8240  -10.7660 C.2     1  UNL1        0.0170
      7  C         23.7850  -22.2490  -10.5050 C.2     1  UNL1        0.2520
      8  N         24.5810  -23.2380  -11.0430 N.am    1  UNL1       -0.3490
      9  H         24.1380  -24.0700  -11.4100 H       1  UNL1        0.1630
     10  O         24.1780  -21.1070  -10.2920 O.2     1  UNL1       -0.2680
     11  C         25.9510  -22.9730  -11.4490 C.3     1  UNL1        0.1140
     12  C         26.9020  -24.0800  -10.9820 C.3     1  UNL1        0.0370
     13  C         26.0050  -22.7730  -12.9560 C.2     1  UNL1       -0.0360
     14  C         25.1030  -23.4250  -13.8170 C.2     1  UNL1        0.0110
     15  C         25.1510  -23.2100  -15.1960 C.2     1  UNL1        0.0240
     16  C         26.1080  -22.3400  -15.7220 C.2     1  UNL1        0.0580
     17  C         26.9950  -21.6630  -14.8840 C.2     1  UNL1        0.0240
     18  C         26.9420  -21.8830  -13.5070 C.2     1  UNL1        0.0110
     19  S         26.1620  -22.0540  -17.4750 S.O2    1  UNL1        0.1710
     20  C         26.8380  -20.4190  -17.5980 C.3     1  UNL1        0.1670
     21  O         24.7930  -22.0140  -17.9550 O.2     1  UNL1       -0.2230
     22  O         27.1210  -22.9830  -18.0400 O.2     1  UNL1       -0.2230
     23  C         18.2160  -23.5820   -9.4780 C.3     1  UNL1        0.3110
     24  N         17.7620  -23.1880   -8.1340 N.3     1  UNL1        0.0970
     25  C         17.5100  -24.3790   -7.3090 C.3     1  UNL1        0.2770
     26  C         16.8480  -23.9890   -5.9810 C.3     1  UNL1        0.0690
     27  C         17.5720  -22.8660   -5.2850 C.2     1  UNL1       -0.0490
     28  C         17.3220  -22.5980   -3.9320 C.2     1  UNL1        0.0070
     29  C         18.4520  -22.0450   -6.0110 C.2     1  UNL1       -0.0240
     30  C         17.9650  -21.5370   -3.2950 C.2     1  UNL1        0.0010
     31  C         18.8530  -20.7330   -4.0050 C.2     1  UNL1        0.0010
     32  C         19.0980  -20.9860   -5.3550 C.2     1  UNL1        0.0090
     33  C         18.7630  -22.3280   -7.4670 C.3     1  UNL1        0.3110
@<TRIPOS>BOND
     1    22    19    2
     2    21    19    2
     3    20    19    1
     4    19    16    1
     5    16    15    2
     6    16    17    1
     7    15    14    1
     8    17    18    2
     9    14    13    2
    10    18    13    1
    11    13    11    1
    12    11     8    1
    13    11    12    1
    14     9     8    1
    15     8     7   am
    16     6     5    1
    17     6     1    2
    18     5     4    2
    19     7    10    2
    20     7     1    1
    21     1     2    1
    22     4    23    1
    23     4     3    1
    24    23    24    1
    25     2     3    2
    26    24    33    1
    27    24    25    1
    28    33    29    1
    29    25    26    1
    30    29    32    1
    31    29    27    2
    32    26    27    1
    33    32    31    2
    34    27    28    1
    35    31    30    1
    36    28    30    2
