@<TRIPOS>MOLECULE
19982_out_ligand_01.pdbqt
 35 37 0 0 0
SMALL
GASTEIGER

@<TRIPOS>ATOM
      1  C         17.6010  -23.5790   -8.6580 C.2     1  UNL1        0.1020
      2  C         18.9970  -23.7730   -8.6280 C.2     1  UNL1        0.0440
      3  C         19.8130  -23.1960   -9.6040 C.2     1  UNL1        0.0330
      4  C         19.2350  -22.4350  -10.6220 C.2     1  UNL1        0.0190
      5  C         17.8520  -22.2340  -10.6470 C.2     1  UNL1        0.0260
      6  C         17.0250  -22.7970   -9.6620 C.2     1  UNL1        0.0570
      7 CL         15.3390  -22.4910   -9.8400 Cl      1  UNL1       -0.0830
      8  C         21.2880  -23.3850   -9.6080 C.2     1  UNL1        0.2520
      9  O         21.8000  -24.1480   -8.7980 O.2     1  UNL1       -0.2680
     10  N         21.9830  -22.6830  -10.5660 N.am    1  UNL1       -0.3490
     11  H         21.4620  -22.2800  -11.3310 H       1  UNL1        0.1630
     12  C         23.3930  -22.9580  -10.8220 C.3     1  UNL1        0.1140
     13  C         24.2730  -22.1090   -9.9040 C.3     1  UNL1        0.0370
     14  C         23.7280  -22.7220  -12.2920 C.2     1  UNL1       -0.0290
     15  C         24.8060  -23.4180  -12.8790 C.2     1  UNL1        0.0170
     16  C         25.1780  -23.2290  -14.2210 C.2     1  UNL1       -0.0560
     17  C         26.3540  -23.9890  -14.7730 C.3     1  UNL1        0.0490
     18  C         24.4520  -22.3240  -15.0090 C.2     1  UNL1       -0.0560
     19  C         24.8220  -22.0420  -16.4400 C.3     1  UNL1        0.0490
     20  C         23.3790  -21.6270  -14.4330 C.2     1  UNL1        0.0140
     21  C         23.0040  -21.8150  -13.0900 C.2     1  UNL1       -0.0530
     22  C         21.8460  -21.0170  -12.5520 C.3     1  UNL1        0.0490
     23  S         16.6710  -24.3330   -7.3450 S.O2    1  UNL1        0.2650
     24  O         15.4990  -24.9250   -7.9670 O.2     1  UNL1       -0.2000
     25  O         17.5180  -25.1480   -6.5080 O.2     1  UNL1       -0.2000
     26  N         16.0780  -23.0090   -6.4760 N.pl3   1  UNL1       -0.2800
     27  H         15.0860  -23.1210   -6.2710 H       1  UNL1        0.1790
     28  C         16.8900  -22.4330   -5.4590 C.2     1  UNL1        0.0490
     29  C         16.6480  -22.6770   -4.0990 C.2     1  UNL1       -0.0350
     30  C         17.5160  -22.1120   -3.1530 C.2     1  UNL1        0.0090
     31  C         15.5090  -23.5380   -3.6280 C.3     1  UNL1        0.0500
     32  C         18.5860  -21.3080   -3.5530 C.2     1  UNL1        0.0070
     33  C         18.8060  -21.0420   -4.9070 C.2     1  UNL1       -0.0600
     34  C         19.9720  -20.2070   -5.3390 C.3     1  UNL1        0.0480
     35  C         17.9570  -21.6190   -5.8570 C.2     1  UNL1        0.0370
@<TRIPOS>BOND
     1    19    18    1
     2    18    20    2
     3    18    16    1
     4    17    16    1
     5    20    21    1
     6    16    15    2
     7    21    22    1
     8    21    14    2
     9    15    14    1
    10    14    12    1
    11    11    10    1
    12    12    10    1
    13    12    13    1
    14     5     4    2
    15     5     6    1
    16     4     3    1
    17    10     8   am
    18     7     6    1
    19     6     1    2
    20     8     3    1
    21     8     9    2
    22     3     2    2
    23     1     2    1
    24     1    23    1
    25    24    23    2
    26    23    25    2
    27    23    26    1
    28    26    27    1
    29    26    28    1
    30    35    28    2
    31    35    33    1
    32    28    29    1
    33    34    33    1
    34    33    32    2
    35    29    31    1
    36    29    30    2
    37    32    30    1
