@<TRIPOS>MOLECULE
19981_out_ligand_01.pdbqt
 35 37 0 0 0
SMALL
GASTEIGER

@<TRIPOS>ATOM
      1  C         21.2720  -22.1600  -11.2030 C.2     1  UNL1        0.0330
      2  C         20.8050  -21.1450  -12.0450 C.2     1  UNL1        0.0190
      3  C         19.4630  -20.7600  -12.0030 C.2     1  UNL1        0.0260
      4  C         18.5740  -21.3690  -11.1100 C.2     1  UNL1        0.0570
      5 CL         16.9320  -20.8350  -11.1710 Cl      1  UNL1       -0.0830
      6  C         19.0420  -22.3630  -10.2500 C.2     1  UNL1        0.0970
      7  C         20.3900  -22.7560  -10.2930 C.2     1  UNL1        0.0430
      8  C         22.6980  -22.5960  -11.2070 C.2     1  UNL1        0.2520
      9  N         23.3400  -22.5860  -12.4240 N.am    1  UNL1       -0.3490
     10  H         22.8480  -22.3170  -13.2640 H       1  UNL1        0.1630
     11  O         23.2260  -22.9510  -10.1580 O.2     1  UNL1       -0.2680
     12  C         24.7730  -22.8030  -12.5530 C.3     1  UNL1        0.1140
     13  C         25.0470  -24.0820  -13.3480 C.3     1  UNL1        0.0370
     14  C         25.4020  -21.5540  -13.1630 C.2     1  UNL1       -0.0290
     15  C         25.9940  -20.5540  -12.3630 C.2     1  UNL1       -0.0530
     16  C         26.5220  -19.4020  -12.9700 C.2     1  UNL1        0.0140
     17  C         26.0820  -20.6720  -10.8630 C.3     1  UNL1        0.0490
     18  C         26.4690  -19.2090  -14.3590 C.2     1  UNL1       -0.0560
     19  C         27.0310  -17.9430  -14.9450 C.3     1  UNL1        0.0490
     20  C         25.8510  -20.1850  -15.1620 C.2     1  UNL1       -0.0560
     21  C         25.3340  -21.3410  -14.5580 C.2     1  UNL1        0.0170
     22  C         25.7270  -20.0110  -16.6520 C.3     1  UNL1        0.0490
     23  S         17.9760  -23.1220   -9.0530 S.O2    1  UNL1        0.2470
     24  O         18.7920  -23.9860   -8.2280 O.2     1  UNL1       -0.2050
     25  O         16.8180  -23.6260   -9.7610 O.2     1  UNL1       -0.2050
     26  N         17.5100  -21.7750   -8.1060 N.pl3   1  UNL1       -0.1810
     27  H         18.3140  -21.1450   -8.0810 H       1  UNL1        0.1460
     28  C         17.1200  -22.1230   -6.7640 C.2     1  UNL1        0.0290
     29  C         15.8480  -22.6690   -6.5620 C.2     1  UNL1        0.0250
     30  C         15.4140  -22.9640   -5.2720 C.2     1  UNL1        0.0020
     31  C         16.2360  -22.6880   -4.1860 C.2     1  UNL1        0.0070
     32  C         17.5090  -22.1190   -4.3690 C.2     1  UNL1       -0.0540
     33  C         18.3510  -21.8360   -3.1560 C.3     1  UNL1        0.0490
     34  C         17.9740  -21.8540   -5.6780 C.2     1  UNL1       -0.0340
     35  C         19.3380  -21.2500   -5.8970 C.3     1  UNL1        0.0500
@<TRIPOS>BOND
     1    22    20    1
     2    20    21    1
     3    20    18    2
     4    19    18    1
     5    21    14    2
     6    18    16    1
     7    13    12    1
     8    10     9    1
     9    14    12    1
    10    14    15    1
    11    16    15    2
    12    12     9    1
    13     9     8   am
    14    15    17    1
    15     2     3    1
    16     2     1    2
    17     3     4    2
    18     8     1    1
    19     8    11    2
    20     1     7    1
    21     5     4    1
    22     4     6    1
    23     7     6    2
    24     6    23    1
    25    25    23    2
    26    23    24    2
    27    23    26    1
    28    26    27    1
    29    26    28    1
    30    28    29    2
    31    28    34    1
    32    29    30    1
    33    35    34    1
    34    34    32    2
    35    30    31    2
    36    32    31    1
    37    32    33    1
