@<TRIPOS>MOLECULE
19990_out_ligand_01.pdbqt
 34 36 0 0 0
SMALL
GASTEIGER

@<TRIPOS>ATOM
      1  C         15.8160  -22.2930   -9.9160 C.3     1  UNL1        0.0500
      2  C         17.2990  -22.5360   -9.8630 C.2     1  UNL1       -0.0390
      3  C         18.1040  -21.9570  -10.8610 C.2     1  UNL1        0.0090
      4  C         19.4900  -22.1340  -10.8640 C.2     1  UNL1        0.0170
      5  C         20.0990  -22.8840   -9.8550 C.2     1  UNL1        0.0330
      6  C         19.3200  -23.4700   -8.8540 C.2     1  UNL1        0.0420
      7  C         17.9270  -23.2930   -8.8530 C.2     1  UNL1        0.0810
      8  C         21.5650  -23.1130   -9.8350 C.2     1  UNL1        0.2520
      9  O         22.0490  -23.8700   -9.0020 O.2     1  UNL1       -0.2680
     10  N         22.2980  -22.4230  -10.7740 N.am    1  UNL1       -0.3490
     11  H         21.8290  -21.8290  -11.4420 H       1  UNL1        0.1630
     12  C         23.7150  -22.6790  -10.9780 C.3     1  UNL1        0.1140
     13  C         24.5560  -21.6760  -10.1870 C.3     1  UNL1        0.0370
     14  C         24.0130  -22.6780  -12.4690 C.2     1  UNL1       -0.0360
     15  C         23.4820  -21.6530  -13.2720 C.2     1  UNL1        0.0110
     16  C         23.7490  -21.6050  -14.6410 C.2     1  UNL1        0.0240
     17  C         24.5740  -22.5740  -15.2130 C.2     1  UNL1        0.0580
     18  C         25.1150  -23.6000  -14.4370 C.2     1  UNL1        0.0240
     19  C         24.8400  -23.6440  -13.0680 C.2     1  UNL1        0.0110
     20  S         24.9120  -22.5080  -16.9550 S.O2    1  UNL1        0.1710
     21  C         25.1120  -20.7730  -17.2670 C.3     1  UNL1        0.1670
     22  O         23.7200  -22.9610  -17.6470 O.2     1  UNL1       -0.2230
     23  O         26.1930  -23.1500  -17.1820 O.2     1  UNL1       -0.2230
     24  S         17.0010  -24.0450   -7.5190 S.O2    1  UNL1        0.2460
     25  O         15.8660  -24.7320   -8.0980 O.2     1  UNL1       -0.2060
     26  O         17.9390  -24.7270   -6.6560 O.2     1  UNL1       -0.2060
     27  N         16.3790  -22.6530   -6.7500 N.pl3   1  UNL1       -0.1810
     28  H         15.4120  -22.8630   -6.4920 H       1  UNL1        0.1460
     29  C         17.1280  -22.2530   -5.5920 C.2     1  UNL1        0.0220
     30  C         18.2550  -21.4430   -5.7310 C.2     1  UNL1        0.0240
     31  C         18.9520  -21.0240   -4.5980 C.2     1  UNL1        0.0020
     32  C         18.5140  -21.4030   -3.3280 C.2     1  UNL1        0.0000
     33  C         17.3740  -22.1960   -3.1910 C.2     1  UNL1        0.0020
     34  C         16.6760  -22.6150   -4.3230 C.2     1  UNL1        0.0240
@<TRIPOS>BOND
     1    22    20    2
     2    21    20    1
     3    23    20    2
     4    20    17    1
     5    17    16    2
     6    17    18    1
     7    16    15    1
     8    18    19    2
     9    15    14    2
    10    19    14    1
    11    14    12    1
    12    11    10    1
    13    12    10    1
    14    12    13    1
    15     4     3    1
    16     4     5    2
    17     3     2    2
    18    10     8   am
    19     1     2    1
    20     2     7    1
    21     5     8    1
    22     5     6    1
    23     8     9    2
    24     6     7    2
    25     7    24    1
    26    25    24    2
    27    24    27    1
    28    24    26    2
    29    27    28    1
    30    27    29    1
    31    30    29    2
    32    30    31    1
    33    29    34    1
    34    31    32    2
    35    34    33    2
    36    32    33    1
