@<TRIPOS>MOLECULE
19996_out_ligand_01.pdbqt
 36 38 0 0 0
SMALL
GASTEIGER

@<TRIPOS>ATOM
      1  C         17.5990  -23.4600   -8.7350 C.2     1  UNL1        0.0860
      2  C         18.9990  -23.5980   -8.7320 C.2     1  UNL1        0.0420
      3  C         19.7750  -23.0170   -9.7390 C.2     1  UNL1        0.0330
      4  C         19.1500  -22.2600  -10.7330 C.2     1  UNL1        0.0170
      5  C         17.7600  -22.1130  -10.7320 C.2     1  UNL1        0.0090
      6  C         16.9590  -22.7130   -9.7430 C.2     1  UNL1       -0.0390
      7  C         15.4720  -22.5110   -9.8230 C.3     1  UNL1        0.0500
      8  C         21.2490  -23.2210   -9.7020 C.2     1  UNL1        0.2520
      9  O         21.7440  -23.9820   -8.8780 O.2     1  UNL1       -0.2680
     10  N         21.9850  -22.5580  -10.6590 N.am    1  UNL1       -0.3490
     11  H         21.5110  -22.1010  -11.4270 H       1  UNL1        0.1630
     12  C         23.4200  -22.7560  -10.7860 C.3     1  UNL1        0.1140
     13  C         24.1970  -21.7730   -9.9080 C.3     1  UNL1        0.0370
     14  C         23.8000  -22.6870  -12.2580 C.2     1  UNL1       -0.0360
     15  C         24.7670  -23.5350  -12.8240 C.2     1  UNL1        0.0110
     16  C         25.1260  -23.4140  -14.1690 C.2     1  UNL1        0.0240
     17  C         24.5190  -22.4360  -14.9560 C.2     1  UNL1        0.0580
     18  C         23.5770  -21.5620  -14.4110 C.2     1  UNL1        0.0240
     19  C         23.2210  -21.6920  -13.0670 C.2     1  UNL1        0.0110
     20  S         24.9890  -22.2580  -16.6600 S.O2    1  UNL1        0.1710
     21  C         26.7240  -21.8990  -16.5700 C.3     1  UNL1        0.1670
     22  O         24.8240  -23.5530  -17.2930 O.2     1  UNL1       -0.2230
     23  O         24.3140  -21.0840  -17.1820 O.2     1  UNL1       -0.2230
     24  S         16.7310  -24.2740   -7.4020 S.O2    1  UNL1        0.2630
     25  O         15.5920  -24.9480   -7.9930 O.2     1  UNL1       -0.2000
     26  O         17.6490  -25.0030   -6.5580 O.2     1  UNL1       -0.2000
     27  N         16.0900  -22.9670   -6.5390 N.pl3   1  UNL1       -0.2800
     28  H         15.0990  -23.1130   -6.3480 H       1  UNL1        0.1790
     29  C         16.8840  -22.3890   -5.5070 C.2     1  UNL1        0.0490
     30  C         16.6240  -22.6570   -4.1540 C.2     1  UNL1       -0.0350
     31  C         17.4900  -22.1210   -3.1880 C.2     1  UNL1        0.0090
     32  C         15.4900  -23.5370   -3.7130 C.3     1  UNL1        0.0500
     33  C         18.5750  -21.3250   -3.5600 C.2     1  UNL1        0.0070
     34  C         18.8180  -21.0410   -4.9060 C.2     1  UNL1       -0.0600
     35  C         20.0030  -20.2170   -5.3120 C.3     1  UNL1        0.0480
     36  C         17.9720  -21.5910   -5.8760 C.2     1  UNL1        0.0370
@<TRIPOS>BOND
     1    22    20    2
     2    23    20    2
     3    20    21    1
     4    20    17    1
     5    17    18    2
     6    17    16    1
     7    18    19    1
     8    16    15    2
     9    19    14    2
    10    15    14    1
    11    14    12    1
    12    11    10    1
    13    12    10    1
    14    12    13    1
    15     4     5    2
    16     4     3    1
    17     5     6    1
    18    10     8   am
    19     7     6    1
    20     6     1    2
    21     3     8    1
    22     3     2    2
    23     8     9    2
    24     1     2    1
    25     1    24    1
    26    25    24    2
    27    24    26    2
    28    24    27    1
    29    27    28    1
    30    27    29    1
    31    36    29    2
    32    36    34    1
    33    29    30    1
    34    35    34    1
    35    34    33    2
    36    30    32    1
    37    30    31    2
    38    33    31    1
