@<TRIPOS>MOLECULE
19992_out_ligand_01.pdbqt
 35 37 0 0 0
SMALL
GASTEIGER

@<TRIPOS>ATOM
      1  C         17.5760  -23.4840   -8.6960 C.2     1  UNL1        0.0810
      2  C         18.9700  -23.6400   -8.6980 C.2     1  UNL1        0.0420
      3  C         19.7410  -23.0490   -9.7040 C.2     1  UNL1        0.0330
      4  C         19.1210  -22.2930  -10.7010 C.2     1  UNL1        0.0170
      5  C         17.7310  -22.1390  -10.6980 C.2     1  UNL1        0.0090
      6  C         16.9370  -22.7250   -9.6970 C.2     1  UNL1       -0.0390
      7  C         15.4470  -22.5280   -9.7630 C.3     1  UNL1        0.0500
      8  C         21.2160  -23.2250   -9.6610 C.2     1  UNL1        0.2520
      9  O         21.7200  -23.9400   -8.8030 O.2     1  UNL1       -0.2680
     10  N         21.9330  -22.5760  -10.6390 N.am    1  UNL1       -0.3490
     11  H         21.4430  -22.1590  -11.4190 H       1  UNL1        0.1630
     12  C         23.3760  -22.7280  -10.7500 C.3     1  UNL1        0.1140
     13  C         24.1130  -21.7000   -9.8870 C.3     1  UNL1        0.0370
     14  C         23.7840  -22.6510  -12.2140 C.2     1  UNL1       -0.0360
     15  C         23.1930  -21.6870  -13.0490 C.2     1  UNL1        0.0110
     16  C         23.5560  -21.5860  -14.3930 C.2     1  UNL1        0.0240
     17  C         24.5310  -22.4430  -14.9070 C.2     1  UNL1        0.0580
     18  C         25.1290  -23.4100  -14.0980 C.2     1  UNL1        0.0240
     19  C         24.7600  -23.5060  -12.7540 C.2     1  UNL1        0.0110
     20  S         24.9810  -22.3260  -16.6220 S.O2    1  UNL1        0.1710
     21  C         26.7190  -21.9820  -16.5630 C.3     1  UNL1        0.1670
     22  O         24.8040  -23.6390  -17.2120 O.2     1  UNL1       -0.2230
     23  O         24.3070  -21.1650  -17.1720 O.2     1  UNL1       -0.2230
     24  S         16.6550  -24.3030   -7.3960 S.O2    1  UNL1        0.2460
     25  O         15.5930  -25.0610   -8.0160 O.2     1  UNL1       -0.2060
     26  O         17.6090  -24.9280   -6.5030 O.2     1  UNL1       -0.2060
     27  N         16.0250  -22.9540   -6.5620 N.pl3   1  UNL1       -0.1810
     28  H         15.8300  -22.2330   -7.2590 H       1  UNL1        0.1460
     29  C         16.9000  -22.4470   -5.5440 C.2     1  UNL1        0.0230
     30  C         16.6290  -22.7020   -4.1990 C.2     1  UNL1        0.0240
     31  C         17.4630  -22.1760   -3.2140 C.2     1  UNL1        0.0020
     32  C         18.5540  -21.3810   -3.5710 C.2     1  UNL1        0.0070
     33  C         18.8110  -21.0920   -4.9160 C.2     1  UNL1       -0.0600
     34  C         19.9910  -20.2490   -5.3030 C.3     1  UNL1        0.0480
     35  C         17.9780  -21.6370   -5.9020 C.2     1  UNL1        0.0310
@<TRIPOS>BOND
     1    22    20    2
     2    23    20    2
     3    20    21    1
     4    20    17    1
     5    17    16    2
     6    17    18    1
     7    16    15    1
     8    18    19    2
     9    15    14    2
    10    19    14    1
    11    14    12    1
    12    11    10    1
    13    12    10    1
    14    12    13    1
    15     4     5    2
    16     4     3    1
    17     5     6    1
    18    10     8   am
    19     7     6    1
    20     3     8    1
    21     3     2    2
    22     6     1    2
    23     8     9    2
    24     2     1    1
    25     1    24    1
    26    25    24    2
    27    24    27    1
    28    24    26    2
    29    28    27    1
    30    27    29    1
    31    35    29    2
    32    35    33    1
    33    29    30    1
    34    34    33    1
    35    33    32    2
    36    30    31    2
    37    32    31    1
