@<TRIPOS>MOLECULE
199_out_ligand_01.pdbqt
 38 41 0 0 0
SMALL
GASTEIGER

@<TRIPOS>ATOM
      1  C         21.8090  -22.4740  -10.7610 C.2     1  UNL1        0.0390
      2  C         23.0810  -22.9030  -11.1560 C.2     1  UNL1        0.0420
      3  C         23.5810  -22.5280  -12.4050 C.2     1  UNL1        0.0800
      4  C         22.8230  -21.7350  -13.2670 C.2     1  UNL1        0.0260
      5  C         21.5590  -21.2980  -12.8650 C.2     1  UNL1        0.0090
      6  C         21.0420  -21.6410  -11.6030 C.2     1  UNL1       -0.0460
      7  C         19.6900  -21.1060  -11.2120 C.3     1  UNL1        0.0490
      8  C         21.3530  -22.9270   -9.4220 C.2     1  UNL1        0.2520
      9  N         20.2580  -23.7590   -9.4130 N.am    1  UNL1       -0.3540
     10  H         19.9750  -24.1770  -10.2920 H       1  UNL1        0.1620
     11  O         21.9800  -22.6020   -8.4210 O.2     1  UNL1       -0.2680
     12  C         19.8270  -24.4200   -8.1880 C.3     1  UNL1        0.1640
     13  C         18.4060  -23.9750   -7.7250 C.3     1  UNL1        0.2760
     14  C         18.4640  -22.9780   -6.5620 C.2     1  UNL1        0.0100
     15  C         19.2870  -21.8360   -6.6160 C.2     1  UNL1        0.0120
     16  C         19.3600  -20.9440   -5.5420 C.2     1  UNL1        0.0010
     17  C         18.6130  -21.1750   -4.3900 C.2     1  UNL1        0.0030
     18  C         17.7870  -22.2930   -4.3150 C.2     1  UNL1        0.0370
     19  C         17.6990  -23.1720   -5.3990 C.2     1  UNL1        0.0760
     20  O         16.9070  -24.2840   -5.2620 O.2     1  UNL1       -0.3550
     21  C         15.5490  -23.8880   -5.0540 C.3     1  UNL1        0.2100
     22  N         17.4860  -23.4940   -8.7790 N.3     1  UNL1        0.0990
     23  C         17.3970  -22.0360   -8.8540 C.3     1  UNL1        0.2730
     24  C         16.2540  -21.8190   -9.8340 C.3     1  UNL1        0.0320
     25  C         15.3830  -23.0640   -9.7070 C.3     1  UNL1        0.0320
     26  C         16.1050  -23.9610   -8.7090 C.3     1  UNL1        0.2730
     27  S         25.1920  -23.0910  -12.8900 S.O2    1  UNL1        0.2630
     28  O         26.0390  -22.9630  -11.7220 O.2     1  UNL1       -0.2000
     29  O         25.0560  -24.3520  -13.5830 O.2     1  UNL1       -0.2000
     30  N         25.6970  -21.8970  -13.9730 N.pl3   1  UNL1       -0.2810
     31  H         26.4490  -21.3420  -13.5670 H       1  UNL1        0.1790
     32  C         25.8040  -22.2290  -15.3540 C.2     1  UNL1        0.0430
     33  C         27.0100  -22.0920  -16.0380 C.2     1  UNL1        0.0300
     34  C         27.0740  -22.3900  -17.4000 C.2     1  UNL1        0.0030
     35  C         25.9340  -22.8280  -18.0770 C.2     1  UNL1        0.0070
     36  C         24.7210  -22.9800  -17.3950 C.2     1  UNL1       -0.0600
     37  C         23.4840  -23.4360  -18.1120 C.3     1  UNL1        0.0480
     38  C         24.6620  -22.6670  -16.0300 C.2     1  UNL1        0.0370
@<TRIPOS>BOND
     1    37    36    1
     2    35    34    2
     3    35    36    1
     4    34    33    1
     5    36    38    2
     6    33    32    2
     7    38    32    1
     8    32    30    1
     9    30    31    1
    10    30    27    1
    11    29    27    2
    12     4     5    2
    13     4     3    1
    14    27     3    1
    15    27    28    2
    16     5     6    1
    17     3     2    2
    18     6     7    1
    19     6     1    2
    20     2     1    1
    21     1     8    1
    22    10     9    1
    23    24    25    1
    24    24    23    1
    25    25    26    1
    26     8     9   am
    27     8    11    2
    28     9    12    1
    29    23    22    1
    30    22    26    1
    31    22    13    1
    32    12    13    1
    33    13    14    1
    34    15    14    2
    35    15    16    1
    36    14    19    1
    37    16    17    2
    38    19    20    1
    39    19    18    2
    40    20    21    1
    41    17    18    1
