@<TRIPOS>MOLECULE
2001_out_ligand_01.pdbqt
 29 32 0 0 0
SMALL
GASTEIGER

@<TRIPOS>ATOM
      1  C         21.1920  -21.7200  -12.0200 C.2     1  UNL1        0.0330
      2  C         19.9770  -21.0290  -12.2550 C.2     1  UNL1        0.0180
      3  C         18.8680  -21.2220  -11.4210 C.2     1  UNL1        0.0190
      4  C         19.0100  -22.1140  -10.3760 C.2     1  UNL1        0.0480
      5  C         20.1900  -22.8000  -10.1530 C.2     1  UNL1        0.0490
      6  C         21.2990  -22.6320  -10.9580 C.2     1  UNL1        0.0350
      7  C         19.9890  -23.6510   -8.9810 C.2     1  UNL1        0.2620
      8  O         20.8390  -24.3820   -8.5090 O.2     1  UNL1       -0.2670
      9  N         18.7040  -23.4400   -8.5660 N.am    1  UNL1       -0.2760
     10  C         18.0550  -22.5280   -9.3490 C.2     1  UNL1        0.2620
     11  O         16.9190  -22.1060   -9.2590 O.2     1  UNL1       -0.2670
     12  C         22.3770  -21.5340  -12.9010 C.2     1  UNL1        0.2510
     13  O         22.2700  -20.9070  -13.9480 O.2     1  UNL1       -0.2680
     14  N         23.5500  -22.1240  -12.4870 N.am    1  UNL1       -0.3530
     15  H         23.5210  -22.8330  -11.7680 H       1  UNL1        0.1630
     16  C         24.7190  -22.0840  -13.3370 C.3     1  UNL1        0.1620
     17  C         25.5860  -20.9120  -12.9950 C.2     1  UNL1       -0.0230
     18  C         25.9890  -20.6540  -11.6830 C.2     1  UNL1        0.0120
     19  C         26.7740  -19.5360  -11.4090 C.2     1  UNL1        0.0200
     20  C         27.1210  -18.7050  -12.4610 C.2     1  UNL1        0.1160
     21  N         26.7390  -18.9140  -13.7390 N.2     1  UNL1       -0.2730
     22  C         25.9840  -20.0110  -13.9770 C.2     1  UNL1        0.1240
     23  C         18.1170  -24.0610   -7.3990 C.3     1  UNL1        0.1750
     24  C         18.2040  -23.1680   -6.1940 C.2     1  UNL1       -0.0220
     25  C         18.8360  -21.9220   -6.2510 C.2     1  UNL1        0.0120
     26  C         18.8750  -21.1150   -5.1190 C.2     1  UNL1        0.0200
     27  C         18.2720  -21.5790   -3.9610 C.2     1  UNL1        0.1160
     28  N         17.6400  -22.7670   -3.8710 N.2     1  UNL1       -0.2730
     29  C         17.6150  -23.5330   -4.9860 C.2     1  UNL1        0.1240
@<TRIPOS>BOND
     1    22    21    1
     2    22    17    2
     3    13    12    2
     4    21    20    2
     5    16    17    1
     6    16    14    1
     7    17    18    1
     8    12    14   am
     9    12     1    1
    10    14    15    1
    11    20    19    1
    12     2     1    2
    13     2     3    1
    14     1     6    1
    15    18    19    2
    16     3     4    2
    17     6     5    2
    18     4     5    1
    19     4    10    1
    20     5     7    1
    21    10    11    2
    22    10     9   am
    23     7     9   am
    24     7     8    2
    25     9    23    1
    26    23    24    1
    27    25    24    2
    28    25    26    1
    29    24    29    1
    30    26    27    2
    31    29    28    2
    32    27    28    1
