@<TRIPOS>MOLECULE
20014_out_ligand_01.pdbqt
 34 36 0 0 0
SMALL
GASTEIGER

@<TRIPOS>ATOM
      1  C         17.5590  -23.6720   -8.4310 C.2     1  UNL1        0.0810
      2  C         18.9040  -24.0410   -8.2750 C.2     1  UNL1        0.0420
      3  C         19.8670  -23.5860   -9.1800 C.2     1  UNL1        0.0330
      4  C         19.4870  -22.7510  -10.2350 C.2     1  UNL1        0.0170
      5  C         18.1470  -22.3870  -10.3910 C.2     1  UNL1        0.0090
      6  C         17.1630  -22.8350   -9.4930 C.2     1  UNL1       -0.0390
      7  C         15.7390  -22.4160   -9.7310 C.3     1  UNL1        0.0500
      8  C         21.2840  -23.9830   -8.9680 C.2     1  UNL1        0.2510
      9  O         21.5590  -25.1450   -8.6990 O.2     1  UNL1       -0.2680
     10  N         22.2270  -22.9880   -9.1180 N.am    1  UNL1       -0.3550
     11  H         21.9500  -22.1360   -9.5870 H       1  UNL1        0.1620
     12  C         23.6490  -23.2930   -9.0870 C.3     1  UNL1        0.1490
     13  C         24.3900  -22.9150  -10.3740 C.3     1  UNL1        0.1950
     14  O         23.5100  -22.9620  -11.4990 O.2     1  UNL1       -0.3490
     15  C         23.8630  -22.3240  -12.6580 C.2     1  UNL1        0.0750
     16  C         25.1060  -22.4290  -13.2930 C.2     1  UNL1        0.0440
     17  C         25.3750  -21.7220  -14.4750 C.2     1  UNL1       -0.0590
     18  C         26.6990  -21.8700  -15.1650 C.3     1  UNL1        0.0480
     19  C         24.3750  -20.9220  -15.0340 C.2     1  UNL1        0.0070
     20  C         23.1340  -20.8100  -14.4090 C.2     1  UNL1        0.0100
     21  C         22.8690  -21.5030  -13.2190 C.2     1  UNL1       -0.0290
     22  C         21.5210  -21.3690  -12.5640 C.3     1  UNL1        0.0510
     23  S         16.3810  -24.3210   -7.2480 S.O2    1  UNL1        0.2460
     24  O         15.3140  -24.9570   -7.9860 O.2     1  UNL1       -0.2060
     25  O         17.1230  -25.0290   -6.2270 O.2     1  UNL1       -0.2060
     26  N         15.8340  -22.8720   -6.5280 N.pl3   1  UNL1       -0.1810
     27  H         15.6830  -22.2000   -7.2840 H       1  UNL1        0.1460
     28  C         16.7380  -22.3360   -5.5530 C.2     1  UNL1        0.0230
     29  C         16.5150  -22.5840   -4.2000 C.2     1  UNL1        0.0240
     30  C         17.4160  -22.1070   -3.2490 C.2     1  UNL1        0.0020
     31  C         18.5450  -21.3920   -3.6540 C.2     1  UNL1        0.0070
     32  C         18.7810  -21.1460   -5.0120 C.2     1  UNL1       -0.0600
     33  C         20.0240  -20.4270   -5.4470 C.3     1  UNL1        0.0480
     34  C         17.8780  -21.6400   -5.9620 C.2     1  UNL1        0.0310
@<TRIPOS>BOND
     1    18    17    1
     2    19    17    2
     3    19    20    1
     4    17    16    1
     5    20    21    2
     6    16    15    2
     7    21    15    1
     8    21    22    1
     9    15    14    1
    10    14    13    1
    11     5     4    2
    12     5     6    1
    13    13    12    1
    14     4     3    1
    15     7     6    1
    16    11    10    1
    17     6     1    2
    18     3     8    1
    19     3     2    2
    20    10    12    1
    21    10     8   am
    22     8     9    2
    23     1     2    1
    24     1    23    1
    25    24    23    2
    26    27    26    1
    27    23    26    1
    28    23    25    2
    29    26    28    1
    30    34    28    2
    31    34    32    1
    32    28    29    1
    33    33    32    1
    34    32    31    2
    35    29    30    2
    36    31    30    1
