@<TRIPOS>MOLECULE
20017_out_ligand_01.pdbqt
 41 44 0 0 0
SMALL
GASTEIGER

@<TRIPOS>ATOM
      1  C         21.3310  -23.6290   -9.0050 C.2     1  UNL1        0.2510
      2  O         21.7420  -24.7810   -8.9240 O.2     1  UNL1       -0.2680
      3  N         22.1620  -22.5270   -8.9670 N.am    1  UNL1       -0.3550
      4  H         21.8210  -21.6550   -9.3530 H       1  UNL1        0.1620
      5  C         19.8780  -23.3630   -9.1980 C.2     1  UNL1        0.0330
      6  C         18.9750  -23.8930   -8.2680 C.2     1  UNL1        0.0420
      7  C         17.5970  -23.6700   -8.4120 C.2     1  UNL1        0.0810
      8  C         17.1020  -22.9000   -9.4840 C.2     1  UNL1       -0.0390
      9  C         18.0260  -22.3530  -10.3910 C.2     1  UNL1        0.0090
     10  C         15.6430  -22.5910   -9.6790 C.3     1  UNL1        0.0500
     11  C         19.3980  -22.5810  -10.2530 C.2     1  UNL1        0.0170
     12  S         16.5100  -24.3790   -7.1780 S.O2    1  UNL1        0.2460
     13  O         17.3270  -25.1080   -6.2350 O.2     1  UNL1       -0.2060
     14  O         15.4000  -25.0040   -7.8670 O.2     1  UNL1       -0.2060
     15  N         15.8850  -22.9600   -6.4610 N.pl3   1  UNL1       -0.1810
     16  H         14.9830  -23.2060   -6.0480 H       1  UNL1        0.1460
     17  C         16.7500  -22.3870   -5.4690 C.2     1  UNL1        0.0230
     18  C         16.5130  -22.6270   -4.1160 C.2     1  UNL1        0.0240
     19  C         17.3860  -22.1080   -3.1590 C.2     1  UNL1        0.0020
     20  C         18.4970  -21.3620   -3.5550 C.2     1  UNL1        0.0070
     21  C         18.7440  -21.1240   -4.9130 C.2     1  UNL1       -0.0600
     22  C         19.9670  -20.3700   -5.3450 C.3     1  UNL1        0.0480
     23  C         17.8700  -21.6590   -5.8680 C.2     1  UNL1        0.0310
     24  C         23.6050  -22.7000   -8.9690 C.3     1  UNL1        0.1490
     25  C         24.1670  -22.7460  -10.3900 C.3     1  UNL1        0.1950
     26  O         23.2850  -22.1000  -11.3150 O.2     1  UNL1       -0.3500
     27  C         23.6350  -22.0530  -12.6350 C.2     1  UNL1        0.0680
     28  C         24.7330  -22.8560  -12.9690 C.2     1  UNL1        0.0380
     29  C         25.2110  -22.9040  -14.2780 C.2     1  UNL1        0.0270
     30  C         24.5830  -22.1410  -15.2630 C.2     1  UNL1        0.0740
     31  C         23.4980  -21.3220  -14.9420 C.2     1  UNL1        0.0270
     32  C         23.0240  -21.2830  -13.6270 C.2     1  UNL1        0.0380
     33  S         25.2000  -22.2010  -16.9260 S.O2    1  UNL1        0.2430
     34  O         26.1720  -23.2710  -17.0160 O.2     1  UNL1       -0.2060
     35  O         24.0550  -22.1490  -17.8100 O.2     1  UNL1       -0.2060
     36  N         26.0450  -20.7240  -17.0660 N.3     1  UNL1       -0.2020
     37  C         25.4640  -19.7540  -18.0500 C.3     1  UNL1        0.1340
     38  C         26.3740  -18.5240  -18.1520 C.3     1  UNL1        0.1830
     39  O         26.5280  -17.8850  -16.8760 O.3     1  UNL1       -0.3890
     40  C         27.1060  -18.7940  -15.9280 C.3     1  UNL1        0.1830
     41  C         26.2310  -20.0390  -15.7430 C.3     1  UNL1        0.1340
@<TRIPOS>BOND
     1    38    37    1
     2    38    39    1
     3    37    36    1
     4    35    33    2
     5    36    33    1
     6    36    41    1
     7    34    33    2
     8    33    30    1
     9    39    40    1
    10    40    41    1
    11    30    31    2
    12    30    29    1
    13    31    32    1
    14    29    28    2
    15    32    27    2
    16    28    27    1
    17    27    26    1
    18    26    25    1
    19     9    11    1
    20     9     8    2
    21    25    24    1
    22    11     5    2
    23    10     8    1
    24     8     7    1
    25     4     3    1
    26     5     1    1
    27     5     6    1
    28     1     3   am
    29     1     2    2
    30    24     3    1
    31     7     6    2
    32     7    12    1
    33    14    12    2
    34    12    15    1
    35    12    13    2
    36    15    16    1
    37    15    17    1
    38    23    17    2
    39    23    21    1
    40    17    18    1
    41    22    21    1
    42    21    20    2
    43    18    19    2
    44    20    19    1
