@<TRIPOS>MOLECULE
20019_out_ligand_01.pdbqt
 36 39 0 0 0
SMALL
GASTEIGER

@<TRIPOS>ATOM
      1  C         17.6400  -23.5600   -8.5700 C.2     1  UNL1        0.0860
      2  C         19.0110  -23.8780   -8.4910 C.2     1  UNL1        0.0420
      3  C         19.9190  -23.3470   -9.4120 C.2     1  UNL1        0.0330
      4  C         19.4600  -22.4770  -10.4000 C.2     1  UNL1        0.0170
      5  C         18.0980  -22.1750  -10.4940 C.2     1  UNL1        0.0090
      6  C         17.1630  -22.7170   -9.5920 C.2     1  UNL1       -0.0390
      7  C         15.7130  -22.3990   -9.8170 C.3     1  UNL1        0.0500
      8  C         21.3720  -23.6660   -9.3590 C.2     1  UNL1        0.2510
      9  O         21.7410  -24.8000   -9.0740 O.2     1  UNL1       -0.2680
     10  N         22.2340  -22.6220   -9.6140 N.am    1  UNL1       -0.3530
     11  H         21.8910  -21.6720   -9.6310 H       1  UNL1        0.1630
     12  C         23.6720  -22.7760   -9.5110 C.3     1  UNL1        0.1610
     13  C         24.3200  -22.7170  -10.8690 C.2     1  UNL1       -0.0410
     14  C         23.5510  -22.4480  -12.0100 C.2     1  UNL1        0.0090
     15  C         24.1480  -22.3860  -13.2720 C.2     1  UNL1        0.0090
     16  C         25.5280  -22.5800  -13.4210 C.2     1  UNL1       -0.0300
     17  C         26.2960  -22.8400  -12.2780 C.2     1  UNL1        0.0090
     18  C         25.6980  -22.9140  -11.0160 C.2     1  UNL1        0.0090
     19  C         26.1760  -22.4770  -14.7850 C.3     1  UNL1        0.3110
     20  N         25.2960  -22.4480  -15.9490 N.3     1  UNL1        0.0920
     21  C         24.7520  -23.7310  -16.3750 C.3     1  UNL1        0.2730
     22  C         24.0790  -23.3900  -17.7010 C.3     1  UNL1        0.0320
     23  C         24.7130  -22.0740  -18.1490 C.3     1  UNL1        0.0320
     24  C         25.8280  -21.8170  -17.1490 C.3     1  UNL1        0.2730
     25  S         16.5910  -24.3610   -7.3600 S.O2    1  UNL1        0.2630
     26  O         17.4710  -25.1280   -6.5020 O.2     1  UNL1       -0.2000
     27  O         15.4800  -25.0060   -8.0230 O.2     1  UNL1       -0.2000
     28  N         16.0420  -23.0820   -6.4180 N.pl3   1  UNL1       -0.2800
     29  H         15.0300  -23.0360   -6.3050 H       1  UNL1        0.1790
     30  C         16.8760  -22.4670   -5.4470 C.2     1  UNL1        0.0480
     31  C         17.9120  -21.6310   -5.8740 C.2     1  UNL1        0.0300
     32  C         18.7630  -21.0280   -4.9480 C.2     1  UNL1        0.0020
     33  C         18.5770  -21.2560   -3.5890 C.2     1  UNL1        0.0010
     34  C         17.5330  -22.0750   -3.1530 C.2     1  UNL1        0.0090
     35  C         16.6590  -22.6790   -4.0740 C.2     1  UNL1       -0.0350
     36  C         15.5460  -23.5460   -3.5570 C.3     1  UNL1        0.0500
@<TRIPOS>BOND
     1    23    22    1
     2    23    24    1
     3    22    21    1
     4    24    20    1
     5    21    20    1
     6    20    19    1
     7    19    16    1
     8    16    15    2
     9    16    17    1
    10    15    14    1
    11    17    18    2
    12    14    13    2
    13    18    13    1
    14    13    12    1
    15     5     4    2
    16     5     6    1
    17     4     3    1
    18     7     6    1
    19    11    10    1
    20    10    12    1
    21    10     8   am
    22     6     1    2
    23     3     8    1
    24     3     2    2
    25     8     9    2
    26     1     2    1
    27     1    25    1
    28    27    25    2
    29    25    26    2
    30    25    28    1
    31    28    29    1
    32    28    30    1
    33    31    30    2
    34    31    32    1
    35    30    35    1
    36    32    33    2
    37    35    36    1
    38    35    34    2
    39    33    34    1
