@<TRIPOS>MOLECULE
20025_out_ligand_01.pdbqt
 37 40 0 0 0
SMALL
GASTEIGER

@<TRIPOS>ATOM
      1  C         17.7360  -23.5650   -8.5770 C.2     1  UNL1        0.0860
      2  C         19.0970  -23.8840   -8.4110 C.2     1  UNL1        0.0420
      3  C         20.0590  -23.3460   -9.2670 C.2     1  UNL1        0.0330
      4  C         19.6560  -22.5050  -10.3070 C.2     1  UNL1        0.0170
      5  C         18.3070  -22.1800  -10.4690 C.2     1  UNL1        0.0090
      6  C         17.3240  -22.6960   -9.6060 C.2     1  UNL1       -0.0390
      7  C         15.8960  -22.2870   -9.8390 C.3     1  UNL1        0.0500
      8  C         21.5070  -23.6620   -9.1240 C.2     1  UNL1        0.2510
      9  O         21.8540  -24.7790   -8.7580 O.2     1  UNL1       -0.2680
     10  N         22.3830  -22.6500   -9.4520 N.am    1  UNL1       -0.3530
     11  H         22.0380  -21.8520   -9.9690 H       1  UNL1        0.1630
     12  C         23.8090  -22.8770   -9.5040 C.3     1  UNL1        0.1610
     13  C         24.3490  -22.5700  -10.8760 C.2     1  UNL1       -0.0410
     14  C         23.4880  -22.2190  -11.9250 C.2     1  UNL1        0.0090
     15  C         23.9930  -21.9620  -13.2030 C.2     1  UNL1        0.0090
     16  C         25.3680  -22.0580  -13.4590 C.2     1  UNL1       -0.0300
     17  C         26.2260  -22.4130  -12.4090 C.2     1  UNL1        0.0090
     18  C         25.7220  -22.6740  -11.1330 C.2     1  UNL1        0.0090
     19  C         25.9180  -21.7650  -14.8390 C.3     1  UNL1        0.3110
     20  N         24.9510  -22.0120  -15.9110 N.3     1  UNL1        0.0920
     21  C         24.9640  -23.4070  -16.3520 C.3     1  UNL1        0.2730
     22  C         24.2400  -23.3640  -17.6910 C.3     1  UNL1        0.0320
     23  C         24.3330  -21.9130  -18.1520 C.3     1  UNL1        0.0320
     24  C         25.2180  -21.2320  -17.1220 C.3     1  UNL1        0.2730
     25  S         16.6150  -24.3070   -7.3980 S.O2    1  UNL1        0.2630
     26  O         15.4840  -24.7970   -8.1620 O.2     1  UNL1       -0.2000
     27  O         17.3210  -25.1930   -6.5010 O.2     1  UNL1       -0.2000
     28  N         16.0350  -22.9700   -6.5430 N.pl3   1  UNL1       -0.2800
     29  H         15.0430  -23.0700   -6.3370 H       1  UNL1        0.1790
     30  C         16.8620  -22.4040   -5.5300 C.2     1  UNL1        0.0490
     31  C         16.6040  -22.6280   -4.1690 C.2     1  UNL1       -0.0350
     32  C         17.4840  -22.0830   -3.2230 C.2     1  UNL1        0.0090
     33  C         15.4430  -23.4570   -3.6980 C.3     1  UNL1        0.0500
     34  C         18.5880  -21.3260   -3.6230 C.2     1  UNL1        0.0070
     35  C         18.8440  -21.1080   -4.9790 C.2     1  UNL1       -0.0600
     36  C         20.0070  -20.2660   -5.4110 C.3     1  UNL1        0.0480
     37  C         17.9660  -21.6430   -5.9270 C.2     1  UNL1        0.0370
@<TRIPOS>BOND
     1    23    22    1
     2    23    24    1
     3    22    21    1
     4    24    20    1
     5    21    20    1
     6    20    19    1
     7    19    16    1
     8    16    15    2
     9    16    17    1
    10    15    14    1
    11    17    18    2
    12    14    13    2
    13    18    13    1
    14    13    12    1
    15     5     4    2
    16     5     6    1
    17     4     3    1
    18    11    10    1
    19     7     6    1
    20     6     1    2
    21    12    10    1
    22    10     8   am
    23     3     8    1
    24     3     2    2
    25     8     9    2
    26     1     2    1
    27     1    25    1
    28    26    25    2
    29    25    28    1
    30    25    27    2
    31    28    29    1
    32    28    30    1
    33    37    30    2
    34    37    35    1
    35    30    31    1
    36    36    35    1
    37    35    34    2
    38    31    33    1
    39    31    32    2
    40    34    32    1
