@<TRIPOS>MOLECULE
20031_out_ligand_01.pdbqt
 37 40 0 0 0
SMALL
GASTEIGER

@<TRIPOS>ATOM
      1  C         17.6170  -23.5270   -8.5510 C.2     1  UNL1        0.0810
      2  C         19.0140  -23.6380   -8.4280 C.2     1  UNL1        0.0420
      3  C         19.8550  -23.0310   -9.3640 C.2     1  UNL1        0.0330
      4  C         19.2910  -22.3130  -10.4230 C.2     1  UNL1        0.0170
      5  C         17.9050  -22.2100  -10.5510 C.2     1  UNL1        0.0090
      6  C         17.0420  -22.8050   -9.6150 C.2     1  UNL1       -0.0390
      7  C         15.5610  -22.6480   -9.8140 C.3     1  UNL1        0.0500
      8  C         21.3410  -23.0920   -9.2690 C.2     1  UNL1        0.2510
      9  O         21.8780  -24.0940   -8.8090 O.2     1  UNL1       -0.2680
     10  N         22.0340  -21.9750   -9.6770 N.am    1  UNL1       -0.3530
     11  H         21.5380  -21.1130   -9.8610 H       1  UNL1        0.1630
     12  C         23.4640  -21.8580   -9.4770 C.3     1  UNL1        0.1610
     13  C         24.2120  -22.0530  -10.7720 C.2     1  UNL1       -0.0410
     14  C         23.7970  -23.0180  -11.6990 C.2     1  UNL1        0.0090
     15  C         24.4990  -23.2040  -12.8930 C.2     1  UNL1        0.0090
     16  C         25.6280  -22.4270  -13.1850 C.2     1  UNL1       -0.0300
     17  C         26.0490  -21.4680  -12.2550 C.2     1  UNL1        0.0090
     18  C         25.3560  -21.2920  -11.0570 C.2     1  UNL1        0.0090
     19  C         26.3850  -22.6330  -14.4790 C.3     1  UNL1        0.3110
     20  N         25.7170  -22.0330  -15.6450 N.3     1  UNL1        0.0920
     21  C         25.0460  -23.0520  -16.4760 C.3     1  UNL1        0.2720
     22  C         24.9310  -22.6840  -17.9630 C.3     1  UNL1        0.0300
     23  C         24.7450  -21.1840  -18.1520 C.3     1  UNL1        0.0030
     24  C         25.8720  -20.3990  -17.4760 C.3     1  UNL1        0.0300
     25  C         26.6440  -21.2190  -16.4330 C.3     1  UNL1        0.2720
     26  S         16.6260  -24.3410   -7.3070 S.O2    1  UNL1        0.2460
     27  O         17.5070  -25.0970   -6.4400 O.2     1  UNL1       -0.2060
     28  O         15.5190  -24.9970   -7.9670 O.2     1  UNL1       -0.2060
     29  N         15.9710  -23.0410   -6.4400 N.pl3   1  UNL1       -0.1810
     30  H         15.0130  -23.2520   -6.1620 H       1  UNL1        0.1460
     31  C         16.8030  -22.4260   -5.4610 C.2     1  UNL1        0.0230
     32  C         16.5860  -22.6840   -4.1080 C.2     1  UNL1        0.0240
     33  C         17.4480  -22.1410   -3.1560 C.2     1  UNL1        0.0020
     34  C         18.5250  -21.3490   -3.5570 C.2     1  UNL1        0.0070
     35  C         18.7490  -21.0880   -4.9150 C.2     1  UNL1       -0.0600
     36  C         19.9380  -20.2750   -5.3370 C.3     1  UNL1        0.0480
     37  C         17.8840  -21.6410   -5.8670 C.2     1  UNL1        0.0310
@<TRIPOS>BOND
     1    23    22    1
     2    23    24    1
     3    22    21    1
     4    24    25    1
     5    21    20    1
     6    25    20    1
     7    20    19    1
     8    19    16    1
     9    16    15    2
    10    16    17    1
    11    15    14    1
    12    17    18    2
    13    14    13    2
    14    18    13    1
    15    13    12    1
    16     5     4    2
    17     5     6    1
    18     4     3    1
    19    11    10    1
    20     7     6    1
    21    10    12    1
    22    10     8   am
    23     6     1    2
    24     3     8    1
    25     3     2    2
    26     8     9    2
    27     1     2    1
    28     1    26    1
    29    28    26    2
    30    26    27    2
    31    26    29    1
    32    29    30    1
    33    29    31    1
    34    37    31    2
    35    37    35    1
    36    31    32    1
    37    36    35    1
    38    35    34    2
    39    32    33    2
    40    34    33    1
