@<TRIPOS>MOLECULE
20036_out_ligand_01.pdbqt
 38 41 0 0 0
SMALL
GASTEIGER

@<TRIPOS>ATOM
      1  C         17.5820  -23.3940   -8.6840 C.2     1  UNL1        0.0860
      2  C         18.9810  -23.4660   -8.5660 C.2     1  UNL1        0.0420
      3  C         19.8060  -22.8280   -9.4960 C.2     1  UNL1        0.0330
      4  C         19.2320  -22.1250  -10.5570 C.2     1  UNL1        0.0170
      5  C         17.8410  -22.0470  -10.6720 C.2     1  UNL1        0.0090
      6  C         16.9920  -22.6750   -9.7420 C.2     1  UNL1       -0.0390
      7  C         15.5090  -22.5370   -9.9370 C.3     1  UNL1        0.0500
      8  C         21.2800  -22.9460   -9.3350 C.2     1  UNL1        0.2510
      9  O         21.7550  -23.9310   -8.7810 O.2     1  UNL1       -0.2680
     10  N         22.0290  -21.8910   -9.8070 N.am    1  UNL1       -0.3530
     11  H         21.5620  -21.0190  -10.0100 H       1  UNL1        0.1630
     12  C         23.4520  -21.8050   -9.5500 C.3     1  UNL1        0.1610
     13  C         24.2340  -22.3400  -10.7220 C.2     1  UNL1       -0.0410
     14  C         23.5670  -22.9390  -11.8000 C.2     1  UNL1        0.0090
     15  C         24.2850  -23.4640  -12.8780 C.2     1  UNL1        0.0090
     16  C         25.6850  -23.3960  -12.9010 C.2     1  UNL1       -0.0300
     17  C         26.3490  -22.8050  -11.8170 C.2     1  UNL1        0.0090
     18  C         25.6320  -22.2810  -10.7380 C.2     1  UNL1        0.0090
     19  C         26.4650  -23.9930  -14.0550 C.3     1  UNL1        0.3110
     20  N         26.3980  -23.1920  -15.2870 N.3     1  UNL1        0.0920
     21  C         25.0850  -23.3470  -15.9290 C.3     1  UNL1        0.2720
     22  C         24.8580  -22.2990  -17.0160 C.3     1  UNL1        0.0300
     23  C         24.8650  -20.8850  -16.4380 C.3     1  UNL1        0.0030
     24  C         25.6330  -20.8000  -15.1220 C.3     1  UNL1        0.0300
     25  C         26.7970  -21.7900  -15.0830 C.3     1  UNL1        0.2720
     26  S         16.6460  -24.2400   -7.4170 S.O2    1  UNL1        0.2630
     27  O         15.4990  -24.8360   -8.0730 O.2     1  UNL1       -0.2000
     28  O         17.5160  -25.0570   -6.6020 O.2     1  UNL1       -0.2000
     29  N         16.0350  -22.9640   -6.4960 N.pl3   1  UNL1       -0.2800
     30  H         15.0390  -23.0730   -6.3150 H       1  UNL1        0.1790
     31  C         16.8470  -22.4140   -5.4660 C.2     1  UNL1        0.0490
     32  C         16.6170  -22.7150   -4.1160 C.2     1  UNL1       -0.0350
     33  C         17.4860  -22.1800   -3.1530 C.2     1  UNL1        0.0090
     34  C         15.5060  -23.6250   -3.6730 C.3     1  UNL1        0.0500
     35  C         18.5500  -21.3530   -3.5270 C.2     1  UNL1        0.0070
     36  C         18.7760  -21.0560   -4.8730 C.2     1  UNL1       -0.0600
     37  C         19.8930  -20.1400   -5.2760 C.3     1  UNL1        0.0480
     38  C         17.9110  -21.5840   -5.8380 C.2     1  UNL1        0.0370
@<TRIPOS>BOND
     1    22    23    1
     2    22    21    1
     3    23    24    1
     4    21    20    1
     5    20    25    1
     6    20    19    1
     7    24    25    1
     8    19    16    1
     9    16    15    2
    10    16    17    1
    11    15    14    1
    12    17    18    2
    13    14    13    2
    14    18    13    1
    15    13    12    1
    16     5     4    2
    17     5     6    1
    18     4     3    1
    19    11    10    1
    20     7     6    1
    21    10    12    1
    22    10     8   am
    23     6     1    2
    24     3     8    1
    25     3     2    2
    26     8     9    2
    27     1     2    1
    28     1    26    1
    29    27    26    2
    30    26    28    2
    31    26    29    1
    32    29    30    1
    33    29    31    1
    34    38    31    2
    35    38    36    1
    36    31    32    1
    37    37    36    1
    38    36    35    2
    39    32    34    1
    40    32    33    2
    41    35    33    1
