@<TRIPOS>MOLECULE
2003_out_ligand_01.pdbqt
 32 34 0 0 0
SMALL
GASTEIGER

@<TRIPOS>ATOM
      1  C         19.4470  -22.4080   -9.6450 C.2     1  UNL1        0.0340
      2  C         18.5200  -21.6800  -10.4020 C.2     1  UNL1        0.0170
      3  C         18.8880  -21.1860  -11.6500 C.2     1  UNL1        0.0030
      4  C         20.1770  -21.4210  -12.1360 C.2     1  UNL1        0.0290
      5  C         21.1110  -22.1550  -11.3890 C.2     1  UNL1        0.0350
      6  C         20.7330  -22.6560  -10.1420 C.2     1  UNL1        0.0460
      7  N         22.3860  -22.3350  -11.9700 N.am    1  UNL1       -0.3230
      8  C         23.6050  -21.9260  -11.4710 C.2     1  UNL1        0.2570
      9  O         23.7790  -21.2880  -10.4370 O.2     1  UNL1       -0.2670
     10  H         22.3850  -22.8580  -12.8440 H       1  UNL1        0.1690
     11  C         24.8180  -22.2320  -12.2880 C.2     1  UNL1        0.0490
     12  C         25.7300  -23.1370  -11.7110 C.2     1  UNL1        0.0180
     13  C         26.8730  -23.5490  -12.4000 C.2     1  UNL1        0.0010
     14  C         27.1210  -23.0740  -13.6830 C.2     1  UNL1        0.0010
     15  C         26.2240  -22.1870  -14.2780 C.2     1  UNL1        0.0190
     16  C         25.0740  -21.7650  -13.5860 C.2     1  UNL1        0.0530
     17  C         24.1940  -20.8150  -14.2790 C.2     1  UNL1        0.1770
     18  O         23.0890  -21.0720  -14.7170 O.2     1  UNL1       -0.6460
     19  O         24.7530  -19.5980  -14.3620 O.3     1  UNL1       -0.7730
     20  H         25.3600  -19.5330  -13.5960 H       1  UNL1        0.1670
     21  C         19.0720  -22.9530   -8.3130 C.2     1  UNL1        0.2560
     22  N         18.3050  -22.0910   -7.5490 N.am    1  UNL1       -0.3220
     23  H         18.1810  -21.1640   -7.9290 H       1  UNL1        0.1690
     24  O         19.4730  -24.0680   -8.0080 O.2     1  UNL1       -0.2670
     25  C         17.7480  -22.3200   -6.2660 C.2     1  UNL1        0.0410
     26  C         18.3640  -21.8470   -5.1020 C.2     1  UNL1        0.0300
     27  C         17.8070  -22.0860   -3.8480 C.2     1  UNL1        0.0030
     28  C         16.6240  -22.8050   -3.7380 C.2     1  UNL1        0.0070
     29  C         15.9770  -23.2980   -4.8800 C.2     1  UNL1       -0.0540
     30  C         14.6970  -24.0700   -4.6910 C.3     1  UNL1        0.0490
     31  C         16.5390  -23.0590   -6.1610 C.2     1  UNL1       -0.0290
     32  C         15.8570  -23.5810   -7.4030 C.3     1  UNL1        0.0510
@<TRIPOS>BOND
     1    18    17    2
     2    19    17    1
     3    19    20    1
     4    17    16    1
     5    15    14    2
     6    15    16    1
     7    14    13    1
     8    16    11    2
     9    10     7    1
    10    13    12    2
    11    11    12    1
    12    11     8    1
    13     4     3    2
    14     4     5    1
    15     7     8   am
    16     7     5    1
    17     3     2    1
    18     8     9    2
    19     5     6    2
    20     2     1    2
    21     6     1    1
    22     1    21    1
    23    21    24    2
    24    21    22   am
    25    23    22    1
    26    22    25    1
    27    32    31    1
    28    25    31    2
    29    25    26    1
    30    31    29    1
    31    26    27    2
    32    29    30    1
    33    29    28    2
    34    27    28    1
