@<TRIPOS>MOLECULE
20043_out_ligand_01.pdbqt
 38 41 0 0 0
SMALL
GASTEIGER

@<TRIPOS>ATOM
      1  C         17.7230  -23.5990   -8.6730 C.2     1  UNL1        0.1020
      2  C         19.0910  -23.8970   -8.5480 C.2     1  UNL1        0.0440
      3  C         20.0180  -23.3590   -9.4490 C.2     1  UNL1        0.0330
      4  C         19.5770  -22.5130  -10.4700 C.2     1  UNL1        0.0190
      5  C         18.2150  -22.2230  -10.5950 C.2     1  UNL1        0.0260
      6  C         17.2810  -22.7650   -9.7020 C.2     1  UNL1        0.0570
      7 CL         15.6320  -22.3160   -9.9460 Cl      1  UNL1       -0.0830
      8  C         21.4580  -23.6880   -9.2630 C.2     1  UNL1        0.2510
      9  O         21.7740  -24.7840   -8.8160 O.2     1  UNL1       -0.2680
     10  N         22.3600  -22.7230   -9.6560 N.am    1  UNL1       -0.3530
     11  H         22.0370  -21.9640  -10.2380 H       1  UNL1        0.1630
     12  C         23.7800  -23.0050   -9.7110 C.3     1  UNL1        0.1610
     13  C         24.3280  -22.6910  -11.0790 C.2     1  UNL1       -0.0410
     14  C         23.5400  -22.0060  -12.0140 C.2     1  UNL1        0.0090
     15  C         24.0530  -21.6770  -13.2690 C.2     1  UNL1        0.0090
     16  C         25.3660  -22.0260  -13.6170 C.2     1  UNL1       -0.0300
     17  C         26.1520  -22.7160  -12.6860 C.2     1  UNL1        0.0090
     18  C         25.6390  -23.0430  -11.4270 C.2     1  UNL1        0.0090
     19  C         25.9170  -21.6570  -14.9800 C.3     1  UNL1        0.3110
     20  N         26.3220  -22.8290  -15.7740 N.3     1  UNL1        0.0920
     21  C         25.2840  -23.8690  -15.8580 C.3     1  UNL1        0.2720
     22  C         24.1040  -23.5030  -16.7630 C.3     1  UNL1        0.0300
     23  C         24.5790  -23.0950  -18.1530 C.3     1  UNL1        0.0030
     24  C         25.6630  -22.0260  -18.0660 C.3     1  UNL1        0.0300
     25  C         26.7860  -22.4500  -17.1150 C.3     1  UNL1        0.2720
     26  S         16.5980  -24.3300   -7.5130 S.O2    1  UNL1        0.2650
     27  O         17.3430  -25.2500   -6.6800 O.2     1  UNL1       -0.2000
     28  O         15.4470  -24.8030   -8.2520 O.2     1  UNL1       -0.2000
     29  N         16.0810  -23.0370   -6.5690 N.pl3   1  UNL1       -0.2800
     30  H         15.4040  -22.4640   -7.0660 H       1  UNL1        0.1790
     31  C         16.9060  -22.4180   -5.5760 C.2     1  UNL1        0.0490
     32  C         16.6440  -22.6600   -4.2130 C.2     1  UNL1       -0.0350
     33  C         17.4620  -22.0600   -3.2410 C.2     1  UNL1        0.0090
     34  C         15.5090  -23.5320   -3.7490 C.3     1  UNL1        0.0500
     35  C         18.5440  -21.2600   -3.6070 C.2     1  UNL1        0.0070
     36  C         18.8350  -21.0520   -4.9540 C.2     1  UNL1       -0.0600
     37  C         20.0290  -20.2420   -5.3690 C.3     1  UNL1        0.0480
     38  C         18.0280  -21.6560   -5.9280 C.2     1  UNL1        0.0370
@<TRIPOS>BOND
     1    23    24    1
     2    23    22    1
     3    24    25    1
     4    25    20    1
     5    22    21    1
     6    21    20    1
     7    20    19    1
     8    19    16    1
     9    16    15    2
    10    16    17    1
    11    15    14    1
    12    17    18    2
    13    14    13    2
    14    18    13    1
    15    13    12    1
    16     5     4    2
    17     5     6    1
    18     4     3    1
    19    11    10    1
    20     7     6    1
    21    12    10    1
    22     6     1    2
    23    10     8   am
    24     3     8    1
    25     3     2    2
    26     8     9    2
    27     1     2    1
    28     1    26    1
    29    28    26    2
    30    26    27    2
    31    26    29    1
    32    30    29    1
    33    29    31    1
    34    38    31    2
    35    38    36    1
    36    31    32    1
    37    37    36    1
    38    36    35    2
    39    32    34    1
    40    32    33    2
    41    35    33    1
