@<TRIPOS>MOLECULE
20054_out_ligand_01.pdbqt
 37 40 0 0 0
SMALL
GASTEIGER

@<TRIPOS>ATOM
      1  C         17.7100  -23.6520   -8.5730 C.2     1  UNL1        0.1020
      2  C         19.0900  -23.8750   -8.4360 C.2     1  UNL1        0.0440
      3  C         19.9900  -23.3180   -9.3490 C.2     1  UNL1        0.0330
      4  C         19.5110  -22.5310  -10.4010 C.2     1  UNL1        0.0190
      5  C         18.1370  -22.3160  -10.5390 C.2     1  UNL1        0.0260
      6  C         17.2290  -22.8760   -9.6290 C.2     1  UNL1        0.0570
      7 CL         15.5620  -22.5110   -9.8850 Cl      1  UNL1       -0.0830
      8  C         21.4420  -23.5610   -9.1470 C.2     1  UNL1        0.2510
      9  O         21.8300  -24.6650   -8.7890 O.2     1  UNL1       -0.2680
     10  N         22.2740  -22.4970   -9.4220 N.am    1  UNL1       -0.3530
     11  H         21.8990  -21.7150   -9.9420 H       1  UNL1        0.1630
     12  C         23.7080  -22.6770   -9.4930 C.3     1  UNL1        0.1610
     13  C         24.2300  -22.2020  -10.8240 C.2     1  UNL1       -0.0410
     14  C         23.5600  -22.5230  -12.0120 C.2     1  UNL1        0.0090
     15  C         24.0720  -22.1110  -13.2450 C.2     1  UNL1        0.0090
     16  C         25.2560  -21.3610  -13.3170 C.2     1  UNL1       -0.0300
     17  C         25.9350  -21.0600  -12.1290 C.2     1  UNL1        0.0090
     18  C         25.4270  -21.4760  -10.8960 C.2     1  UNL1        0.0090
     19  C         25.8260  -20.9330  -14.6540 C.3     1  UNL1        0.3110
     20  N         25.0870  -21.4700  -15.8010 N.3     1  UNL1        0.0920
     21  C         25.0780  -20.5660  -16.9540 C.3     1  UNL1        0.2730
     22  C         24.6390  -21.4700  -18.0990 C.3     1  UNL1        0.0320
     23  C         24.9880  -22.8840  -17.6480 C.3     1  UNL1        0.0320
     24  C         25.6780  -22.7100  -16.3050 C.3     1  UNL1        0.2730
     25  S         16.6240  -24.3840   -7.3760 S.O2    1  UNL1        0.2650
     26  O         15.4720  -24.9080   -8.0770 O.2     1  UNL1       -0.2000
     27  O         17.4110  -25.2610   -6.5350 O.2     1  UNL1       -0.2000
     28  N         16.0940  -23.0770   -6.4570 N.pl3   1  UNL1       -0.2800
     29  H         15.4300  -22.5040   -6.9730 H       1  UNL1        0.1790
     30  C         16.9280  -22.4450   -5.4790 C.2     1  UNL1        0.0490
     31  C         16.6980  -22.6830   -4.1110 C.2     1  UNL1       -0.0350
     32  C         17.5110  -22.0440   -3.1600 C.2     1  UNL1        0.0090
     33  C         15.5970  -23.5810   -3.6180 C.3     1  UNL1        0.0500
     34  C         18.5550  -21.2080   -3.5540 C.2     1  UNL1        0.0070
     35  C         18.8140  -21.0020   -4.9080 C.2     1  UNL1       -0.0600
     36  C         19.9600  -20.1390   -5.3540 C.3     1  UNL1        0.0480
     37  C         18.0160  -21.6490   -5.8600 C.2     1  UNL1        0.0370
@<TRIPOS>BOND
     1    22    23    1
     2    22    21    1
     3    23    24    1
     4    21    20    1
     5    24    20    1
     6    20    19    1
     7    19    16    1
     8    16    15    2
     9    16    17    1
    10    15    14    1
    11    17    18    2
    12    14    13    2
    13    18    13    1
    14    13    12    1
    15     5     4    2
    16     5     6    1
    17     4     3    1
    18    11    10    1
    19     7     6    1
    20     6     1    2
    21    12    10    1
    22    10     8   am
    23     3     8    1
    24     3     2    2
    25     8     9    2
    26     1     2    1
    27     1    25    1
    28    26    25    2
    29    25    27    2
    30    25    28    1
    31    29    28    1
    32    28    30    1
    33    37    30    2
    34    37    35    1
    35    30    31    1
    36    36    35    1
    37    35    34    2
    38    31    33    1
    39    31    32    2
    40    34    32    1
