@<TRIPOS>MOLECULE
20050_out_ligand_01.pdbqt
 36 39 0 0 0
SMALL
GASTEIGER

@<TRIPOS>ATOM
      1  C         17.6200  -23.6190   -8.5690 C.2     1  UNL1        0.1020
      2  C         19.0130  -23.8190   -8.5420 C.2     1  UNL1        0.0440
      3  C         19.8380  -23.2460   -9.5150 C.2     1  UNL1        0.0330
      4  C         19.2720  -22.4720  -10.5290 C.2     1  UNL1        0.0190
      5  C         17.8860  -22.2900  -10.5670 C.2     1  UNL1        0.0260
      6  C         17.0510  -22.8630   -9.5950 C.2     1  UNL1        0.0570
      7 CL         15.3700  -22.5320   -9.7830 Cl      1  UNL1       -0.0830
      8  C         21.3050  -23.4530   -9.3980 C.2     1  UNL1        0.2510
      9  O         21.7310  -24.5470   -9.0460 O.2     1  UNL1       -0.2680
     10  N         22.1000  -22.3830   -9.7320 N.am    1  UNL1       -0.3530
     11  H         21.6960  -21.5680  -10.1720 H       1  UNL1        0.1630
     12  C         23.5420  -22.4990   -9.7880 C.3     1  UNL1        0.1610
     13  C         24.0370  -22.2480  -11.1890 C.2     1  UNL1       -0.0410
     14  C         25.4070  -22.2180  -11.4760 C.2     1  UNL1        0.0090
     15  C         25.8550  -21.9730  -12.7780 C.2     1  UNL1        0.0090
     16  C         24.9430  -21.7580  -13.8190 C.2     1  UNL1       -0.0300
     17  C         23.5730  -21.7660  -13.5250 C.2     1  UNL1        0.0090
     18  C         23.1230  -22.0180  -12.2270 C.2     1  UNL1        0.0090
     19  C         25.4380  -21.4620  -15.2220 C.3     1  UNL1        0.3110
     20  N         26.0040  -22.6370  -15.9090 N.3     1  UNL1        0.0920
     21  C         25.0900  -23.7860  -15.8410 C.3     1  UNL1        0.2730
     22  C         24.1070  -23.6040  -16.9880 C.3     1  UNL1        0.0320
     23  C         24.8400  -22.7320  -17.9970 C.3     1  UNL1        0.0320
     24  C         26.1800  -22.4100  -17.3520 C.3     1  UNL1        0.2730
     25  S         16.6920  -24.3960   -7.2670 S.O2    1  UNL1        0.2650
     26  O         15.5700  -25.1260   -7.8050 O.2     1  UNL1       -0.2000
     27  O         17.6530  -25.0770   -6.4210 O.2     1  UNL1       -0.2000
     28  N         16.1430  -23.0940   -6.3470 N.pl3   1  UNL1       -0.2800
     29  H         15.1480  -23.1480   -6.1420 H       1  UNL1        0.1790
     30  C         17.0020  -22.4440   -5.4190 C.2     1  UNL1        0.0480
     31  C         18.0010  -21.5860   -5.8860 C.2     1  UNL1        0.0300
     32  C         18.8710  -20.9620   -4.9940 C.2     1  UNL1        0.0020
     33  C         18.7420  -21.1890   -3.6290 C.2     1  UNL1        0.0010
     34  C         17.7360  -22.0310   -3.1530 C.2     1  UNL1        0.0090
     35  C         16.8500  -22.6620   -4.0390 C.2     1  UNL1       -0.0350
     36  C         15.7610  -23.5350   -3.4830 C.3     1  UNL1        0.0500
@<TRIPOS>BOND
     1    23    24    1
     2    23    22    1
     3    24    20    1
     4    22    21    1
     5    20    21    1
     6    20    19    1
     7    19    16    1
     8    16    17    2
     9    16    15    1
    10    17    18    1
    11    15    14    2
    12    18    13    2
    13    14    13    1
    14    13    12    1
    15     5     4    2
    16     5     6    1
    17     4     3    1
    18    11    10    1
    19    12    10    1
    20     7     6    1
    21    10     8   am
    22     6     1    2
    23     3     8    1
    24     3     2    2
    25     8     9    2
    26     1     2    1
    27     1    25    1
    28    26    25    2
    29    25    27    2
    30    25    28    1
    31    28    29    1
    32    28    30    1
    33    31    30    2
    34    31    32    1
    35    30    35    1
    36    32    33    2
    37    35    36    1
    38    35    34    2
    39    33    34    1
