@<TRIPOS>MOLECULE
20063_out_ligand_01.pdbqt
 37 40 0 0 0
SMALL
GASTEIGER

@<TRIPOS>ATOM
      1  C         17.6260  -23.4650   -8.5060 C.2     1  UNL1        0.1020
      2  C         19.0060  -23.4890   -8.2200 C.2     1  UNL1        0.0440
      3  C         19.9140  -22.8290   -9.0530 C.2     1  UNL1        0.0330
      4  C         19.4400  -22.1270  -10.1630 C.2     1  UNL1        0.0190
      5  C         18.0740  -22.1090  -10.4510 C.2     1  UNL1        0.0260
      6  C         17.1570  -22.7830   -9.6310 C.2     1  UNL1        0.0570
      7 CL         15.5030  -22.6600  -10.1000 Cl      1  UNL1       -0.0830
      8  C         21.3780  -22.8250   -8.7810 C.2     1  UNL1        0.2510
      9  O         21.8280  -22.1030   -7.8990 O.2     1  UNL1       -0.2680
     10  N         22.1480  -23.6340   -9.5870 N.am    1  UNL1       -0.3530
     11  H         21.7480  -24.0030  -10.4380 H       1  UNL1        0.1630
     12  C         23.5930  -23.5820   -9.5360 C.3     1  UNL1        0.1610
     13  C         24.1390  -22.7780  -10.6870 C.2     1  UNL1       -0.0410
     14  C         25.4930  -22.4210  -10.7340 C.2     1  UNL1        0.0090
     15  C         25.9970  -21.7040  -11.8230 C.2     1  UNL1        0.0090
     16  C         25.1610  -21.3360  -12.8860 C.2     1  UNL1       -0.0300
     17  C         23.8090  -21.6990  -12.8410 C.2     1  UNL1        0.0090
     18  C         23.3050  -22.4180  -11.7540 C.2     1  UNL1        0.0090
     19  C         25.7120  -20.5560  -14.0620 C.3     1  UNL1        0.3110
     20  N         26.3360  -21.4090  -15.0860 N.3     1  UNL1        0.0960
     21  C         26.7600  -22.7130  -14.5250 C.3     1  UNL1        0.2990
     22  C         26.8540  -23.7980  -15.6080 C.3     1  UNL1        0.1980
     23  O         25.5850  -24.0840  -16.2130 O.3     1  UNL1       -0.3880
     24  C         24.7020  -22.9550  -16.2260 C.3     1  UNL1        0.1980
     25  C         25.4420  -21.6090  -16.2470 C.3     1  UNL1        0.2990
     26  S         16.5650  -24.3650   -7.4050 S.O2    1  UNL1        0.2640
     27  O         15.5080  -25.0290   -8.1290 O.2     1  UNL1       -0.2000
     28  O         17.4330  -25.1450   -6.5410 O.2     1  UNL1       -0.2000
     29  N         15.9370  -23.1570   -6.4090 N.pl3   1  UNL1       -0.2810
     30  H         15.3030  -22.5420   -6.9180 H       1  UNL1        0.1790
     31  C         16.7820  -22.5570   -5.4410 C.2     1  UNL1        0.0430
     32  C         16.5920  -22.7890   -4.0810 C.2     1  UNL1        0.0300
     33  C         17.4430  -22.1910   -3.1540 C.2     1  UNL1        0.0030
     34  C         18.4850  -21.3680   -3.5890 C.2     1  UNL1        0.0070
     35  C         18.6800  -21.1300   -4.9540 C.2     1  UNL1       -0.0600
     36  C         19.8170  -20.2720   -5.4220 C.3     1  UNL1        0.0480
     37  C         17.8290  -21.7460   -5.8810 C.2     1  UNL1        0.0370
@<TRIPOS>BOND
     1    25    24    1
     2    25    20    1
     3    24    23    1
     4    23    22    1
     5    22    21    1
     6    20    21    1
     7    20    19    1
     8    19    16    1
     9    16    17    2
    10    16    15    1
    11    17    18    1
    12    15    14    2
    13    18    13    2
    14    14    13    1
    15    13    12    1
    16     5     4    2
    17     5     6    1
    18    11    10    1
    19     4     3    1
    20     7     6    1
    21     6     1    2
    22    10    12    1
    23    10     8   am
    24     3     8    1
    25     3     2    2
    26     8     9    2
    27     1     2    1
    28     1    26    1
    29    27    26    2
    30    26    28    2
    31    26    29    1
    32    30    29    1
    33    29    31    1
    34    37    31    2
    35    37    35    1
    36    31    32    1
    37    36    35    1
    38    35    34    2
    39    32    33    2
    40    34    33    1
