@<TRIPOS>MOLECULE
20066_out_ligand_01.pdbqt
 36 39 0 0 0
SMALL
GASTEIGER

@<TRIPOS>ATOM
      1  C         15.4850  -22.5670   -9.9520 C.3     1  UNL1        0.0500
      2  C         16.9750  -22.6830   -9.7900 C.2     1  UNL1       -0.0390
      3  C         17.7950  -22.0600  -10.7520 C.2     1  UNL1        0.0090
      4  C         19.1910  -22.1230  -10.6730 C.2     1  UNL1        0.0170
      5  C         19.7940  -22.8090   -9.6180 C.2     1  UNL1        0.0330
      6  C         19.0000  -23.4280   -8.6500 C.2     1  UNL1        0.0420
      7  C         17.5980  -23.3770   -8.7350 C.2     1  UNL1        0.0860
      8  C         21.2650  -22.9450   -9.4980 C.2     1  UNL1        0.2510
      9  O         21.7400  -24.0150   -9.1360 O.2     1  UNL1       -0.2680
     10  N         22.0070  -21.8170   -9.7690 N.am    1  UNL1       -0.3530
     11  H         21.5420  -20.9310   -9.8980 H       1  UNL1        0.1630
     12  C         23.4350  -21.7800   -9.5270 C.3     1  UNL1        0.1610
     13  C         24.2560  -22.1250  -10.7480 C.2     1  UNL1       -0.0410
     14  C         25.4770  -21.4690  -10.9590 C.2     1  UNL1        0.0090
     15  C         26.2400  -21.7240  -12.1030 C.2     1  UNL1        0.0090
     16  C         25.7970  -22.6380  -13.0700 C.2     1  UNL1       -0.0300
     17  C         24.5770  -23.2910  -12.8620 C.2     1  UNL1        0.0090
     18  C         23.8090  -23.0270  -11.7230 C.2     1  UNL1        0.0090
     19  C         26.6200  -22.9070  -14.3120 C.3     1  UNL1        0.3110
     20  N         26.0840  -22.4330  -15.5950 N.3     1  UNL1        0.0960
     21  C         25.3890  -21.1380  -15.5100 C.3     1  UNL1        0.2990
     22  C         24.9510  -20.6590  -16.9050 C.3     1  UNL1        0.1980
     23  O         24.1080  -21.6260  -17.5510 O.3     1  UNL1       -0.3880
     24  C         24.7940  -22.8810  -17.6630 C.3     1  UNL1        0.1980
     25  C         25.2230  -23.4080  -16.2840 C.3     1  UNL1        0.2990
     26  S         16.7170  -24.2150   -7.4210 S.O2    1  UNL1        0.2630
     27  O         15.5790  -24.8650   -8.0430 O.2     1  UNL1       -0.2000
     28  O         17.6410  -24.9720   -6.6050 O.2     1  UNL1       -0.2000
     29  N         16.1000  -22.9370   -6.4990 N.pl3   1  UNL1       -0.2810
     30  H         15.5210  -22.3040   -7.0480 H       1  UNL1        0.1790
     31  C         16.9200  -22.3630   -5.4850 C.2     1  UNL1        0.0420
     32  C         18.0260  -21.5950   -5.8540 C.2     1  UNL1        0.0300
     33  C         18.8580  -21.0560   -4.8690 C.2     1  UNL1        0.0020
     34  C         18.5820  -21.2810   -3.5200 C.2     1  UNL1        0.0000
     35  C         17.4730  -22.0430   -3.1530 C.2     1  UNL1        0.0020
     36  C         16.6440  -22.5860   -4.1350 C.2     1  UNL1        0.0300
@<TRIPOS>BOND
     1    24    23    1
     2    24    25    1
     3    23    22    1
     4    22    21    1
     5    25    20    1
     6    20    21    1
     7    20    19    1
     8    19    16    1
     9    16    17    2
    10    16    15    1
    11    17    18    1
    12    15    14    2
    13    18    13    2
    14    14    13    1
    15     3     4    1
    16     3     2    2
    17    13    12    1
    18     4     5    2
    19     1     2    1
    20    11    10    1
    21     2     7    1
    22    10    12    1
    23    10     8   am
    24     5     8    1
    25     5     6    1
    26     8     9    2
    27     7     6    2
    28     7    26    1
    29    27    26    2
    30    26    28    2
    31    26    29    1
    32    30    29    1
    33    29    31    1
    34    32    31    2
    35    32    33    1
    36    31    36    1
    37    33    34    2
    38    36    35    2
    39    34    35    1
