@<TRIPOS>MOLECULE
20062_out_ligand_01.pdbqt
 38 41 0 0 0
SMALL
GASTEIGER

@<TRIPOS>ATOM
      1  C         17.6120  -23.5700   -8.6510 C.2     1  UNL1        0.0860
      2  C         19.0050  -23.7280   -8.5190 C.2     1  UNL1        0.0420
      3  C         19.8770  -23.1390   -9.4390 C.2     1  UNL1        0.0330
      4  C         19.3550  -22.4050  -10.5040 C.2     1  UNL1        0.0170
      5  C         17.9740  -22.2300  -10.6260 C.2     1  UNL1        0.0090
      6  C         17.0790  -22.8000   -9.7010 C.2     1  UNL1       -0.0390
      7  C         15.6140  -22.5210   -9.8850 C.3     1  UNL1        0.0500
      8  C         21.3530  -23.2900   -9.3260 C.2     1  UNL1        0.2510
      9  O         21.8360  -24.3790   -9.0410 O.2     1  UNL1       -0.2680
     10  N         22.0960  -22.1590   -9.5870 N.am    1  UNL1       -0.3530
     11  H         21.6490  -21.3950  -10.0750 H       1  UNL1        0.1630
     12  C         23.5380  -22.2180   -9.6970 C.3     1  UNL1        0.1610
     13  C         23.9680  -21.8920  -11.1040 C.2     1  UNL1       -0.0410
     14  C         23.0680  -22.0390  -12.1690 C.2     1  UNL1        0.0090
     15  C         23.4460  -21.6980  -13.4690 C.2     1  UNL1        0.0090
     16  C         24.7270  -21.1930  -13.7300 C.2     1  UNL1       -0.0300
     17  C         25.6240  -21.0390  -12.6640 C.2     1  UNL1        0.0090
     18  C         25.2480  -21.3840  -11.3630 C.2     1  UNL1        0.0090
     19  C         25.1240  -20.7960  -15.1370 C.3     1  UNL1        0.3110
     20  N         26.1300  -21.6900  -15.7330 N.3     1  UNL1        0.0960
     21  C         25.7310  -23.1090  -15.6010 C.3     1  UNL1        0.2990
     22  C         24.5960  -23.5300  -16.5490 C.3     1  UNL1        0.1980
     23  O         24.9240  -23.2520  -17.9160 O.3     1  UNL1       -0.3880
     24  C         25.2310  -21.8630  -18.0960 C.3     1  UNL1        0.1980
     25  C         26.3720  -21.4120  -17.1670 C.3     1  UNL1        0.2990
     26  S         16.6210  -24.3450   -7.3740 S.O2    1  UNL1        0.2630
     27  O         15.4400  -24.8650   -8.0350 O.2     1  UNL1       -0.2000
     28  O         17.4460  -25.2160   -6.5680 O.2     1  UNL1       -0.2000
     29  N         16.0880  -23.0440   -6.4570 N.pl3   1  UNL1       -0.2800
     30  H         15.3620  -22.4830   -6.8970 H       1  UNL1        0.1790
     31  C         16.9090  -22.4540   -5.4590 C.2     1  UNL1        0.0490
     32  C         16.6680  -22.6860   -4.0960 C.2     1  UNL1       -0.0350
     33  C         17.4980  -22.0570   -3.1530 C.2     1  UNL1        0.0090
     34  C         15.5290  -23.5280   -3.5940 C.3     1  UNL1        0.0500
     35  C         18.5600  -21.2450   -3.5570 C.2     1  UNL1        0.0070
     36  C         18.8080  -21.0290   -4.9130 C.2     1  UNL1       -0.0600
     37  C         19.9690  -20.1910   -5.3600 C.3     1  UNL1        0.0480
     38  C         17.9820  -21.6480   -5.8580 C.2     1  UNL1        0.0370
@<TRIPOS>BOND
     1    24    23    1
     2    24    25    1
     3    23    22    1
     4    25    20    1
     5    22    21    1
     6    20    21    1
     7    20    19    1
     8    19    16    1
     9    16    15    2
    10    16    17    1
    11    15    14    1
    12    17    18    2
    13    14    13    2
    14    18    13    1
    15    13    12    1
    16     5     4    2
    17     5     6    1
    18     4     3    1
    19    11    10    1
    20     7     6    1
    21     6     1    2
    22    12    10    1
    23    10     8   am
    24     3     8    1
    25     3     2    2
    26     8     9    2
    27     1     2    1
    28     1    26    1
    29    27    26    2
    30    26    28    2
    31    26    29    1
    32    30    29    1
    33    29    31    1
    34    38    31    2
    35    38    36    1
    36    31    32    1
    37    37    36    1
    38    36    35    2
    39    32    34    1
    40    32    33    2
    41    35    33    1
