@<TRIPOS>MOLECULE
20064_out_ligand_01.pdbqt
 38 41 0 0 0
SMALL
GASTEIGER

@<TRIPOS>ATOM
      1  C         17.6660  -23.5420   -8.5780 C.2     1  UNL1        0.1020
      2  C         19.0620  -23.7070   -8.4520 C.2     1  UNL1        0.0440
      3  C         19.9320  -23.1210   -9.3760 C.2     1  UNL1        0.0330
      4  C         19.4010  -22.3730  -10.4320 C.2     1  UNL1        0.0190
      5  C         18.0190  -22.2020  -10.5510 C.2     1  UNL1        0.0260
      6  C         17.1410  -22.7810   -9.6260 C.2     1  UNL1        0.0570
      7 CL         15.4620  -22.5290   -9.9300 Cl      1  UNL1       -0.0830
      8  C         21.4100  -23.2970   -9.3130 C.2     1  UNL1        0.2510
      9  O         21.8730  -24.4190   -9.1510 O.2     1  UNL1       -0.2680
     10  N         22.1780  -22.1640   -9.4640 N.am    1  UNL1       -0.3530
     11  H         21.7600  -21.3080   -9.7960 H       1  UNL1        0.1630
     12  C         23.6220  -22.2370   -9.5210 C.3     1  UNL1        0.1610
     13  C         24.1260  -21.8150  -10.8780 C.2     1  UNL1       -0.0410
     14  C         23.3170  -21.9750  -12.0120 C.2     1  UNL1        0.0090
     15  C         23.7710  -21.5770  -13.2710 C.2     1  UNL1        0.0090
     16  C         25.0450  -21.0130  -13.4220 C.2     1  UNL1       -0.0300
     17  C         25.8540  -20.8540  -12.2880 C.2     1  UNL1        0.0090
     18  C         25.3980  -21.2480  -11.0270 C.2     1  UNL1        0.0090
     19  C         25.5490  -20.5890  -14.7850 C.3     1  UNL1        0.3110
     20  N         26.2790  -21.6580  -15.4890 N.3     1  UNL1        0.0960
     21  C         25.5020  -22.1960  -16.6250 C.3     1  UNL1        0.2990
     22  C         24.7660  -23.5050  -16.2990 C.3     1  UNL1        0.1980
     23  O         25.6450  -24.5620  -15.8840 O.3     1  UNL1       -0.3880
     24  C         26.8630  -24.0820  -15.2970 C.3     1  UNL1        0.1980
     25  C         26.6740  -22.7470  -14.5640 C.3     1  UNL1        0.2990
     26  S         16.6570  -24.3170   -7.3400 S.O2    1  UNL1        0.2650
     27  O         15.4970  -24.8540   -8.0320 O.2     1  UNL1       -0.2000
     28  O         17.4430  -25.1870   -6.4980 O.2     1  UNL1       -0.2000
     29  N         16.0640  -23.0100   -6.4530 N.pl3   1  UNL1       -0.2800
     30  H         15.0690  -23.1040   -6.2550 H       1  UNL1        0.1790
     31  C         16.8780  -22.4240   -5.4440 C.2     1  UNL1        0.0490
     32  C         16.6310  -22.6210   -4.0790 C.2     1  UNL1       -0.0350
     33  C         17.5180  -22.0480   -3.1540 C.2     1  UNL1        0.0090
     34  C         15.5000  -23.4640   -3.5620 C.3     1  UNL1        0.0500
     35  C         18.5980  -21.2680   -3.5770 C.2     1  UNL1        0.0070
     36  C         18.8140  -21.0380   -4.9380 C.2     1  UNL1       -0.0600
     37  C         19.9850  -20.2240   -5.4000 C.3     1  UNL1        0.0480
     38  C         17.9530  -21.6340   -5.8670 C.2     1  UNL1        0.0370
@<TRIPOS>BOND
     1    21    22    1
     2    21    20    1
     3    22    23    1
     4    23    24    1
     5    20    19    1
     6    20    25    1
     7    24    25    1
     8    19    16    1
     9    16    15    2
    10    16    17    1
    11    15    14    1
    12    17    18    2
    13    14    13    2
    14    18    13    1
    15    13    12    1
    16     5     4    2
    17     5     6    1
    18     4     3    1
    19     7     6    1
    20    11    10    1
    21     6     1    2
    22    12    10    1
    23    10     8   am
    24     3     8    1
    25     3     2    2
    26     8     9    2
    27     1     2    1
    28     1    26    1
    29    27    26    2
    30    26    28    2
    31    26    29    1
    32    29    30    1
    33    29    31    1
    34    38    31    2
    35    38    36    1
    36    31    32    1
    37    37    36    1
    38    36    35    2
    39    32    34    1
    40    32    33    2
    41    35    33    1
