@<TRIPOS>MOLECULE
20067_out_ligand_01.pdbqt
 37 40 0 0 0
SMALL
GASTEIGER

@<TRIPOS>ATOM
      1  C         17.7010  -23.4610   -8.5890 C.2     1  UNL1        0.0860
      2  C         19.0990  -23.5640   -8.4620 C.2     1  UNL1        0.0420
      3  C         19.9350  -22.9800   -9.4160 C.2     1  UNL1        0.0330
      4  C         19.3720  -22.2880  -10.4900 C.2     1  UNL1        0.0170
      5  C         17.9860  -22.1890  -10.6210 C.2     1  UNL1        0.0090
      6  C         17.1260  -22.7640   -9.6710 C.2     1  UNL1       -0.0390
      7  C         15.6450  -22.6160   -9.8950 C.3     1  UNL1        0.0500
      8  C         21.4200  -23.0490   -9.3280 C.2     1  UNL1        0.2510
      9  O         21.9530  -24.0620   -8.8920 O.2     1  UNL1       -0.2680
     10  N         22.1200  -21.9260   -9.7120 N.am    1  UNL1       -0.3530
     11  H         21.6360  -21.0610   -9.9030 H       1  UNL1        0.1630
     12  C         23.5600  -21.8480   -9.5710 C.3     1  UNL1        0.1610
     13  C         24.3040  -22.1040  -10.8620 C.2     1  UNL1       -0.0410
     14  C         25.5840  -21.5850  -11.0970 C.2     1  UNL1        0.0090
     15  C         26.2780  -21.8960  -12.2690 C.2     1  UNL1        0.0090
     16  C         25.7210  -22.7560  -13.2270 C.2     1  UNL1       -0.0300
     17  C         24.4480  -23.2850  -12.9890 C.2     1  UNL1        0.0090
     18  C         23.7470  -22.9620  -11.8230 C.2     1  UNL1        0.0090
     19  C         26.5110  -23.1320  -14.4620 C.3     1  UNL1        0.3110
     20  N         25.9860  -22.7120  -15.7650 N.3     1  UNL1        0.0960
     21  C         25.6040  -21.2900  -15.8340 C.3     1  UNL1        0.2990
     22  C         25.1750  -20.9090  -17.2620 C.3     1  UNL1        0.1980
     23  O         24.1000  -21.7370  -17.7290 O.3     1  UNL1       -0.3880
     24  C         24.4900  -23.1190  -17.6890 C.3     1  UNL1        0.1980
     25  C         24.8830  -23.5460  -16.2660 C.3     1  UNL1        0.2990
     26  S         16.7100  -24.2820   -7.3430 S.O2    1  UNL1        0.2630
     27  O         15.5420  -24.8430   -7.9910 O.2     1  UNL1       -0.2000
     28  O         17.5930  -25.1330   -6.5680 O.2     1  UNL1       -0.2000
     29  N         16.1720  -23.0070   -6.3790 N.pl3   1  UNL1       -0.2800
     30  H         15.4900  -22.4180   -6.8460 H       1  UNL1        0.1790
     31  C         17.0540  -22.4140   -5.4270 C.2     1  UNL1        0.0480
     32  C         18.0750  -21.5720   -5.8790 C.2     1  UNL1        0.0300
     33  C         18.9160  -20.9250   -4.9740 C.2     1  UNL1        0.0020
     34  C         18.7400  -21.1160   -3.6090 C.2     1  UNL1        0.0010
     35  C         17.7400  -21.9740   -3.1530 C.2     1  UNL1        0.0090
     36  C         16.8990  -22.6520   -4.0520 C.2     1  UNL1       -0.0350
     37  C         15.8350  -23.5510   -3.4920 C.3     1  UNL1        0.0500
@<TRIPOS>BOND
     1    23    24    1
     2    23    22    1
     3    24    25    1
     4    22    21    1
     5    25    20    1
     6    21    20    1
     7    20    19    1
     8    19    16    1
     9    16    17    2
    10    16    15    1
    11    17    18    1
    12    15    14    2
    13    18    13    2
    14    14    13    1
    15    13    12    1
    16     5     4    2
    17     5     6    1
    18     4     3    1
    19    11    10    1
    20     7     6    1
    21    10    12    1
    22    10     8   am
    23     6     1    2
    24     3     8    1
    25     3     2    2
    26     8     9    2
    27     1     2    1
    28     1    26    1
    29    27    26    2
    30    26    28    2
    31    26    29    1
    32    30    29    1
    33    29    31    1
    34    32    31    2
    35    32    33    1
    36    31    36    1
    37    33    34    2
    38    36    37    1
    39    36    35    2
    40    34    35    1
