@<TRIPOS>MOLECULE
20068_out_ligand_01.pdbqt
 37 40 0 0 0
SMALL
GASTEIGER

@<TRIPOS>ATOM
      1  C         17.6720  -23.5810   -8.5700 C.2     1  UNL1        0.0860
      2  C         19.0450  -23.8700   -8.4710 C.2     1  UNL1        0.0420
      3  C         19.9470  -23.3240   -9.3880 C.2     1  UNL1        0.0330
      4  C         19.4740  -22.4810  -10.3960 C.2     1  UNL1        0.0170
      5  C         18.1090  -22.2030  -10.5030 C.2     1  UNL1        0.0090
      6  C         17.1840  -22.7430   -9.5930 C.2     1  UNL1       -0.0390
      7  C         15.7310  -22.4090   -9.7780 C.3     1  UNL1        0.0500
      8  C         21.4110  -23.5900   -9.3130 C.2     1  UNL1        0.2510
      9  O         21.8130  -24.6770   -8.9150 O.2     1  UNL1       -0.2680
     10  N         22.2400  -22.5510   -9.6790 N.am    1  UNL1       -0.3530
     11  H         21.8540  -21.6230   -9.7690 H       1  UNL1        0.1630
     12  C         23.6730  -22.6310   -9.4940 C.3     1  UNL1        0.1610
     13  C         24.3890  -22.3400  -10.7870 C.2     1  UNL1       -0.0410
     14  C         23.9300  -22.8970  -11.9880 C.2     1  UNL1        0.0090
     15  C         24.6070  -22.6560  -13.1850 C.2     1  UNL1        0.0090
     16  C         25.7540  -21.8510  -13.2090 C.2     1  UNL1       -0.0300
     17  C         26.2200  -21.3070  -12.0040 C.2     1  UNL1        0.0090
     18  C         25.5450  -21.5480  -10.8060 C.2     1  UNL1        0.0090
     19  C         26.5090  -21.6130  -14.5020 C.3     1  UNL1        0.3110
     20  N         25.8070  -20.7240  -15.4400 N.3     1  UNL1        0.0960
     21  C         25.5010  -19.3970  -14.8620 C.3     1  UNL1        0.2990
     22  C         26.4830  -18.2970  -15.2980 C.3     1  UNL1        0.1980
     23  O         26.5380  -18.1150  -16.7190 O.3     1  UNL1       -0.3880
     24  C         26.2110  -19.3040  -17.4520 C.3     1  UNL1        0.1980
     25  C         26.5830  -20.5830  -16.6910 C.3     1  UNL1        0.2990
     26  S         16.5950  -24.3350   -7.3510 S.O2    1  UNL1        0.2630
     27  O         15.4400  -24.8770   -8.0360 O.2     1  UNL1       -0.2000
     28  O         17.4110  -25.1840   -6.5070 O.2     1  UNL1       -0.2000
     29  N         16.0520  -23.0140   -6.4490 N.pl3   1  UNL1       -0.2810
     30  H         15.4760  -22.3800   -6.9990 H       1  UNL1        0.1790
     31  C         16.9190  -22.4470   -5.4740 C.2     1  UNL1        0.0430
     32  C         16.6300  -22.6320   -4.1220 C.2     1  UNL1        0.0300
     33  C         17.4280  -22.0230   -3.1530 C.2     1  UNL1        0.0030
     34  C         18.5150  -21.2370   -3.5360 C.2     1  UNL1        0.0070
     35  C         18.8240  -21.0630   -4.8890 C.2     1  UNL1       -0.0600
     36  C         19.9730  -20.1910   -5.3030 C.3     1  UNL1        0.0480
     37  C         18.0090  -21.6650   -5.8570 C.2     1  UNL1        0.0370
@<TRIPOS>BOND
     1    24    23    1
     2    24    25    1
     3    23    22    1
     4    25    20    1
     5    20    21    1
     6    20    19    1
     7    22    21    1
     8    19    16    1
     9    16    15    2
    10    16    17    1
    11    15    14    1
    12    17    18    2
    13    14    13    2
    14    18    13    1
    15    13    12    1
    16     5     4    2
    17     5     6    1
    18     4     3    1
    19     7     6    1
    20    11    10    1
    21    10    12    1
    22    10     8   am
    23     6     1    2
    24     3     8    1
    25     3     2    2
    26     8     9    2
    27     1     2    1
    28     1    26    1
    29    27    26    2
    30    26    28    2
    31    26    29    1
    32    30    29    1
    33    29    31    1
    34    37    31    2
    35    37    35    1
    36    31    32    1
    37    36    35    1
    38    35    34    2
    39    32    33    2
    40    34    33    1
