@<TRIPOS>MOLECULE
20076_out_ligand_01.pdbqt
 36 39 0 0 0
SMALL
GASTEIGER

@<TRIPOS>ATOM
      1  C         18.3830  -22.5030   -9.8310 C.2     1  UNL1        0.0810
      2  C         19.6750  -22.9830   -9.5530 C.2     1  UNL1        0.0420
      3  C         20.7610  -22.5560  -10.3230 C.2     1  UNL1        0.0330
      4  C         20.5550  -21.6580  -11.3780 C.2     1  UNL1        0.0170
      5  C         19.2710  -21.1760  -11.6470 C.2     1  UNL1        0.0090
      6  C         18.1660  -21.5890  -10.8830 C.2     1  UNL1       -0.0390
      7  C         16.8150  -21.0210  -11.2220 C.3     1  UNL1        0.0500
      8  C         22.1090  -23.1200  -10.0430 C.2     1  UNL1        0.2510
      9  O         22.2320  -24.0890   -9.3040 O.2     1  UNL1       -0.2680
     10  N         23.1630  -22.4950  -10.6640 N.am    1  UNL1       -0.3530
     11  H         23.0370  -21.5620  -11.0340 H       1  UNL1        0.1630
     12  C         24.5200  -22.9520  -10.4730 C.3     1  UNL1        0.1610
     13  C         25.4490  -22.2350  -11.4170 C.2     1  UNL1       -0.0400
     14  C         26.0160  -21.0030  -11.0750 C.2     1  UNL1        0.0090
     15  C         26.8450  -20.3350  -11.9760 C.2     1  UNL1        0.0010
     16  C         27.1200  -20.8940  -13.2260 C.2     1  UNL1        0.0090
     17  C         26.5720  -22.1310  -13.5890 C.2     1  UNL1       -0.0300
     18  C         25.7350  -22.7900  -12.6760 C.2     1  UNL1        0.0170
     19  C         26.8540  -22.7380  -14.9470 C.3     1  UNL1        0.3110
     20  N         25.8160  -22.6180  -15.9630 N.3     1  UNL1        0.0920
     21  C         24.9230  -23.7580  -16.1220 C.3     1  UNL1        0.2730
     22  C         24.1480  -23.4180  -17.3930 C.3     1  UNL1        0.0320
     23  C         24.9670  -22.3330  -18.0860 C.3     1  UNL1        0.0320
     24  C         26.2700  -22.2720  -17.3040 C.3     1  UNL1        0.2730
     25  S         17.0450  -23.0940   -8.8010 S.O2    1  UNL1        0.2460
     26  O         16.2590  -24.0250   -9.5800 O.2     1  UNL1       -0.2060
     27  O         16.4410  -21.9490   -8.1540 O.2     1  UNL1       -0.2060
     28  N         17.9250  -23.9170   -7.5910 N.pl3   1  UNL1       -0.1810
     29  H         18.8670  -24.0570   -7.9600 H       1  UNL1        0.1460
     30  C         17.9850  -23.2130   -6.3430 C.2     1  UNL1        0.0230
     31  C         17.4610  -23.7840   -5.1850 C.2     1  UNL1        0.0240
     32  C         17.5690  -23.1080   -3.9700 C.2     1  UNL1        0.0020
     33  C         18.2050  -21.8670   -3.9140 C.2     1  UNL1        0.0070
     34  C         18.7360  -21.2900   -5.0730 C.2     1  UNL1       -0.0600
     35  C         19.4620  -19.9770   -5.0030 C.3     1  UNL1        0.0480
     36  C         18.6420  -21.9830   -6.2860 C.2     1  UNL1        0.0310
@<TRIPOS>BOND
     1    23    22    1
     2    23    24    1
     3    22    21    1
     4    24    20    1
     5    21    20    1
     6    20    19    1
     7    19    17    1
     8    17    16    2
     9    17    18    1
    10    16    15    1
    11    18    13    2
    12    15    14    2
    13     5     4    2
    14     5     6    1
    15    13    14    1
    16    13    12    1
    17     4     3    1
    18     7     6    1
    19    11    10    1
    20     6     1    2
    21    10    12    1
    22    10     8   am
    23     3     8    1
    24     3     2    2
    25     8     9    2
    26     1     2    1
    27     1    25    1
    28    26    25    2
    29    25    27    2
    30    25    28    1
    31    29    28    1
    32    28    30    1
    33    30    36    2
    34    30    31    1
    35    36    34    1
    36    31    32    2
    37    34    35    1
    38    34    33    2
    39    32    33    1
