@<TRIPOS>MOLECULE
20072_out_ligand_01.pdbqt
 40 44 0 0 0
SMALL
GASTEIGER

@<TRIPOS>ATOM
      1  C         22.4290  -22.8510   -9.0180 C.2     1  UNL1        0.0320
      2  C         21.9660  -24.1360   -9.3230 C.2     1  UNL1        0.0170
      3  C         20.7630  -24.5970   -8.7770 C.2     1  UNL1        0.0090
      4  C         20.0160  -23.7860   -7.9100 C.2     1  UNL1       -0.0440
      5  C         20.4850  -22.4950   -7.6120 C.2     1  UNL1        0.0090
      6  C         21.6920  -22.0380   -8.1510 C.2     1  UNL1        0.0170
      7  C         23.6940  -22.3100   -9.5890 C.2     1  UNL1        0.2510
      8  O         23.8360  -21.1010   -9.7340 O.2     1  UNL1       -0.2680
      9  N         24.6330  -23.2440   -9.9700 N.am    1  UNL1       -0.3530
     10  H         24.3930  -24.2260   -9.9620 H       1  UNL1        0.1630
     11  C         25.8410  -22.8740  -10.6780 C.3     1  UNL1        0.1610
     12  C         25.5830  -22.9030  -12.1640 C.2     1  UNL1       -0.0400
     13  C         25.4290  -24.1180  -12.8430 C.2     1  UNL1        0.0090
     14  C         25.1140  -24.1340  -14.2020 C.2     1  UNL1        0.0010
     15  C         24.9300  -22.9350  -14.8900 C.2     1  UNL1        0.0090
     16  C         25.0720  -21.7060  -14.2310 C.2     1  UNL1       -0.0300
     17  C         25.4080  -21.7020  -12.8690 C.2     1  UNL1        0.0170
     18  C         24.8460  -20.4010  -14.9640 C.3     1  UNL1        0.3110
     19  N         26.0770  -19.8150  -15.5100 N.3     1  UNL1        0.0920
     20  C         26.3520  -18.5030  -14.9060 C.3     1  UNL1        0.2730
     21  C         27.0770  -17.7290  -15.9930 C.3     1  UNL1        0.0320
     22  C         26.3270  -18.1650  -17.2360 C.3     1  UNL1        0.0320
     23  C         26.0480  -19.6410  -16.9710 C.3     1  UNL1        0.2730
     24  C         18.7020  -24.2680   -7.3370 C.3     1  UNL1        0.1520
     25  N         17.6960  -23.1830   -7.1160 N.pl3   1  UNL1       -0.1680
     26  C         17.2560  -23.0830   -5.7440 C.2     1  UNL1        0.0250
     27  C         17.8250  -22.1760   -4.8440 C.2     1  UNL1        0.0240
     28  C         17.3210  -22.0770   -3.5470 C.2     1  UNL1        0.0020
     29  C         16.2400  -22.8680   -3.1530 C.2     1  UNL1        0.0000
     30  C         15.6590  -23.7600   -4.0560 C.2     1  UNL1        0.0020
     31  C         16.1630  -23.8620   -5.3520 C.2     1  UNL1        0.0240
     32  S         16.3920  -23.1430   -8.2400 S.O2    1  UNL1        0.2480
     33  O         16.0460  -24.5120   -8.5730 O.2     1  UNL1       -0.2050
     34  O         15.3820  -22.2190   -7.7590 O.2     1  UNL1       -0.2050
     35  C         17.1040  -22.3870   -9.6810 C.2     1  UNL1        0.0750
     36  C         18.1180  -23.0330  -10.3930 C.2     1  UNL1        0.0250
     37  C         18.6460  -22.4230  -11.5350 C.2     1  UNL1        0.0020
     38  C         18.1540  -21.1890  -11.9640 C.2     1  UNL1        0.0000
     39  C         17.1250  -20.5590  -11.2610 C.2     1  UNL1        0.0020
     40  C         16.5920  -21.1590  -10.1180 C.2     1  UNL1        0.0250
@<TRIPOS>BOND
     1    22    23    1
     2    22    21    1
     3    23    19    1
     4    21    20    1
     5    19    18    1
     6    19    20    1
     7    18    16    1
     8    15    16    2
     9    15    14    1
    10    16    17    1
    11    14    13    2
    12    17    12    2
    13    13    12    1
    14    12    11    1
    15    38    37    2
    16    38    39    1
    17    37    36    1
    18    39    40    2
    19    11     9    1
    20    36    35    2
    21    40    35    1
    22     9    10    1
    23     9     7   am
    24     8     7    2
    25    35    32    1
    26     7     1    1
    27     2     1    2
    28     2     3    1
    29     1     6    1
    30     3     4    2
    31    33    32    2
    32    32    34    2
    33    32    25    1
    34     6     5    2
    35     4     5    1
    36     4    24    1
    37    24    25    1
    38    25    26    1
    39    26    31    2
    40    26    27    1
    41    31    30    1
    42    27    28    2
    43    30    29    2
    44    28    29    1
