@<TRIPOS>MOLECULE
20074_out_ligand_01.pdbqt
 36 39 0 0 0
SMALL
GASTEIGER

@<TRIPOS>ATOM
      1  C         17.8100  -23.4790   -8.7050 C.2     1  UNL1        0.0860
      2  C         19.1720  -23.8010   -8.5700 C.2     1  UNL1        0.0420
      3  C         20.1130  -23.3100   -9.4780 C.2     1  UNL1        0.0330
      4  C         19.7000  -22.4850  -10.5240 C.2     1  UNL1        0.0170
      5  C         18.3470  -22.1540  -10.6540 C.2     1  UNL1        0.0090
      6  C         17.3800  -22.6390   -9.7490 C.2     1  UNL1       -0.0390
      7  C         15.9490  -22.2350   -9.9690 C.3     1  UNL1        0.0500
      8  C         21.5240  -23.7400   -9.3260 C.2     1  UNL1        0.2510
      9  O         21.7660  -24.8140   -8.7900 O.2     1  UNL1       -0.2680
     10  N         22.4800  -22.8650   -9.7880 N.am    1  UNL1       -0.3530
     11  H         22.2200  -21.9190  -10.0300 H       1  UNL1        0.1630
     12  C         23.8940  -23.1250   -9.6110 C.3     1  UNL1        0.1610
     13  C         24.6960  -22.8460  -10.8590 C.2     1  UNL1       -0.0400
     14  C         26.0820  -23.0430  -10.9000 C.2     1  UNL1        0.0090
     15  C         26.8010  -22.8150  -12.0740 C.2     1  UNL1        0.0010
     16  C         26.1390  -22.4100  -13.2330 C.2     1  UNL1        0.0090
     17  C         24.7500  -22.2320  -13.2300 C.2     1  UNL1       -0.0300
     18  C         24.0400  -22.4510  -12.0380 C.2     1  UNL1        0.0170
     19  C         24.0190  -21.8620  -14.5030 C.3     1  UNL1        0.3110
     20  N         24.8170  -22.0720  -15.7160 N.3     1  UNL1        0.0920
     21  C         24.3220  -23.1770  -16.5460 C.3     1  UNL1        0.2730
     22  C         24.7710  -22.8370  -17.9680 C.3     1  UNL1        0.0320
     23  C         25.3700  -21.4420  -17.8750 C.3     1  UNL1        0.0320
     24  C         24.8030  -20.8900  -16.5800 C.3     1  UNL1        0.2730
     25  S         16.7330  -24.1700   -7.4540 S.O2    1  UNL1        0.2630
     26  O         15.5580  -24.6560   -8.1490 O.2     1  UNL1       -0.2000
     27  O         17.4790  -25.0520   -6.5840 O.2     1  UNL1       -0.2000
     28  N         16.2350  -22.8180   -6.5790 N.pl3   1  UNL1       -0.2800
     29  H         15.6760  -22.1770   -7.1370 H       1  UNL1        0.1790
     30  C         17.0270  -22.2930   -5.5150 C.2     1  UNL1        0.0480
     31  C         18.1550  -21.5190   -5.8040 C.2     1  UNL1        0.0300
     32  C         18.9430  -20.9930   -4.7780 C.2     1  UNL1        0.0020
     33  C         18.6120  -21.2450   -3.4520 C.2     1  UNL1        0.0010
     34  C         17.5020  -22.0370   -3.1540 C.2     1  UNL1        0.0090
     35  C         16.7060  -22.5870   -4.1770 C.2     1  UNL1       -0.0350
     36  C         15.5240  -23.4310   -3.7850 C.3     1  UNL1        0.0500
@<TRIPOS>BOND
     1    22    23    1
     2    22    21    1
     3    23    24    1
     4    24    20    1
     5    21    20    1
     6    20    19    1
     7    19    17    1
     8    16    17    2
     9    16    15    1
    10    17    18    1
    11    15    14    2
    12    18    13    2
    13    14    13    1
    14    13    12    1
    15     5     4    2
    16     5     6    1
    17     4     3    1
    18    11    10    1
    19     7     6    1
    20    10    12    1
    21    10     8   am
    22     6     1    2
    23     3     8    1
    24     3     2    2
    25     8     9    2
    26     1     2    1
    27     1    25    1
    28    26    25    2
    29    25    27    2
    30    25    28    1
    31    29    28    1
    32    28    30    1
    33    31    30    2
    34    31    32    1
    35    30    35    1
    36    32    33    2
    37    35    36    1
    38    35    34    2
    39    33    34    1
