@<TRIPOS>MOLECULE
20070_out_ligand_01.pdbqt
 38 41 0 0 0
SMALL
GASTEIGER

@<TRIPOS>ATOM
      1  C         16.7770  -20.9490  -11.3630 C.3     1  UNL1        0.0500
      2  C         18.0420  -21.6300  -10.9230 C.2     1  UNL1       -0.0390
      3  C         19.2190  -21.3580  -11.6440 C.2     1  UNL1        0.0090
      4  C         20.4450  -21.9130  -11.2700 C.2     1  UNL1        0.0170
      5  C         20.5290  -22.7440  -10.1530 C.2     1  UNL1        0.0330
      6  C         19.3680  -23.0450   -9.4370 C.2     1  UNL1        0.0420
      7  C         18.1270  -22.4990   -9.8190 C.2     1  UNL1        0.0860
      8  C         21.8610  -23.2910   -9.7670 C.2     1  UNL1        0.2510
      9  O         21.9410  -24.4070   -9.2660 O.2     1  UNL1       -0.2680
     10  N         22.9500  -22.4920  -10.0390 N.am    1  UNL1       -0.3530
     11  H         22.8380  -21.7230  -10.6840 H       1  UNL1        0.1630
     12  C         24.3030  -22.9700   -9.8560 C.3     1  UNL1        0.1610
     13  C         25.0210  -23.0360  -11.1780 C.2     1  UNL1       -0.0410
     14  C         24.3390  -23.4060  -12.3440 C.2     1  UNL1        0.0090
     15  C         25.0140  -23.4940  -13.5640 C.2     1  UNL1        0.0090
     16  C         26.3840  -23.2070  -13.6500 C.2     1  UNL1       -0.0300
     17  C         27.0660  -22.8570  -12.4750 C.2     1  UNL1        0.0090
     18  C         26.3940  -22.7770  -11.2530 C.2     1  UNL1        0.0090
     19  C         27.1200  -23.2920  -14.9700 C.3     1  UNL1        0.3110
     20  N         26.6710  -22.4000  -16.0430 N.3     1  UNL1        0.0960
     21  C         25.5610  -22.9220  -16.8510 C.3     1  UNL1        0.2990
     22  C         24.9560  -21.8200  -17.7340 C.3     1  UNL1        0.1980
     23  O         24.3640  -20.7600  -16.9700 O.3     1  UNL1       -0.3880
     24  C         24.9810  -20.5800  -15.6840 C.3     1  UNL1        0.1980
     25  C         26.4610  -20.9970  -15.6590 C.3     1  UNL1        0.2990
     26  S         16.7360  -22.9330   -8.7760 S.O2    1  UNL1        0.2630
     27  O         16.2430  -21.6910   -8.2140 O.2     1  UNL1       -0.2000
     28  O         15.8410  -23.8150   -9.4880 O.2     1  UNL1       -0.2000
     29  N         17.4530  -23.7570   -7.4960 N.pl3   1  UNL1       -0.2800
     30  H         17.7030  -24.7190   -7.7070 H       1  UNL1        0.1790
     31  C         17.1600  -23.3980   -6.1510 C.2     1  UNL1        0.0490
     32  C         16.0470  -23.9900   -5.5450 C.2     1  UNL1        0.0310
     33  C         15.7180  -23.6930   -4.2260 C.2     1  UNL1        0.0030
     34  C         16.5040  -22.8010   -3.5050 C.2     1  UNL1        0.0070
     35  C         17.6240  -22.1910   -4.0940 C.2     1  UNL1       -0.0540
     36  C         18.4390  -21.2310   -3.2650 C.3     1  UNL1        0.0490
     37  C         17.9590  -22.4810   -5.4400 C.2     1  UNL1       -0.0290
     38  C         19.1650  -21.8170   -6.0530 C.3     1  UNL1        0.0510
@<TRIPOS>BOND
     1    22    23    1
     2    22    21    1
     3    23    24    1
     4    21    20    1
     5    20    25    1
     6    20    19    1
     7    24    25    1
     8    19    16    1
     9    16    15    2
    10    16    17    1
    11    15    14    1
    12    17    18    2
    13    14    13    2
    14     3     4    1
    15     3     2    2
    16     1     2    1
    17     4     5    2
    18    18    13    1
    19    13    12    1
    20     2     7    1
    21    11    10    1
    22     5     8    1
    23     5     6    1
    24    10    12    1
    25    10     8   am
    26     7     6    2
    27     7    26    1
    28     8     9    2
    29    28    26    2
    30    26    27    2
    31    26    29    1
    32    30    29    1
    33    29    31    1
    34    31    32    2
    35    31    37    1
    36    38    37    1
    37    32    33    1
    38    37    35    2
    39    33    34    2
    40    35    34    1
    41    35    36    1
