@<TRIPOS>MOLECULE
2007_out_ligand_01.pdbqt
 38 42 0 0 0
SMALL
GASTEIGER

@<TRIPOS>ATOM
      1  C         22.4730  -21.6870  -12.6950 C.2     1  UNL1        0.0320
      2  C         22.9590  -22.5330  -11.6930 C.2     1  UNL1        0.0190
      3  C         22.1310  -22.9260  -10.6360 C.2     1  UNL1        0.0300
      4  C         20.8050  -22.4940  -10.5770 C.2     1  UNL1        0.0340
      5  C         20.3120  -21.6770  -11.6040 C.2     1  UNL1        0.0300
      6  C         21.1400  -21.2680  -12.6560 C.2     1  UNL1        0.0190
      7  N         19.9080  -22.8320   -9.5430 N.am    1  UNL1       -0.3260
      8  C         20.0970  -22.6880   -8.1750 C.2     1  UNL1        0.2350
      9  O         21.1190  -22.2390   -7.6540 O.2     1  UNL1       -0.2720
     10  H         18.9890  -23.1320   -9.8460 H       1  UNL1        0.1690
     11  C         18.9180  -23.1620   -7.2870 C.3     1  UNL1        0.1440
     12  C         17.6320  -23.3720   -8.0850 C.2     1  UNL1       -0.0410
     13  C         16.8160  -24.4790   -7.7960 C.2     1  UNL1        0.0080
     14  C         15.6170  -24.6820   -8.4820 C.2     1  UNL1        0.0010
     15  C         15.2130  -23.7820   -9.4630 C.2     1  UNL1        0.0000
     16  C         16.0080  -22.6770   -9.7590 C.2     1  UNL1        0.0010
     17  C         17.2090  -22.4710   -9.0760 C.2     1  UNL1        0.0080
     18  C         18.7460  -22.3590   -5.9910 C.2     1  UNL1       -0.0410
     19  C         19.2560  -21.0590   -5.8260 C.2     1  UNL1        0.0080
     20  C         19.1200  -20.3890   -4.6070 C.2     1  UNL1        0.0010
     21  C         18.4800  -21.0070   -3.5350 C.2     1  UNL1        0.0000
     22  C         17.9700  -22.2940   -3.6810 C.2     1  UNL1        0.0010
     23  C         18.1020  -22.9670   -4.8960 C.2     1  UNL1        0.0080
     24  C         23.3990  -21.2680  -13.7800 C.2     1  UNL1        0.2510
     25  O         23.2250  -21.6650  -14.9270 O.2     1  UNL1       -0.2680
     26  N         24.4500  -20.4590  -13.4000 N.am    1  UNL1       -0.3540
     27  H         24.5860  -20.2240  -12.4260 H       1  UNL1        0.1620
     28  C         25.4730  -20.0330  -14.3450 C.3     1  UNL1        0.1590
     29  C         26.7980  -20.8340  -14.2660 C.3     1  UNL1        0.1720
     30  O         27.1200  -21.3960  -15.5560 O.3     1  UNL1       -0.3790
     31  C         26.3040  -22.5180  -15.8930 C.3     1  UNL1        0.1730
     32  C         26.5990  -23.6850  -14.9590 C.3     1  UNL1        0.0650
     33  C         26.5950  -23.2590  -13.5140 C.2     1  UNL1       -0.0470
     34  C         26.5270  -24.2260  -12.5020 C.2     1  UNL1        0.0080
     35  C         26.7630  -21.9020  -13.1800 C.2     1  UNL1       -0.0210
     36  C         26.6230  -23.8520  -11.1610 C.2     1  UNL1        0.0010
     37  C         26.8100  -22.5150  -10.8250 C.2     1  UNL1        0.0010
     38  C         26.8850  -21.5460  -11.8270 C.2     1  UNL1        0.0100
@<TRIPOS>BOND
     1    31    30    1
     2    31    32    1
     3    30    29    1
     4    32    33    1
     5    25    24    2
     6    28    29    1
     7    28    26    1
     8    29    35    1
     9    24    26   am
    10    24     1    1
    11    33    35    2
    12    33    34    1
    13    26    27    1
    14    35    38    1
    15     1     6    2
    16     1     2    1
    17     6     5    1
    18    34    36    2
    19    38    37    2
    20     2     3    2
    21     5     4    2
    22    36    37    1
    23     3     4    1
    24     4     7    1
    25    10     7    1
    26    16    15    2
    27    16    17    1
    28     7     8   am
    29    15    14    1
    30    17    12    2
    31    14    13    2
    32     8     9    2
    33     8    11    1
    34    12    13    1
    35    12    11    1
    36    11    18    1
    37    18    19    2
    38    18    23    1
    39    19    20    1
    40    23    22    2
    41    20    21    2
    42    22    21    1
