@<TRIPOS>MOLECULE
20081_out_ligand_01.pdbqt
 37 40 0 0 0
SMALL
GASTEIGER

@<TRIPOS>ATOM
      1  C         17.6850  -23.6120   -8.5390 C.2     1  UNL1        0.0810
      2  C         19.0530  -23.9270   -8.4710 C.2     1  UNL1        0.0420
      3  C         19.9390  -23.4040   -9.4170 C.2     1  UNL1        0.0330
      4  C         19.4610  -22.5520  -10.4140 C.2     1  UNL1        0.0170
      5  C         18.0990  -22.2490  -10.4890 C.2     1  UNL1        0.0090
      6  C         17.1880  -22.7730   -9.5570 C.2     1  UNL1       -0.0390
      7  C         15.7310  -22.4350   -9.7140 C.3     1  UNL1        0.0500
      8  C         21.3940  -23.7150   -9.3840 C.2     1  UNL1        0.2510
      9  O         21.7900  -24.7100   -8.7880 O.2     1  UNL1       -0.2680
     10  N         22.2180  -22.8120  -10.0180 N.am    1  UNL1       -0.3530
     11  H         21.8470  -21.9060  -10.2650 H       1  UNL1        0.1630
     12  C         23.6570  -22.8980   -9.8980 C.3     1  UNL1        0.1610
     13  C         24.3290  -22.1310  -11.0090 C.2     1  UNL1       -0.0400
     14  C         25.4060  -21.2770  -10.7420 C.2     1  UNL1        0.0090
     15  C         26.0390  -20.5940  -11.7810 C.2     1  UNL1        0.0010
     16  C         25.6070  -20.7650  -13.0950 C.2     1  UNL1        0.0090
     17  C         24.5350  -21.6200  -13.3890 C.2     1  UNL1       -0.0300
     18  C         23.9050  -22.3010  -12.3370 C.2     1  UNL1        0.0170
     19  C         24.0790  -21.8220  -14.8180 C.3     1  UNL1        0.3110
     20  N         25.1650  -21.6910  -15.7950 N.3     1  UNL1        0.0920
     21  C         24.9290  -20.6280  -16.7750 C.3     1  UNL1        0.2730
     22  C         25.9300  -20.9480  -17.8760 C.3     1  UNL1        0.0320
     23  C         26.2020  -22.4430  -17.7480 C.3     1  UNL1        0.0320
     24  C         25.3270  -22.9060  -16.5940 C.3     1  UNL1        0.2730
     25  S         16.6110  -24.3230   -7.2950 S.O2    1  UNL1        0.2460
     26  O         17.4570  -25.0060   -6.3370 O.2     1  UNL1       -0.2060
     27  O         15.5410  -25.0090   -7.9830 O.2     1  UNL1       -0.2060
     28  N         16.0380  -22.9120   -6.5290 N.pl3   1  UNL1       -0.1810
     29  H         15.8370  -22.2140   -7.2430 H       1  UNL1        0.1460
     30  C         16.8960  -22.4000   -5.4950 C.2     1  UNL1        0.0290
     31  C         16.6350  -22.6510   -4.1380 C.2     1  UNL1       -0.0400
     32  C         17.4960  -22.0990   -3.1760 C.2     1  UNL1        0.0090
     33  C         15.4720  -23.4850   -3.6790 C.3     1  UNL1        0.0500
     34  C         18.5880  -21.3130   -3.5550 C.2     1  UNL1        0.0070
     35  C         18.8490  -21.0710   -4.9050 C.2     1  UNL1       -0.0600
     36  C         19.9910  -20.1900   -5.3180 C.3     1  UNL1        0.0480
     37  C         17.9900  -21.6100   -5.8690 C.2     1  UNL1        0.0310
@<TRIPOS>BOND
     1    22    23    1
     2    22    21    1
     3    23    24    1
     4    21    20    1
     5    24    20    1
     6    20    19    1
     7    19    17    1
     8    17    16    2
     9    17    18    1
    10    16    15    1
    11    18    13    2
    12    15    14    2
    13    13    14    1
    14    13    12    1
    15     5     4    2
    16     5     6    1
    17     4     3    1
    18    11    10    1
    19    10    12    1
    20    10     8   am
    21     7     6    1
    22     6     1    2
    23     3     8    1
    24     3     2    2
    25     8     9    2
    26     1     2    1
    27     1    25    1
    28    27    25    2
    29    25    28    1
    30    25    26    2
    31    29    28    1
    32    28    30    1
    33    37    30    2
    34    37    35    1
    35    30    31    1
    36    36    35    1
    37    35    34    2
    38    31    33    1
    39    31    32    2
    40    34    32    1
