@<TRIPOS>MOLECULE
20088_out_ligand_01.pdbqt
 41 45 0 0 0
SMALL
GASTEIGER

@<TRIPOS>ATOM
      1  C         22.2780  -22.9390   -8.9830 C.2     1  UNL1        0.0320
      2  C         21.5340  -22.1160   -8.1320 C.2     1  UNL1        0.0170
      3  C         20.3370  -22.5750   -7.5780 C.2     1  UNL1        0.0090
      4  C         19.8560  -23.8570   -7.8830 C.2     1  UNL1       -0.0440
      5  C         20.6150  -24.6830   -8.7270 C.2     1  UNL1        0.0090
      6  C         21.8130  -24.2240   -9.2820 C.2     1  UNL1        0.0170
      7  C         23.5350  -22.3950   -9.5670 C.2     1  UNL1        0.2510
      8  O         23.6850  -21.1840   -9.6680 O.2     1  UNL1       -0.2680
      9  N         24.4850  -23.3210   -9.9410 N.am    1  UNL1       -0.3530
     10  H         24.3630  -24.2930   -9.6990 H       1  UNL1        0.1630
     11  C         25.7960  -22.9160  -10.3980 C.3     1  UNL1        0.1610
     12  C         26.0420  -23.1380  -11.8740 C.2     1  UNL1       -0.0400
     13  C         26.7680  -24.2230  -12.3830 C.2     1  UNL1        0.0090
     14  C         26.9360  -24.3860  -13.7590 C.2     1  UNL1        0.0010
     15  C         26.3840  -23.4650  -14.6470 C.2     1  UNL1        0.0090
     16  C         25.6660  -22.3610  -14.1710 C.2     1  UNL1       -0.0300
     17  C         25.4910  -22.2170  -12.7860 C.2     1  UNL1        0.0170
     18  C         25.0560  -21.3590  -15.1310 C.3     1  UNL1        0.3110
     19  N         26.0540  -20.6000  -15.9030 N.3     1  UNL1        0.0920
     20  C         25.4590  -20.0610  -17.1320 C.3     1  UNL1        0.2720
     21  C         26.3790  -19.0440  -17.8040 C.3     1  UNL1        0.0300
     22  C         26.6330  -17.8360  -16.9040 C.3     1  UNL1        0.0030
     23  C         26.3940  -18.1510  -15.4290 C.3     1  UNL1        0.0300
     24  C         26.7640  -19.5960  -15.0940 C.3     1  UNL1        0.2720
     25  C         18.5390  -24.3360   -7.3140 C.3     1  UNL1        0.1520
     26  N         17.5560  -23.2310   -7.1280 N.pl3   1  UNL1       -0.1680
     27  C         17.0980  -23.0570   -5.7720 C.2     1  UNL1        0.0250
     28  C         17.6990  -22.1440   -4.9000 C.2     1  UNL1        0.0240
     29  C         17.2220  -22.0140   -3.5950 C.2     1  UNL1        0.0020
     30  C         16.1520  -22.7980   -3.1600 C.2     1  UNL1        0.0000
     31  C         15.5600  -23.7150   -4.0280 C.2     1  UNL1        0.0020
     32  C         16.0360  -23.8480   -5.3330 C.2     1  UNL1        0.0240
     33  S         16.2750  -23.1760   -8.2700 S.O2    1  UNL1        0.2480
     34  O         15.9320  -24.5440   -8.6140 O.2     1  UNL1       -0.2050
     35  O         15.2610  -22.2490   -7.8110 O.2     1  UNL1       -0.2050
     36  C         17.0270  -22.4280   -9.6950 C.2     1  UNL1        0.0750
     37  C         16.5950  -21.1610  -10.1020 C.2     1  UNL1        0.0250
     38  C         17.1880  -20.5580  -11.2100 C.2     1  UNL1        0.0020
     39  C         18.1940  -21.2250  -11.9130 C.2     1  UNL1        0.0000
     40  C         18.6070  -22.4980  -11.5150 C.2     1  UNL1        0.0020
     41  C         18.0240  -23.1060  -10.4030 C.2     1  UNL1        0.0250
@<TRIPOS>BOND
     1    21    20    1
     2    21    22    1
     3    20    19    1
     4    22    23    1
     5    19    18    1
     6    19    24    1
     7    23    24    1
     8    18    16    1
     9    15    16    2
    10    15    14    1
    11    16    17    1
    12    14    13    2
    13    17    12    2
    14    13    12    1
    15    39    40    2
    16    39    38    1
    17    12    11    1
    18    40    41    1
    19    38    37    2
    20    41    36    2
    21    11     9    1
    22    37    36    1
    23     9    10    1
    24     9     7   am
    25    36    33    1
    26     8     7    2
    27     7     1    1
    28     6     1    2
    29     6     5    1
    30     1     2    1
    31     5     4    2
    32    34    33    2
    33    33    35    2
    34    33    26    1
    35     2     3    2
    36     4     3    1
    37     4    25    1
    38    25    26    1
    39    26    27    1
    40    27    32    2
    41    27    28    1
    42    32    31    1
    43    28    29    2
    44    31    30    2
    45    29    30    1
