@<TRIPOS>MOLECULE
20082_out_ligand_01.pdbqt
 35 38 0 0 0
SMALL
GASTEIGER

@<TRIPOS>ATOM
      1  C         20.5420  -22.0660   -7.2220 C.2     1  UNL1        0.0330
      2  C         20.4840  -21.0770   -6.2360 C.2     1  UNL1        0.0190
      3  C         19.3630  -20.9770   -5.4090 C.2     1  UNL1        0.0260
      4  C         18.2790  -21.8530   -5.5580 C.2     1  UNL1        0.0570
      5 CL         16.9580  -21.5980   -4.4800 Cl      1  UNL1       -0.0830
      6  C         18.3220  -22.8260   -6.5600 C.2     1  UNL1        0.1020
      7  C         19.4570  -22.9330   -7.3890 C.2     1  UNL1        0.0440
      8  C         21.7510  -22.1420   -8.0840 C.2     1  UNL1        0.2510
      9  O         22.7010  -21.4010   -7.8630 O.2     1  UNL1       -0.2680
     10  N         21.7250  -23.0880   -9.0840 N.am    1  UNL1       -0.3530
     11  H         21.0230  -23.8150   -9.0550 H       1  UNL1        0.1630
     12  C         22.8980  -23.3680   -9.8850 C.3     1  UNL1        0.1610
     13  C         22.8220  -22.6540  -11.2100 C.2     1  UNL1       -0.0400
     14  C         21.6970  -21.8920  -11.5500 C.2     1  UNL1        0.0090
     15  C         21.6280  -21.2520  -12.7880 C.2     1  UNL1        0.0010
     16  C         22.6770  -21.3740  -13.7000 C.2     1  UNL1        0.0090
     17  C         23.8080  -22.1380  -13.3850 C.2     1  UNL1       -0.0300
     18  C         23.8680  -22.7760  -12.1370 C.2     1  UNL1        0.0170
     19  C         24.9380  -22.2880  -14.3830 C.3     1  UNL1        0.3110
     20  N         24.4930  -22.2000  -15.7770 N.3     1  UNL1        0.0920
     21  C         25.2740  -21.2430  -16.5660 C.3     1  UNL1        0.2730
     22  C         24.9190  -21.6160  -17.9970 C.3     1  UNL1        0.0320
     23  C         24.5320  -23.0890  -17.9420 C.3     1  UNL1        0.0320
     24  C         24.6490  -23.4760  -16.4750 C.3     1  UNL1        0.2730
     25  S         17.0140  -23.9960   -6.8350 S.O2    1  UNL1        0.2640
     26  O         17.4260  -25.2330   -6.1990 O.2     1  UNL1       -0.2000
     27  O         15.7330  -23.4200   -6.5030 O.2     1  UNL1       -0.2000
     28  N         17.1280  -24.3000   -8.4850 N.pl3   1  UNL1       -0.2810
     29  H         16.6160  -25.1330   -8.7720 H       1  UNL1        0.1790
     30  C         17.1950  -23.2200   -9.4000 C.2     1  UNL1        0.0420
     31  C         16.1720  -22.2770   -9.4780 C.2     1  UNL1        0.0300
     32  C         16.2500  -21.2490  -10.4180 C.2     1  UNL1        0.0020
     33  C         17.3390  -21.1760  -11.2860 C.2     1  UNL1        0.0000
     34  C         18.3510  -22.1330  -11.2200 C.2     1  UNL1        0.0020
     35  C         18.2750  -23.1620  -10.2810 C.2     1  UNL1        0.0300
@<TRIPOS>BOND
     1    22    23    1
     2    22    21    1
     3    23    24    1
     4    21    20    1
     5    24    20    1
     6    20    19    1
     7    19    17    1
     8    16    17    2
     9    16    15    1
    10    17    18    1
    11    15    14    2
    12    18    13    2
    13    14    13    1
    14    33    34    2
    15    33    32    1
    16    34    35    1
    17    13    12    1
    18    32    31    2
    19    35    30    2
    20    12    10    1
    21    31    30    1
    22    30    28    1
    23    10    11    1
    24    10     8   am
    25    29    28    1
    26    28    25    1
    27     8     9    2
    28     8     1    1
    29     7     1    2
    30     7     6    1
    31     1     2    1
    32    25     6    1
    33    25    27    2
    34    25    26    2
    35     6     4    2
    36     2     3    2
    37     4     3    1
    38     4     5    1
