@<TRIPOS>MOLECULE
20086_out_ligand_01.pdbqt
 35 38 0 0 0
SMALL
GASTEIGER

@<TRIPOS>ATOM
      1  C         21.0910  -23.9500   -8.6660 C.2     1  UNL1        0.2510
      2  O         20.9890  -25.0550   -9.1840 O.2     1  UNL1       -0.2680
      3  N         22.1070  -23.0620   -8.9400 N.am    1  UNL1       -0.3530
      4  H         21.9830  -22.0960   -8.6760 H       1  UNL1        0.1630
      5  C         20.0570  -23.4820   -7.7020 C.2     1  UNL1        0.0320
      6  C         19.1220  -24.4090   -7.2260 C.2     1  UNL1        0.0190
      7  C         18.1250  -24.0070   -6.3320 C.2     1  UNL1        0.0250
      8  C         18.0760  -22.6820   -5.8920 C.2     1  UNL1        0.0250
      9  C         19.0100  -21.7560   -6.3600 C.2     1  UNL1        0.0250
     10  C         20.0060  -22.1550   -7.2570 C.2     1  UNL1        0.0190
     11  N         17.0370  -22.2060   -5.0140 N.pl3   1  UNL1       -0.1760
     12  C         17.3900  -22.2130   -3.5740 C.3     1  UNL1        0.1360
     13  S         15.5020  -22.8980   -5.3850 S.O2    1  UNL1        0.2470
     14  O         14.4890  -21.8870   -5.1550 O.2     1  UNL1       -0.2050
     15  O         15.4090  -24.2040   -4.7660 O.2     1  UNL1       -0.2050
     16  C         15.6190  -23.1710   -7.1380 C.2     1  UNL1        0.0750
     17  C         15.8620  -22.0980   -8.0020 C.2     1  UNL1        0.0250
     18  C         15.9280  -22.3280   -9.3760 C.2     1  UNL1        0.0020
     19  C         15.7440  -23.6180   -9.8790 C.2     1  UNL1        0.0000
     20  C         15.4900  -24.6820   -9.0120 C.2     1  UNL1        0.0020
     21  C         15.4230  -24.4630   -7.6370 C.2     1  UNL1        0.0250
     22  C         23.0740  -23.3230   -9.9820 C.3     1  UNL1        0.1610
     23  C         22.7430  -22.5340  -11.2220 C.2     1  UNL1       -0.0400
     24  C         21.4290  -22.1080  -11.4560 C.2     1  UNL1        0.0090
     25  C         21.1210  -21.3530  -12.5880 C.2     1  UNL1        0.0010
     26  C         22.1260  -21.0080  -13.4900 C.2     1  UNL1        0.0090
     27  C         23.4510  -21.4150  -13.2750 C.2     1  UNL1       -0.0300
     28  C         23.7500  -22.1730  -12.1330 C.2     1  UNL1        0.0170
     29  C         24.5460  -21.0070  -14.2390 C.3     1  UNL1        0.3110
     30  N         24.4050  -21.5950  -15.5780 N.3     1  UNL1        0.0920
     31  C         24.8590  -22.9850  -15.6420 C.3     1  UNL1        0.2720
     32  C         24.4340  -23.6190  -16.9730 C.3     1  UNL1        0.0300
     33  C         24.4880  -22.6460  -18.1530 C.3     1  UNL1        0.0030
     34  C         25.4580  -21.5070  -17.8690 C.3     1  UNL1        0.0300
     35  C         25.0810  -20.7570  -16.5840 C.3     1  UNL1        0.2720
@<TRIPOS>BOND
     1    33    34    1
     2    33    32    1
     3    34    35    1
     4    32    31    1
     5    35    30    1
     6    31    30    1
     7    30    29    1
     8    29    27    1
     9    26    27    2
    10    26    25    1
    11    27    28    1
    12    25    24    2
    13    28    23    2
    14    24    23    1
    15    23    22    1
    16    22     3    1
    17    19    18    2
    18    19    20    1
    19    18    17    1
    20     2     1    2
    21    20    21    2
    22     3     4    1
    23     3     1   am
    24     1     5    1
    25    17    16    2
    26     5    10    2
    27     5     6    1
    28    21    16    1
    29    10     9    1
    30     6     7    2
    31    16    13    1
    32     9     8    2
    33     7     8    1
    34     8    11    1
    35    13    14    2
    36    13    11    1
    37    13    15    2
    38    11    12    1
