@<TRIPOS>MOLECULE
20099_out_ligand_01.pdbqt
 37 40 0 0 0
SMALL
GASTEIGER

@<TRIPOS>ATOM
      1  C         17.8120  -23.5870   -8.6080 C.2     1  UNL1        0.1020
      2  C         19.1790  -23.8830   -8.4840 C.2     1  UNL1        0.0440
      3  C         20.0930  -23.3800   -9.4170 C.2     1  UNL1        0.0330
      4  C         19.6440  -22.5620  -10.4580 C.2     1  UNL1        0.0190
      5  C         18.2840  -22.2630  -10.5730 C.2     1  UNL1        0.0260
      6  C         17.3600  -22.7770   -9.6530 C.2     1  UNL1        0.0570
      7 CL         15.7100  -22.3200   -9.8820 Cl      1  UNL1       -0.0830
      8  C         21.5300  -23.7260   -9.2680 C.2     1  UNL1        0.2510
      9  O         21.8550  -24.7700   -8.7180 O.2     1  UNL1       -0.2680
     10  N         22.4180  -22.8260   -9.8180 N.am    1  UNL1       -0.3530
     11  H         22.0540  -22.1480  -10.4710 H       1  UNL1        0.1630
     12  C         23.8160  -23.1670   -9.9800 C.3     1  UNL1        0.1610
     13  C         24.4270  -22.3390  -11.0810 C.2     1  UNL1       -0.0400
     14  C         25.3050  -21.2880  -10.7830 C.2     1  UNL1        0.0090
     15  C         25.8160  -20.4860  -11.8020 C.2     1  UNL1        0.0010
     16  C         25.4500  -20.7210  -13.1280 C.2     1  UNL1        0.0090
     17  C         24.5780  -21.7700  -13.4530 C.2     1  UNL1       -0.0300
     18  C         24.0640  -22.5670  -12.4180 C.2     1  UNL1        0.0170
     19  C         24.1370  -22.0070  -14.8850 C.3     1  UNL1        0.3110
     20  N         24.7520  -23.1910  -15.5120 N.3     1  UNL1        0.0920
     21  C         26.2190  -23.1340  -15.4520 C.3     1  UNL1        0.2720
     22  C         26.8450  -22.1200  -16.4130 C.3     1  UNL1        0.0300
     23  C         26.3780  -22.3580  -17.8450 C.3     1  UNL1        0.0030
     24  C         24.8570  -22.4280  -17.9160 C.3     1  UNL1        0.0300
     25  C         24.2960  -23.4190  -16.8930 C.3     1  UNL1        0.2720
     26  S         16.6900  -24.2880   -7.4270 S.O2    1  UNL1        0.2640
     27  O         17.4460  -25.1620   -6.5520 O.2     1  UNL1       -0.2000
     28  O         15.5520  -24.8040   -8.1560 O.2     1  UNL1       -0.2000
     29  N         16.1530  -22.9640   -6.5310 N.pl3   1  UNL1       -0.2810
     30  H         15.5760  -22.3380   -7.0940 H       1  UNL1        0.1790
     31  C         16.9920  -22.3830   -5.5370 C.2     1  UNL1        0.0430
     32  C         16.7320  -22.6730   -4.1960 C.2     1  UNL1        0.0300
     33  C         17.5220  -22.1140   -3.1930 C.2     1  UNL1        0.0030
     34  C         18.5780  -21.2670   -3.5250 C.2     1  UNL1        0.0070
     35  C         18.8550  -20.9740   -4.8670 C.2     1  UNL1       -0.0600
     36  C         20.0180  -20.0990   -5.2300 C.3     1  UNL1        0.0480
     37  C         18.0670  -21.5570   -5.8690 C.2     1  UNL1        0.0370
@<TRIPOS>BOND
     1    24    23    1
     2    24    25    1
     3    23    22    1
     4    25    20    1
     5    22    21    1
     6    20    21    1
     7    20    19    1
     8    19    17    1
     9    17    16    2
    10    17    18    1
    11    16    15    1
    12    18    13    2
    13    15    14    2
    14    13    14    1
    15    13    12    1
    16     5     4    2
    17     5     6    1
    18    11    10    1
    19     4     3    1
    20    12    10    1
    21     7     6    1
    22    10     8   am
    23     6     1    2
    24     3     8    1
    25     3     2    2
    26     8     9    2
    27     1     2    1
    28     1    26    1
    29    28    26    2
    30    26    27    2
    31    26    29    1
    32    30    29    1
    33    29    31    1
    34    37    31    2
    35    37    35    1
    36    31    32    1
    37    36    35    1
    38    35    34    2
    39    32    33    2
    40    34    33    1
