@<TRIPOS>MOLECULE
20091_out_ligand_01.pdbqt
 37 40 0 0 0
SMALL
GASTEIGER

@<TRIPOS>ATOM
      1  C         17.6880  -23.5770   -8.5950 C.2     1  UNL1        0.0860
      2  C         19.0440  -23.9420   -8.5000 C.2     1  UNL1        0.0420
      3  C         19.9880  -23.4160   -9.3850 C.2     1  UNL1        0.0330
      4  C         19.5800  -22.5240  -10.3780 C.2     1  UNL1        0.0170
      5  C         18.2300  -22.1760  -10.4880 C.2     1  UNL1        0.0090
      6  C         17.2610  -22.6970   -9.6070 C.2     1  UNL1       -0.0390
      7  C         15.8330  -22.2730   -9.8000 C.3     1  UNL1        0.0500
      8  C         21.4090  -23.8040   -9.2000 C.2     1  UNL1        0.2510
      9  O         21.6750  -24.9120   -8.7450 O.2     1  UNL1       -0.2680
     10  N         22.3520  -22.8820   -9.6020 N.am    1  UNL1       -0.3530
     11  H         22.0710  -22.0660  -10.1260 H       1  UNL1        0.1630
     12  C         23.7640  -23.2090   -9.6280 C.3     1  UNL1        0.1610
     13  C         24.4850  -22.6220  -10.8200 C.2     1  UNL1       -0.0400
     14  C         24.9870  -21.3130  -10.8190 C.2     1  UNL1        0.0090
     15  C         25.6130  -20.7880  -11.9520 C.2     1  UNL1        0.0010
     16  C         25.7210  -21.5550  -13.1120 C.2     1  UNL1        0.0090
     17  C         25.2010  -22.8550  -13.1540 C.2     1  UNL1       -0.0300
     18  C         24.5910  -23.3790  -12.0010 C.2     1  UNL1        0.0170
     19  C         25.3000  -23.6820  -14.4200 C.3     1  UNL1        0.3110
     20  N         25.3130  -22.8750  -15.6520 N.3     1  UNL1        0.0920
     21  C         24.2540  -23.3270  -16.5730 C.3     1  UNL1        0.2720
     22  C         24.4870  -22.9320  -18.0400 C.3     1  UNL1        0.0300
     23  C         25.3150  -21.6610  -18.1530 C.3     1  UNL1        0.0030
     24  C         26.6510  -21.8130  -17.4220 C.3     1  UNL1        0.0300
     25  C         26.6210  -22.8740  -16.3130 C.3     1  UNL1        0.2720
     26  S         16.6050  -24.3080   -7.3710 S.O2    1  UNL1        0.2630
     27  O         15.4700  -24.9340   -8.0140 O.2     1  UNL1       -0.2000
     28  O         17.4540  -25.0590   -6.4690 O.2     1  UNL1       -0.2000
     29  N         16.0610  -22.9690   -6.4960 N.pl3   1  UNL1       -0.2810
     30  H         15.0670  -23.0300   -6.2830 H       1  UNL1        0.1790
     31  C         16.9120  -22.3710   -5.5250 C.2     1  UNL1        0.0430
     32  C         16.6420  -22.5810   -4.1720 C.2     1  UNL1        0.0300
     33  C         17.4830  -22.0340   -3.2040 C.2     1  UNL1        0.0030
     34  C         18.5850  -21.2660   -3.5880 C.2     1  UNL1        0.0070
     35  C         18.8520  -21.0330   -4.9420 C.2     1  UNL1       -0.0600
     36  C         20.0430  -20.2230   -5.3590 C.3     1  UNL1        0.0480
     37  C         18.0140  -21.6060   -5.9100 C.2     1  UNL1        0.0370
@<TRIPOS>BOND
     1    23    22    1
     2    23    24    1
     3    22    21    1
     4    24    25    1
     5    21    20    1
     6    25    20    1
     7    20    19    1
     8    19    17    1
     9    17    16    2
    10    17    18    1
    11    16    15    1
    12    18    13    2
    13    15    14    2
    14    13    14    1
    15    13    12    1
    16     5     4    2
    17     5     6    1
    18     4     3    1
    19    11    10    1
    20     7     6    1
    21    12    10    1
    22     6     1    2
    23    10     8   am
    24     3     8    1
    25     3     2    2
    26     8     9    2
    27     1     2    1
    28     1    26    1
    29    27    26    2
    30    26    29    1
    31    26    28    2
    32    29    30    1
    33    29    31    1
    34    37    31    2
    35    37    35    1
    36    31    32    1
    37    36    35    1
    38    35    34    2
    39    32    33    2
    40    34    33    1
