@<TRIPOS>MOLECULE
20090_out_ligand_01.pdbqt
 37 40 0 0 0
SMALL
GASTEIGER

@<TRIPOS>ATOM
      1  C         17.9220  -23.3730   -8.7600 C.2     1  UNL1        0.0860
      2  C         19.2970  -23.6730   -8.6950 C.2     1  UNL1        0.0420
      3  C         20.1760  -23.1500   -9.6460 C.2     1  UNL1        0.0330
      4  C         19.6810  -22.3440  -10.6720 C.2     1  UNL1        0.0170
      5  C         18.3190  -22.0340  -10.7290 C.2     1  UNL1        0.0090
      6  C         17.4180  -22.5360   -9.7740 C.2     1  UNL1       -0.0390
      7  C         15.9720  -22.1450   -9.8970 C.3     1  UNL1        0.0500
      8  C         21.6320  -23.4490   -9.6190 C.2     1  UNL1        0.2510
      9  O         22.0520  -24.3490   -8.9030 O.2     1  UNL1       -0.2680
     10  N         22.4230  -22.6850  -10.4480 N.am    1  UNL1       -0.3530
     11  H         21.9970  -22.0720  -11.1280 H       1  UNL1        0.1630
     12  C         23.8390  -22.9480  -10.5970 C.3     1  UNL1        0.1610
     13  C         24.5910  -21.9060  -11.3910 C.2     1  UNL1       -0.0400
     14  C         25.5750  -21.0750  -10.8380 C.2     1  UNL1        0.0090
     15  C         26.2600  -20.1520  -11.6320 C.2     1  UNL1        0.0010
     16  C         25.9760  -20.0500  -12.9930 C.2     1  UNL1        0.0090
     17  C         25.0060  -20.8740  -13.5770 C.2     1  UNL1       -0.0300
     18  C         24.3220  -21.7950  -12.7670 C.2     1  UNL1        0.0170
     19  C         24.6810  -20.7580  -15.0510 C.3     1  UNL1        0.3110
     20  N         25.6460  -21.4410  -15.9320 N.3     1  UNL1        0.0920
     21  C         25.0100  -22.2860  -16.9490 C.3     1  UNL1        0.2720
     22  C         24.4330  -23.5930  -16.3990 C.3     1  UNL1        0.0300
     23  C         25.4000  -24.3200  -15.4630 C.3     1  UNL1        0.0030
     24  C         26.7740  -23.6630  -15.4480 C.3     1  UNL1        0.0300
     25  C         26.6570  -22.1670  -15.1410 C.3     1  UNL1        0.2720
     26  S         16.9060  -24.0960   -7.4770 S.O2    1  UNL1        0.2630
     27  O         17.7080  -24.8900   -6.5760 O.2     1  UNL1       -0.2000
     28  O         15.7620  -24.6870   -8.1450 O.2     1  UNL1       -0.2000
     29  N         16.3080  -22.7380   -6.6690 N.pl3   1  UNL1       -0.2800
     30  H         15.2910  -22.7580   -6.6150 H       1  UNL1        0.1790
     31  C         17.0170  -22.2560   -5.5320 C.2     1  UNL1        0.0480
     32  C         18.1520  -21.4700   -5.7510 C.2     1  UNL1        0.0300
     33  C         18.9090  -21.0120   -4.6740 C.2     1  UNL1        0.0020
     34  C         18.5340  -21.3430   -3.3750 C.2     1  UNL1        0.0010
     35  C         17.4000  -22.1270   -3.1540 C.2     1  UNL1        0.0090
     36  C         16.6190  -22.5840   -4.2270 C.2     1  UNL1       -0.0350
     37  C         15.4250  -23.4500   -3.9390 C.3     1  UNL1        0.0500
@<TRIPOS>BOND
     1    21    22    1
     2    21    20    1
     3    22    23    1
     4    20    25    1
     5    20    19    1
     6    23    24    1
     7    24    25    1
     8    19    17    1
     9    17    16    2
    10    17    18    1
    11    16    15    1
    12    18    13    2
    13    15    14    2
    14    13    14    1
    15    13    12    1
    16    11    10    1
    17     5     4    2
    18     5     6    1
    19     4     3    1
    20    12    10    1
    21    10     8   am
    22     7     6    1
    23     6     1    2
    24     3     8    1
    25     3     2    2
    26     8     9    2
    27     1     2    1
    28     1    26    1
    29    28    26    2
    30    26    29    1
    31    26    27    2
    32    29    30    1
    33    29    31    1
    34    32    31    2
    35    32    33    1
    36    31    36    1
    37    33    34    2
    38    36    37    1
    39    36    35    2
    40    34    35    1
