@<TRIPOS>MOLECULE
20096_out_ligand_01.pdbqt
 38 41 0 0 0
SMALL
GASTEIGER

@<TRIPOS>ATOM
      1  C         17.6110  -23.4750   -8.6880 C.2     1  UNL1        0.0860
      2  C         19.0120  -23.5520   -8.6080 C.2     1  UNL1        0.0420
      3  C         19.8120  -22.9110   -9.5580 C.2     1  UNL1        0.0330
      4  C         19.2080  -22.1930  -10.5940 C.2     1  UNL1        0.0170
      5  C         17.8150  -22.1040  -10.6660 C.2     1  UNL1        0.0090
      6  C         16.9930  -22.7450   -9.7210 C.2     1  UNL1       -0.0390
      7  C         15.5050  -22.5870   -9.8590 C.3     1  UNL1        0.0500
      8  C         21.2910  -23.0380   -9.4430 C.2     1  UNL1        0.2510
      9  O         21.7850  -24.0550   -8.9710 O.2     1  UNL1       -0.2680
     10  N         22.0260  -21.9490   -9.8630 N.am    1  UNL1       -0.3530
     11  H         21.5480  -21.0700   -9.9910 H       1  UNL1        0.1630
     12  C         23.4510  -21.8770   -9.6280 C.3     1  UNL1        0.1610
     13  C         24.2110  -22.3200  -10.8500 C.2     1  UNL1       -0.0400
     14  C         25.3650  -23.1000  -10.7210 C.2     1  UNL1        0.0090
     15  C         26.0890  -23.4840  -11.8500 C.2     1  UNL1        0.0010
     16  C         25.6700  -23.0830  -13.1190 C.2     1  UNL1        0.0090
     17  C         24.5230  -22.2920  -13.2770 C.2     1  UNL1       -0.0400
     18  C         23.8050  -21.9120  -12.1320 C.2     1  UNL1        0.0170
     19  C         24.0720  -21.8340  -14.6490 C.3     1  UNL1        0.1550
     20  N         25.1140  -21.3280  -15.5460 N.3     1  UNL1       -0.4080
     21  C         25.5580  -19.9640  -15.2630 C.3     1  UNL1        0.1170
     22  C         26.6310  -19.5260  -16.2570 C.3     1  UNL1        0.0190
     23  C         26.1160  -19.5410  -17.6970 C.3     1  UNL1        0.0030
     24  C         24.8750  -20.4170  -17.8660 C.3     1  UNL1        0.0190
     25  C         24.9270  -21.6460  -16.9610 C.3     1  UNL1        0.1170
     26  S         16.6790  -24.3200   -7.4130 S.O2    1  UNL1        0.2630
     27  O         17.6070  -25.0550   -6.5810 O.2     1  UNL1       -0.2000
     28  O         15.5710  -25.0060   -8.0430 O.2     1  UNL1       -0.2000
     29  N         16.0890  -23.0570   -6.4630 N.pl3   1  UNL1       -0.2800
     30  H         15.0870  -23.1230   -6.3040 H       1  UNL1        0.1790
     31  C         16.9110  -22.4540   -5.4670 C.2     1  UNL1        0.0490
     32  C         16.6740  -22.7030   -4.1050 C.2     1  UNL1       -0.0350
     33  C         17.5310  -22.1280   -3.1540 C.2     1  UNL1        0.0090
     34  C         15.5630  -23.5940   -3.6260 C.3     1  UNL1        0.0500
     35  C         18.5890  -21.3050   -3.5440 C.2     1  UNL1        0.0070
     36  C         18.8160  -21.0450   -4.8950 C.2     1  UNL1       -0.0600
     37  C         19.9240  -20.1260   -5.3240 C.3     1  UNL1        0.0480
     38  C         17.9580  -21.6080   -5.8490 C.2     1  UNL1        0.0370
@<TRIPOS>BOND
     1    24    23    1
     2    24    25    1
     3    23    22    1
     4    25    20    1
     5    22    21    1
     6    20    21    1
     7    20    19    1
     8    19    17    1
     9    17    16    2
    10    17    18    1
    11    16    15    1
    12    18    13    2
    13    15    14    2
    14    13    14    1
    15    13    12    1
    16     5     4    2
    17     5     6    1
    18     4     3    1
    19    11    10    1
    20    10    12    1
    21    10     8   am
    22     7     6    1
    23     6     1    2
    24     3     8    1
    25     3     2    2
    26     8     9    2
    27     1     2    1
    28     1    26    1
    29    28    26    2
    30    26    27    2
    31    26    29    1
    32    29    30    1
    33    29    31    1
    34    38    31    2
    35    38    36    1
    36    31    32    1
    37    37    36    1
    38    36    35    2
    39    32    34    1
    40    32    33    2
    41    35    33    1
