@<TRIPOS>MOLECULE
2009_out_ligand_01.pdbqt
 32 35 0 0 0
SMALL
GASTEIGER

@<TRIPOS>ATOM
      1  C         21.4260  -22.4470  -10.0370 C.2     1  UNL1        0.0320
      2  C         20.2110  -22.5450  -10.7220 C.2     1  UNL1        0.0190
      3  C         19.0800  -23.0710  -10.0820 C.2     1  UNL1        0.0310
      4  C         19.1400  -23.4710   -8.7460 C.2     1  UNL1        0.0420
      5  C         20.3590  -23.3720   -8.0660 C.2     1  UNL1        0.0310
      6  C         21.4920  -22.8530   -8.7010 C.2     1  UNL1        0.0190
      7  N         18.0630  -24.0790   -8.0400 N.pl3   1  UNL1       -0.2810
      8  H         18.2670  -24.7330   -7.2860 H       1  UNL1        0.1790
      9  S         16.5050  -23.4440   -7.9170 S.O2    1  UNL1        0.2650
     10  O         16.6420  -22.0710   -8.3640 O.2     1  UNL1       -0.2000
     11  O         15.6190  -24.3820   -8.5710 O.2     1  UNL1       -0.2000
     12  C         16.1940  -23.3840   -6.1740 C.2     1  UNL1        0.1090
     13  C         15.1300  -24.1290   -5.6370 C.2     1  UNL1        0.0280
     14  C         14.8630  -24.0740   -4.2750 C.2     1  UNL1        0.0030
     15  C         15.6620  -23.2850   -3.4560 C.2     1  UNL1        0.0140
     16  C         16.7380  -22.5560   -3.9920 C.2     1  UNL1       -0.0060
     17  C         17.5500  -21.7780   -3.1560 C.2     1  UNL1        0.0150
     18  C         17.0300  -22.5990   -5.3760 C.2     1  UNL1        0.0900
     19  C         18.6210  -21.0720   -3.6850 C.2     1  UNL1        0.0200
     20  C         18.8450  -21.1710   -5.0400 C.2     1  UNL1        0.1170
     21  N         18.0810  -21.9120   -5.8710 N.2     1  UNL1       -0.2590
     22  C         22.6580  -21.8950  -10.6740 C.2     1  UNL1        0.2560
     23  N         22.8740  -22.2980  -11.9800 N.am    1  UNL1       -0.3230
     24  H         22.2510  -22.9990  -12.3560 H       1  UNL1        0.1690
     25  O         23.3840  -21.1770   -9.9970 O.2     1  UNL1       -0.2670
     26  C         23.9260  -21.9050  -12.8350 C.2     1  UNL1        0.0350
     27  C         23.5920  -21.1100  -13.9370 C.2     1  UNL1        0.0300
     28  C         24.5760  -20.6730  -14.8300 C.2     1  UNL1        0.0090
     29  C         25.9150  -21.0130  -14.6280 C.2     1  UNL1       -0.0620
     30  C         26.9700  -20.5760  -15.5990 C.3     1  UNL1        0.0480
     31  C         26.2480  -21.8170  -13.5330 C.2     1  UNL1        0.0090
     32  C         25.2620  -22.2540  -12.6400 C.2     1  UNL1        0.0300
@<TRIPOS>BOND
     1    30    29    1
     2    28    29    2
     3    28    27    1
     4    29    31    1
     5    27    26    2
     6    31    32    2
     7    26    32    1
     8    26    23    1
     9    24    23    1
    10    23    22   am
    11     2     3    1
    12     2     1    2
    13    22     1    1
    14    22    25    2
    15     3     4    2
    16     1     6    1
    17     4     5    1
    18     4     7    1
    19     6     5    2
    20    11     9    2
    21    10     9    2
    22     7     9    1
    23     7     8    1
    24     9    12    1
    25    12    13    2
    26    12    18    1
    27    21    18    1
    28    21    20    2
    29    13    14    1
    30    18    16    2
    31    20    19    1
    32    14    15    2
    33    16    15    1
    34    16    17    1
    35    19    17    2
