@<TRIPOS>MOLECULE
20109_out_ligand_01.pdbqt
 37 40 0 0 0
SMALL
GASTEIGER

@<TRIPOS>ATOM
      1  C         18.3620  -22.7220   -9.6680 C.2     1  UNL1        0.1020
      2  C         19.6490  -23.2160   -9.3790 C.2     1  UNL1        0.0440
      3  C         20.7660  -22.7330  -10.0670 C.2     1  UNL1        0.0330
      4  C         20.5930  -21.7720  -11.0650 C.2     1  UNL1        0.0190
      5  C         19.3160  -21.2780  -11.3490 C.2     1  UNL1        0.0260
      6  C         18.1920  -21.7420  -10.6490 C.2     1  UNL1        0.0570
      7 CL         16.6820  -21.0590  -11.1220 Cl      1  UNL1       -0.0830
      8  C         22.1420  -23.2290   -9.7860 C.2     1  UNL1        0.2510
      9  O         22.2970  -24.2450   -9.1190 O.2     1  UNL1       -0.2680
     10  N         23.1740  -22.5050  -10.3400 N.am    1  UNL1       -0.3530
     11  H         22.9700  -21.8280  -11.0630 H       1  UNL1        0.1630
     12  C         24.5420  -22.9680  -10.2710 C.3     1  UNL1        0.1610
     13  C         25.4060  -22.2260  -11.2570 C.2     1  UNL1       -0.0400
     14  C         25.9280  -20.9640  -10.9440 C.2     1  UNL1        0.0090
     15  C         26.7060  -20.2740  -11.8730 C.2     1  UNL1        0.0010
     16  C         26.9670  -20.8350  -13.1230 C.2     1  UNL1        0.0090
     17  C         26.4520  -22.0940  -13.4620 C.2     1  UNL1       -0.0300
     18  C         25.6660  -22.7750  -12.5220 C.2     1  UNL1        0.0170
     19  C         26.7280  -22.6980  -14.8230 C.3     1  UNL1        0.3110
     20  N         25.6790  -22.5840  -15.8340 N.3     1  UNL1        0.0920
     21  C         25.0010  -23.8230  -16.1880 C.3     1  UNL1        0.2730
     22  C         24.1230  -23.3880  -17.3530 C.3     1  UNL1        0.0320
     23  C         24.8330  -22.1810  -17.9610 C.3     1  UNL1        0.0320
     24  C         26.0670  -21.9660  -17.0940 C.3     1  UNL1        0.2730
     25  S         17.0270  -23.3650   -8.6910 S.O2    1  UNL1        0.2650
     26  O         15.9260  -23.6000   -9.6080 O.2     1  UNL1       -0.2000
     27  O         17.4780  -24.4400   -7.8410 O.2     1  UNL1       -0.2000
     28  N         16.5430  -22.0340   -7.7720 N.pl3   1  UNL1       -0.2800
     29  H         15.8020  -21.5080   -8.2340 H       1  UNL1        0.1790
     30  C         16.4660  -22.1610   -6.3570 C.2     1  UNL1        0.0490
     31  C         15.2280  -22.5350   -5.8240 C.2     1  UNL1        0.0310
     32  C         15.0650  -22.6530   -4.4490 C.2     1  UNL1        0.0030
     33  C         16.1380  -22.3910   -3.6020 C.2     1  UNL1        0.0070
     34  C         17.3890  -22.0160   -4.1190 C.2     1  UNL1       -0.0540
     35  C         18.5140  -21.7430   -3.1550 C.3     1  UNL1        0.0490
     36  C         17.5710  -21.9240   -5.5200 C.2     1  UNL1       -0.0290
     37  C         18.9140  -21.5260   -6.0760 C.3     1  UNL1        0.0510
@<TRIPOS>BOND
     1    23    22    1
     2    23    24    1
     3    22    21    1
     4    24    20    1
     5    21    20    1
     6    20    19    1
     7    19    17    1
     8    17    16    2
     9    17    18    1
    10    16    15    1
    11    18    13    2
    12    15    14    2
    13     5     4    2
    14     5     6    1
    15    13    14    1
    16    13    12    1
    17     7     6    1
    18     4     3    1
    19    11    10    1
    20     6     1    2
    21    10    12    1
    22    10     8   am
    23     3     8    1
    24     3     2    2
    25     8     9    2
    26     1     2    1
    27     1    25    1
    28    26    25    2
    29    25    27    2
    30    25    28    1
    31    29    28    1
    32    28    30    1
    33    30    31    2
    34    30    36    1
    35    37    36    1
    36    31    32    1
    37    36    34    2
    38    32    33    2
    39    34    33    1
    40    34    35    1
