@<TRIPOS>MOLECULE
20118_out_ligand_01.pdbqt
 36 39 0 0 0
SMALL
GASTEIGER

@<TRIPOS>ATOM
      1  C         18.0090  -22.5190   -4.1770 C.2     1  UNL1        0.0260
      2  C         18.0590  -21.2000   -3.7210 C.2     1  UNL1        0.0240
      3  C         18.7970  -20.2410   -4.4190 C.2     1  UNL1        0.0030
      4  C         19.4660  -20.5930   -5.5930 C.2     1  UNL1        0.0170
      5  C         19.3900  -21.9100   -6.0670 C.2     1  UNL1        0.0330
      6  C         18.6670  -22.8740   -5.3560 C.2     1  UNL1        0.0410
      7  C         20.0570  -22.3330   -7.3230 C.2     1  UNL1        0.2510
      8  O         21.2440  -22.0830   -7.4880 O.2     1  UNL1       -0.2680
      9  N         19.2740  -23.0370   -8.2070 N.am    1  UNL1       -0.3530
     10  H         18.3250  -23.2850   -7.9570 H       1  UNL1        0.1630
     11  C         19.8400  -23.6950   -9.3670 C.3     1  UNL1        0.1610
     12  C         20.2320  -22.7120  -10.4460 C.2     1  UNL1       -0.0400
     13  C         19.3310  -21.7610  -10.9480 C.2     1  UNL1        0.0090
     14  C         19.7160  -20.8770  -11.9570 C.2     1  UNL1        0.0010
     15  C         20.9980  -20.9520  -12.5020 C.2     1  UNL1        0.0090
     16  C         21.9090  -21.9100  -12.0420 C.2     1  UNL1       -0.0300
     17  C         21.5110  -22.7920  -11.0220 C.2     1  UNL1        0.0170
     18  C         23.2780  -22.0350  -12.6830 C.3     1  UNL1        0.3110
     19  N         24.1540  -23.0340  -12.0460 N.3     1  UNL1        0.0920
     20  C         25.0330  -22.4170  -11.0350 C.3     1  UNL1        0.2720
     21  C         26.2300  -23.3060  -10.6950 C.3     1  UNL1        0.0300
     22  C         27.1150  -23.5480  -11.9180 C.3     1  UNL1        0.0030
     23  C         26.3420  -23.4080  -13.2280 C.3     1  UNL1        0.0300
     24  C         24.8830  -23.8250  -13.0520 C.3     1  UNL1        0.2720
     25  N         17.1890  -23.4600   -3.4490 N.pl3   1  UNL1       -0.1760
     26  C         17.7790  -24.8160   -3.3200 C.3     1  UNL1        0.1360
     27  S         15.5500  -23.4370   -3.9870 S.O2    1  UNL1        0.2470
     28  O         14.9310  -24.7110   -3.6790 O.2     1  UNL1       -0.2050
     29  O         14.9490  -22.1930   -3.5460 O.2     1  UNL1       -0.2050
     30  C         15.7260  -23.3620   -5.7550 C.2     1  UNL1        0.0750
     31  C         15.5990  -22.1410   -6.4220 C.2     1  UNL1        0.0250
     32  C         15.7040  -22.1070   -7.8140 C.2     1  UNL1        0.0080
     33  C         15.9180  -23.2870   -8.5420 C.2     1  UNL1       -0.0620
     34  C         16.0410  -23.2420  -10.0360 C.3     1  UNL1        0.0480
     35  C         16.0510  -24.5040   -7.8550 C.2     1  UNL1        0.0080
     36  C         15.9450  -24.5460   -6.4640 C.2     1  UNL1        0.0250
@<TRIPOS>BOND
     1    23    24    1
     2    23    22    1
     3    24    19    1
     4    18    19    1
     5    18    16    1
     6    15    16    2
     7    15    14    1
     8    19    20    1
     9    16    17    1
    10    14    13    2
    11    22    21    1
    12    20    21    1
    13    17    12    2
    14    13    12    1
    15    12    11    1
    16    34    33    1
    17    11     9    1
    18    33    35    2
    19    33    32    1
    20     9    10    1
    21     9     7   am
    22    35    36    1
    23    32    31    2
    24     8     7    2
    25     7     5    1
    26    36    30    2
    27    31    30    1
    28     5     4    2
    29     5     6    1
    30    30    27    1
    31     4     3    1
    32     6     1    2
    33     3     2    2
    34     1     2    1
    35     1    25    1
    36    27    28    2
    37    27    29    2
    38    27    25    1
    39    25    26    1
