@<TRIPOS>MOLECULE
20117_out_ligand_01.pdbqt
 35 39 0 0 0
SMALL
GASTEIGER

@<TRIPOS>ATOM
      1  O         24.4610  -23.5510  -12.3310 O.2     1  UNL1       -0.2680
      2  C         24.1230  -22.9780  -11.3010 C.2     1  UNL1        0.2510
      3  N         24.9920  -22.3130  -10.4660 N.am    1  UNL1       -0.3530
      4  H         24.6330  -21.7280   -9.7260 H       1  UNL1        0.1630
      5  C         22.6880  -22.9390  -10.9160 C.2     1  UNL1        0.0320
      6  C         21.7530  -22.1710  -11.6170 C.2     1  UNL1        0.0170
      7  C         20.4170  -22.1480  -11.2030 C.2     1  UNL1        0.0100
      8  C         20.0010  -22.8860  -10.0840 C.2     1  UNL1       -0.0300
      9  C         20.9480  -23.6560   -9.3910 C.2     1  UNL1        0.0100
     10  C         22.2830  -23.6740   -9.7970 C.2     1  UNL1        0.0170
     11  C         18.5580  -22.8520   -9.6200 C.3     1  UNL1        0.3110
     12  N         18.3090  -23.1140   -8.1990 N.3     1  UNL1        0.0970
     13  C         17.0340  -23.7810   -7.9220 C.3     1  UNL1        0.2770
     14  C         17.0360  -24.3460   -6.4930 C.3     1  UNL1        0.0690
     15  C         17.5060  -23.3450   -5.4680 C.2     1  UNL1       -0.0490
     16  C         17.2780  -23.5700   -4.1040 C.2     1  UNL1        0.0070
     17  C         18.2350  -22.2130   -5.8770 C.2     1  UNL1       -0.0240
     18  C         17.7470  -22.6650   -3.1530 C.2     1  UNL1        0.0010
     19  C         18.4520  -21.5320   -3.5550 C.2     1  UNL1        0.0010
     20  C         18.6920  -21.3040   -4.9100 C.2     1  UNL1        0.0090
     21  C         18.4570  -21.9230   -7.3490 C.3     1  UNL1        0.3110
     22  C         26.3990  -22.1800  -10.7890 C.3     1  UNL1        0.1610
     23  C         26.6620  -21.0770  -11.7850 C.2     1  UNL1       -0.0400
     24  C         26.7320  -19.7340  -11.3860 C.2     1  UNL1        0.0090
     25  C         26.9290  -18.7220  -12.3260 C.2     1  UNL1        0.0010
     26  C         27.0330  -19.0380  -13.6800 C.2     1  UNL1        0.0090
     27  C         26.9430  -20.3680  -14.1110 C.2     1  UNL1       -0.0300
     28  C         26.7550  -21.3790  -13.1540 C.2     1  UNL1        0.0170
     29  C         26.9870  -20.7010  -15.5900 C.3     1  UNL1        0.3110
     30  N         25.7270  -20.4060  -16.2930 N.3     1  UNL1        0.0920
     31  C         25.7720  -20.7270  -17.7290 C.3     1  UNL1        0.2720
     32  C         25.7360  -22.2250  -18.0390 C.3     1  UNL1        0.0300
     33  C         24.5510  -22.9060  -17.3610 C.3     1  UNL1        0.0030
     34  C         24.5080  -22.5670  -15.8740 C.3     1  UNL1        0.0300
     35  C         24.5760  -21.0560  -15.6500 C.3     1  UNL1        0.2720
@<TRIPOS>BOND
     1    32    31    1
     2    32    33    1
     3    31    30    1
     4    33    34    1
     5    30    35    1
     6    30    29    1
     7    34    35    1
     8    29    27    1
     9    27    26    2
    10    27    28    1
    11    26    25    1
    12    28    23    2
    13     1     2    2
    14    25    24    2
    15    23    24    1
    16    23    22    1
    17     6     7    1
    18     6     5    2
    19     2     5    1
    20     2     3   am
    21     7     8    2
    22     5    10    1
    23    22     3    1
    24     3     4    1
    25     8    11    1
    26     8     9    1
    27    10     9    2
    28    11    12    1
    29    12    13    1
    30    12    21    1
    31    13    14    1
    32    21    17    1
    33    14    15    1
    34    17    15    2
    35    17    20    1
    36    15    16    1
    37    20    19    2
    38    16    18    2
    39    19    18    1
