@<TRIPOS>MOLECULE
20111_out_ligand_01.pdbqt
 37 40 0 0 0
SMALL
GASTEIGER

@<TRIPOS>ATOM
      1  C         17.7070  -23.6230   -8.5940 C.2     1  UNL1        0.1020
      2  C         19.0870  -23.8780   -8.5320 C.2     1  UNL1        0.0440
      3  C         19.9530  -23.3290   -9.4870 C.2     1  UNL1        0.0330
      4  C         19.4270  -22.5460  -10.5220 C.2     1  UNL1        0.0190
      5  C         18.0530  -22.2970  -10.5810 C.2     1  UNL1        0.0260
      6  C         17.1860  -22.8310   -9.6200 C.2     1  UNL1        0.0570
      7 CL         15.5180  -22.4140   -9.7810 Cl      1  UNL1       -0.0830
      8  C         21.4080  -23.6350   -9.3890 C.2     1  UNL1        0.2510
      9  O         21.7740  -24.6790   -8.8640 O.2     1  UNL1       -0.2680
     10  N         22.2680  -22.6900   -9.8980 N.am    1  UNL1       -0.3530
     11  H         21.9240  -21.7870  -10.1910 H       1  UNL1        0.1630
     12  C         23.7050  -22.8460   -9.8410 C.3     1  UNL1        0.1610
     13  C         24.3540  -22.1040  -10.9770 C.2     1  UNL1       -0.0400
     14  C         25.4890  -21.3170  -10.7490 C.2     1  UNL1        0.0090
     15  C         26.0820  -20.6150  -11.7980 C.2     1  UNL1        0.0010
     16  C         25.5420  -20.6850  -13.0830 C.2     1  UNL1        0.0090
     17  C         24.4020  -21.4610  -13.3360 C.2     1  UNL1       -0.0300
     18  C         23.8090  -22.1540  -12.2690 C.2     1  UNL1        0.0170
     19  C         23.8000  -21.5030  -14.7270 C.3     1  UNL1        0.3110
     20  N         24.7700  -21.8280  -15.7800 N.3     1  UNL1        0.0920
     21  C         24.3260  -22.9540  -16.6020 C.3     1  UNL1        0.2730
     22  C         25.1920  -22.8570  -17.8520 C.3     1  UNL1        0.0320
     23  C         25.7120  -21.4250  -17.8680 C.3     1  UNL1        0.0320
     24  C         24.9840  -20.7310  -16.7300 C.3     1  UNL1        0.2730
     25  S         16.6620  -24.3610   -7.3640 S.O2    1  UNL1        0.2650
     26  O         15.5090  -24.9280   -8.0300 O.2     1  UNL1       -0.2000
     27  O         17.4880  -25.2000   -6.5210 O.2     1  UNL1       -0.2000
     28  N         16.1230  -23.0330   -6.4670 N.pl3   1  UNL1       -0.2800
     29  H         15.4960  -22.4340   -7.0020 H       1  UNL1        0.1790
     30  C         16.9570  -22.4500   -5.4630 C.2     1  UNL1        0.0490
     31  C         16.7330  -22.7010   -4.1010 C.2     1  UNL1       -0.0350
     32  C         17.5540  -22.0650   -3.1530 C.2     1  UNL1        0.0090
     33  C         15.6230  -23.5830   -3.5980 C.3     1  UNL1        0.0500
     34  C         18.6010  -21.2290   -3.5480 C.2     1  UNL1        0.0070
     35  C         18.8430  -21.0000   -4.9010 C.2     1  UNL1       -0.0600
     36  C         19.9910  -20.1430   -5.3500 C.3     1  UNL1        0.0480
     37  C         18.0240  -21.6280   -5.8510 C.2     1  UNL1        0.0370
@<TRIPOS>BOND
     1    23    22    1
     2    23    24    1
     3    22    21    1
     4    24    20    1
     5    21    20    1
     6    20    19    1
     7    19    17    1
     8    17    16    2
     9    17    18    1
    10    16    15    1
    11    18    13    2
    12    15    14    2
    13    13    14    1
    14    13    12    1
    15     5     4    2
    16     5     6    1
    17     4     3    1
    18    11    10    1
    19    10    12    1
    20    10     8   am
    21     7     6    1
    22     6     1    2
    23     3     8    1
    24     3     2    2
    25     8     9    2
    26     1     2    1
    27     1    25    1
    28    26    25    2
    29    25    27    2
    30    25    28    1
    31    29    28    1
    32    28    30    1
    33    37    30    2
    34    37    35    1
    35    30    31    1
    36    36    35    1
    37    35    34    2
    38    31    33    1
    39    31    32    2
    40    34    32    1
