@<TRIPOS>MOLECULE
20127_out_ligand_01.pdbqt
 38 41 0 0 0
SMALL
GASTEIGER

@<TRIPOS>ATOM
      1  C         17.8520  -23.5510   -8.6820 C.2     1  UNL1        0.0860
      2  C         19.2270  -23.8520   -8.5990 C.2     1  UNL1        0.0420
      3  C         20.1300  -23.2780   -9.4950 C.2     1  UNL1        0.0330
      4  C         19.6610  -22.4200  -10.4910 C.2     1  UNL1        0.0170
      5  C         18.3010  -22.1100  -10.5680 C.2     1  UNL1        0.0090
      6  C         17.3740  -22.6640   -9.6660 C.2     1  UNL1       -0.0390
      7  C         15.9410  -22.2250   -9.7930 C.3     1  UNL1        0.0500
      8  C         21.5910  -23.5560   -9.4330 C.2     1  UNL1        0.2510
      9  O         22.0250  -24.3290   -8.5840 O.2     1  UNL1       -0.2680
     10  N         22.3720  -22.9300  -10.3830 N.am    1  UNL1       -0.3530
     11  H         21.9520  -22.3950  -11.1290 H       1  UNL1        0.1630
     12  C         23.7940  -23.1860  -10.4850 C.3     1  UNL1        0.1610
     13  C         24.5110  -22.1670  -11.3430 C.2     1  UNL1       -0.0400
     14  C         25.4880  -21.3080  -10.8250 C.2     1  UNL1        0.0090
     15  C         26.1030  -20.3550  -11.6390 C.2     1  UNL1        0.0010
     16  C         25.7320  -20.2280  -12.9780 C.2     1  UNL1        0.0090
     17  C         24.7350  -21.0510  -13.5130 C.2     1  UNL1       -0.0300
     18  C         24.1330  -22.0170  -12.6880 C.2     1  UNL1        0.0170
     19  C         24.2810  -20.8860  -14.9490 C.3     1  UNL1        0.3110
     20  N         25.3850  -21.0070  -15.9150 N.3     1  UNL1        0.0960
     21  C         24.9250  -20.8280  -17.3090 C.3     1  UNL1        0.2990
     22  C         24.7450  -22.1520  -18.0730 C.3     1  UNL1        0.1980
     23  O         25.9520  -22.9270  -18.1520 O.3     1  UNL1       -0.3880
     24  C         26.8450  -22.6880  -17.0510 C.3     1  UNL1        0.1980
     25  C         26.0980  -22.2990  -15.7650 C.3     1  UNL1        0.2990
     26  S         16.8120  -24.3000   -7.4300 S.O2    1  UNL1        0.2630
     27  O         17.6080  -25.1670   -6.5910 O.2     1  UNL1       -0.2000
     28  O         15.6500  -24.8280   -8.1200 O.2     1  UNL1       -0.2000
     29  N         16.2600  -22.9810   -6.5620 N.pl3   1  UNL1       -0.2800
     30  H         15.3760  -22.5650   -6.8530 H       1  UNL1        0.1790
     31  C         17.0150  -22.3880   -5.5170 C.2     1  UNL1        0.0490
     32  C         16.7270  -22.6800   -4.1770 C.2     1  UNL1       -0.0350
     33  C         17.5020  -22.0690   -3.1770 C.2     1  UNL1        0.0090
     34  C         15.5880  -23.5730   -3.7720 C.3     1  UNL1        0.0500
     35  C         18.5620  -21.2170   -3.5080 C.2     1  UNL1        0.0070
     36  C         18.8640  -20.9510   -4.8450 C.2     1  UNL1       -0.0600
     37  C         20.0290  -20.0770   -5.2110 C.3     1  UNL1        0.0480
     38  C         18.0950  -21.5580   -5.8460 C.2     1  UNL1        0.0370
@<TRIPOS>BOND
     1    23    22    1
     2    23    24    1
     3    22    21    1
     4    21    20    1
     5    24    25    1
     6    20    25    1
     7    20    19    1
     8    19    17    1
     9    17    16    2
    10    17    18    1
    11    16    15    1
    12    18    13    2
    13    15    14    2
    14    13    14    1
    15    13    12    1
    16    11    10    1
    17     5     4    2
    18     5     6    1
    19     4     3    1
    20    12    10    1
    21    10     8   am
    22     7     6    1
    23     6     1    2
    24     3     8    1
    25     3     2    2
    26     8     9    2
    27     1     2    1
    28     1    26    1
    29    28    26    2
    30    26    27    2
    31    26    29    1
    32    30    29    1
    33    29    31    1
    34    38    31    2
    35    38    36    1
    36    31    32    1
    37    37    36    1
    38    36    35    2
    39    32    34    1
    40    32    33    2
    41    35    33    1
