@<TRIPOS>MOLECULE
20121_out_ligand_01.pdbqt
 37 40 0 0 0
SMALL
GASTEIGER

@<TRIPOS>ATOM
      1  C         18.2630  -22.6770   -9.6050 C.2     1  UNL1        0.0860
      2  C         19.5690  -23.1350   -9.3620 C.2     1  UNL1        0.0420
      3  C         20.6350  -22.6680  -10.1350 C.2     1  UNL1        0.0330
      4  C         20.4000  -21.7350  -11.1460 C.2     1  UNL1        0.0170
      5  C         19.1000  -21.2830  -11.3930 C.2     1  UNL1        0.0090
      6  C         18.0130  -21.7390  -10.6270 C.2     1  UNL1       -0.0390
      7  C         16.6440  -21.2280  -10.9800 C.3     1  UNL1        0.0500
      8  C         22.0030  -23.1640   -9.8320 C.2     1  UNL1        0.2510
      9  O         22.1490  -24.1870   -9.1730 O.2     1  UNL1       -0.2680
     10  N         23.0430  -22.4300  -10.3600 N.am    1  UNL1       -0.3530
     11  H         22.8430  -21.7630  -11.0930 H       1  UNL1        0.1630
     12  C         24.4130  -22.8850  -10.2550 C.3     1  UNL1        0.1610
     13  C         25.3070  -22.1530  -11.2230 C.2     1  UNL1       -0.0400
     14  C         25.9450  -20.9690  -10.8320 C.2     1  UNL1        0.0090
     15  C         26.7740  -20.2850  -11.7180 C.2     1  UNL1        0.0010
     16  C         26.9750  -20.7790  -13.0060 C.2     1  UNL1        0.0090
     17  C         26.3480  -21.9600  -13.4230 C.2     1  UNL1       -0.0300
     18  C         25.5210  -22.6450  -12.5190 C.2     1  UNL1        0.0170
     19  C         26.5580  -22.4850  -14.8290 C.3     1  UNL1        0.3110
     20  N         25.3140  -22.5840  -15.6070 N.3     1  UNL1        0.0960
     21  C         25.5530  -23.1230  -16.9650 C.3     1  UNL1        0.2990
     22  C         24.4620  -22.6920  -17.9540 C.3     1  UNL1        0.1980
     23  O         24.4330  -21.2720  -18.1520 O.3     1  UNL1       -0.3880
     24  C         24.8380  -20.5330  -16.9930 C.3     1  UNL1        0.1980
     25  C         24.6030  -21.2900  -15.6770 C.3     1  UNL1        0.2990
     26  S         16.9550  -23.3690   -8.5970 S.O2    1  UNL1        0.2630
     27  O         15.8120  -23.6050   -9.4530 O.2     1  UNL1       -0.2000
     28  O         17.5080  -24.4530   -7.8120 O.2     1  UNL1       -0.2000
     29  N         16.5320  -22.0990   -7.5770 N.pl3   1  UNL1       -0.2800
     30  H         16.7870  -21.1910   -7.9510 H       1  UNL1        0.1790
     31  C         16.4440  -22.2620   -6.1590 C.2     1  UNL1        0.0480
     32  C         15.2260  -22.5810   -5.5490 C.2     1  UNL1        0.0300
     33  C         15.1420  -22.7300   -4.1620 C.2     1  UNL1        0.0020
     34  C         16.2680  -22.5310   -3.3720 C.2     1  UNL1        0.0010
     35  C         17.4810  -22.1830   -3.9660 C.2     1  UNL1        0.0090
     36  C         17.5850  -22.0380   -5.3610 C.2     1  UNL1       -0.0350
     37  C         18.9170  -21.6590   -5.9460 C.3     1  UNL1        0.0500
@<TRIPOS>BOND
     1    23    22    1
     2    23    24    1
     3    22    21    1
     4    24    25    1
     5    21    20    1
     6    25    20    1
     7    20    19    1
     8    19    17    1
     9    17    16    2
    10    17    18    1
    11    16    15    1
    12    18    13    2
    13    15    14    2
    14     5     4    2
    15     5     6    1
    16    13    14    1
    17    13    12    1
    18     4     3    1
    19    11    10    1
    20     7     6    1
    21     6     1    2
    22    10    12    1
    23    10     8   am
    24     3     8    1
    25     3     2    2
    26     8     9    2
    27     1     2    1
    28     1    26    1
    29    27    26    2
    30    26    28    2
    31    26    29    1
    32    30    29    1
    33    29    31    1
    34    31    32    2
    35    31    36    1
    36    37    36    1
    37    32    33    1
    38    36    35    2
    39    33    34    2
    40    35    34    1
