@<TRIPOS>MOLECULE
20122_out_ligand_01.pdbqt
 37 40 0 0 0
SMALL
GASTEIGER

@<TRIPOS>ATOM
      1  C         17.6130  -23.4030   -8.5880 C.2     1  UNL1        0.0810
      2  C         19.0120  -23.3950   -8.4700 C.2     1  UNL1        0.0420
      3  C         19.8020  -22.6950   -9.3910 C.2     1  UNL1        0.0330
      4  C         19.1800  -21.9820  -10.4190 C.2     1  UNL1        0.0170
      5  C         17.7850  -21.9870  -10.5350 C.2     1  UNL1        0.0090
      6  C         16.9790  -22.7030   -9.6320 C.2     1  UNL1       -0.0390
      7  C         15.4850  -22.6330   -9.7950 C.3     1  UNL1        0.0500
      8  C         21.2830  -22.7300   -9.2090 C.2     1  UNL1        0.2510
      9  O         21.7590  -22.5210   -8.0990 O.2     1  UNL1       -0.2680
     10  N         22.0440  -23.0490  -10.3110 N.am    1  UNL1       -0.3530
     11  H         21.6050  -23.3680  -11.1610 H       1  UNL1        0.1630
     12  C         23.4740  -23.2600  -10.2090 C.3     1  UNL1        0.1610
     13  C         24.2250  -22.3170  -11.1180 C.2     1  UNL1       -0.0400
     14  C         25.2270  -21.4790  -10.6100 C.2     1  UNL1        0.0090
     15  C         25.9140  -20.6040  -11.4500 C.2     1  UNL1        0.0010
     16  C         25.5940  -20.5430  -12.8070 C.2     1  UNL1        0.0090
     17  C         24.5850  -21.3570  -13.3400 C.2     1  UNL1       -0.0300
     18  C         23.9020  -22.2360  -12.4810 C.2     1  UNL1        0.0170
     19  C         24.1850  -21.2210  -14.7960 C.3     1  UNL1        0.3110
     20  N         25.3250  -21.2330  -15.7270 N.3     1  UNL1        0.0960
     21  C         24.9290  -20.9760  -17.1300 C.3     1  UNL1        0.2990
     22  C         24.8800  -22.2450  -17.9990 C.3     1  UNL1        0.1980
     23  O         26.1290  -22.9500  -18.0470 O.3     1  UNL1       -0.3880
     24  C         26.9180  -22.7810  -16.8600 C.3     1  UNL1        0.1980
     25  C         26.0630  -22.5100  -15.6140 C.3     1  UNL1        0.2990
     26  S         16.6860  -24.3000   -7.3480 S.O2    1  UNL1        0.2460
     27  O         17.6330  -24.9770   -6.4880 O.2     1  UNL1       -0.2060
     28  O         15.6200  -25.0140   -8.0200 O.2     1  UNL1       -0.2060
     29  N         15.9400  -23.0080   -6.5100 N.pl3   1  UNL1       -0.1810
     30  H         15.0770  -23.3700   -6.1020 H       1  UNL1        0.1460
     31  C         16.7750  -22.4320   -5.4930 C.2     1  UNL1        0.0230
     32  C         16.5530  -22.7520   -4.1520 C.2     1  UNL1        0.0240
     33  C         17.4030  -22.2450   -3.1700 C.2     1  UNL1        0.0020
     34  C         18.4770  -21.4270   -3.5280 C.2     1  UNL1        0.0070
     35  C         18.7080  -21.1040   -4.8710 C.2     1  UNL1       -0.0600
     36  C         19.8900  -20.2670   -5.2610 C.3     1  UNL1        0.0480
     37  C         17.8560  -21.6270   -5.8540 C.2     1  UNL1        0.0310
@<TRIPOS>BOND
     1    23    22    1
     2    23    24    1
     3    22    21    1
     4    21    20    1
     5    24    25    1
     6    20    25    1
     7    20    19    1
     8    19    17    1
     9    17    16    2
    10    17    18    1
    11    16    15    1
    12    18    13    2
    13    15    14    2
    14    11    10    1
    15    13    14    1
    16    13    12    1
    17     5     4    2
    18     5     6    1
    19     4     3    1
    20    10    12    1
    21    10     8   am
    22     7     6    1
    23     6     1    2
    24     3     8    1
    25     3     2    2
    26     8     9    2
    27     1     2    1
    28     1    26    1
    29    28    26    2
    30    26    29    1
    31    26    27    2
    32    29    30    1
    33    29    31    1
    34    37    31    2
    35    37    35    1
    36    31    32    1
    37    36    35    1
    38    35    34    2
    39    32    33    2
    40    34    33    1
