@<TRIPOS>MOLECULE
20124_out_ligand_01.pdbqt
 38 41 0 0 0
SMALL
GASTEIGER

@<TRIPOS>ATOM
      1  C         16.6980  -21.0470  -11.1490 C.3     1  UNL1        0.0500
      2  C         18.0840  -21.5510  -10.8580 C.2     1  UNL1       -0.0390
      3  C         19.1430  -21.0560  -11.6400 C.2     1  UNL1        0.0090
      4  C         20.4580  -21.4850  -11.4350 C.2     1  UNL1        0.0170
      5  C         20.7460  -22.4300  -10.4490 C.2     1  UNL1        0.0330
      6  C         19.7120  -22.9260   -9.6530 C.2     1  UNL1        0.0420
      7  C         18.3870  -22.4910   -9.8540 C.2     1  UNL1        0.0860
      8  C         22.1620  -22.8550  -10.2640 C.2     1  UNL1        0.2510
      9  O         22.4190  -23.8390   -9.5790 O.2     1  UNL1       -0.2680
     10  N         23.1210  -22.0730  -10.8710 N.am    1  UNL1       -0.3530
     11  H         22.8670  -21.1480  -11.1910 H       1  UNL1        0.1630
     12  C         24.5310  -22.3050  -10.6530 C.3     1  UNL1        0.1610
     13  C         25.1850  -22.8370  -11.9020 C.2     1  UNL1       -0.0400
     14  C         26.2860  -23.6980  -11.8240 C.2     1  UNL1        0.0090
     15  C         26.8670  -24.2080  -12.9850 C.2     1  UNL1        0.0010
     16  C         26.3480  -23.8680  -14.2340 C.2     1  UNL1        0.0090
     17  C         25.2420  -23.0110  -14.3380 C.2     1  UNL1       -0.0300
     18  C         24.6650  -22.5050  -13.1630 C.2     1  UNL1        0.0170
     19  C         24.6640  -22.6580  -15.6910 C.3     1  UNL1        0.3110
     20  N         25.6210  -21.9850  -16.5840 N.3     1  UNL1        0.0960
     21  C         26.0980  -20.7070  -16.0040 C.3     1  UNL1        0.2990
     22  C         26.6030  -19.7420  -17.0870 C.3     1  UNL1        0.1980
     23  O         25.5710  -19.3410  -18.0000 O.3     1  UNL1       -0.3880
     24  C         24.5390  -20.3250  -18.1440 C.3     1  UNL1        0.1980
     25  C         25.0430  -21.7600  -17.9260 C.3     1  UNL1        0.2990
     26  S         17.1530  -23.2310   -8.7920 S.O2    1  UNL1        0.2630
     27  O         16.0380  -23.7230   -9.5680 O.2     1  UNL1       -0.2000
     28  O         17.8630  -24.1220   -7.8940 O.2     1  UNL1       -0.2000
     29  N         16.6620  -21.9290   -7.8370 N.pl3   1  UNL1       -0.2800
     30  H         17.0750  -21.0520   -8.1530 H       1  UNL1        0.1790
     31  C         16.5240  -22.1240   -6.4330 C.2     1  UNL1        0.0490
     32  C         15.2840  -22.5720   -5.9730 C.2     1  UNL1        0.0310
     33  C         15.0850  -22.8130   -4.6170 C.2     1  UNL1        0.0030
     34  C         16.1320  -22.6170   -3.7200 C.2     1  UNL1        0.0070
     35  C         17.3880  -22.1730   -4.1660 C.2     1  UNL1       -0.0540
     36  C         18.4880  -21.9830   -3.1530 C.3     1  UNL1        0.0490
     37  C         17.5900  -21.9010   -5.5400 C.2     1  UNL1       -0.0290
     38  C         18.9420  -21.4400   -6.0220 C.3     1  UNL1        0.0510
@<TRIPOS>BOND
     1    24    23    1
     2    24    25    1
     3    23    22    1
     4    25    20    1
     5    22    21    1
     6    20    21    1
     7    20    19    1
     8    19    17    1
     9    17    16    2
    10    17    18    1
    11    16    15    1
    12    18    13    2
    13    15    14    2
    14    13    14    1
    15    13    12    1
    16     3     4    1
    17     3     2    2
    18     4     5    2
    19    11    10    1
    20     1     2    1
    21    10    12    1
    22    10     8   am
    23     2     7    1
    24     5     8    1
    25     5     6    1
    26     8     9    2
    27     7     6    2
    28     7    26    1
    29    27    26    2
    30    26    28    2
    31    26    29    1
    32    30    29    1
    33    29    31    1
    34    31    32    2
    35    31    37    1
    36    38    37    1
    37    32    33    1
    38    37    35    2
    39    33    34    2
    40    35    34    1
    41    35    36    1
