@<TRIPOS>MOLECULE
20128_out_ligand_01.pdbqt
 38 41 0 0 0
SMALL
GASTEIGER

@<TRIPOS>ATOM
      1  C         17.8440  -23.5980   -8.5960 C.2     1  UNL1        0.1020
      2  C         19.1920  -23.9810   -8.4730 C.2     1  UNL1        0.0440
      3  C         20.1460  -23.4880   -9.3690 C.2     1  UNL1        0.0330
      4  C         19.7540  -22.5980  -10.3720 C.2     1  UNL1        0.0190
      5  C         18.4130  -22.2270  -10.4980 C.2     1  UNL1        0.0260
      6  C         17.4480  -22.7290   -9.6160 C.2     1  UNL1        0.0570
      7 CL         15.8270  -22.1930   -9.8600 Cl      1  UNL1       -0.0830
      8  C         21.5810  -23.8740   -9.2840 C.2     1  UNL1        0.2510
      9  O         21.9010  -24.8970   -8.6900 O.2     1  UNL1       -0.2680
     10  N         22.4750  -23.0050   -9.8610 N.am    1  UNL1       -0.3530
     11  H         22.1620  -22.1220  -10.2420 H       1  UNL1        0.1630
     12  C         23.9030  -23.2040   -9.7670 C.3     1  UNL1        0.1610
     13  C         24.6010  -22.4510  -10.8690 C.2     1  UNL1       -0.0400
     14  C         25.2390  -21.2300  -10.6180 C.2     1  UNL1        0.0090
     15  C         25.9180  -20.5670  -11.6400 C.2     1  UNL1        0.0010
     16  C         25.9760  -21.1200  -12.9210 C.2     1  UNL1        0.0090
     17  C         25.3560  -22.3460  -13.1920 C.2     1  UNL1       -0.0300
     18  C         24.6680  -23.0010  -12.1580 C.2     1  UNL1        0.0170
     19  C         25.4060  -22.9520  -14.5800 C.3     1  UNL1        0.3110
     20  N         24.3130  -22.4920  -15.4520 N.3     1  UNL1        0.0960
     21  C         24.3930  -21.0330  -15.6920 C.3     1  UNL1        0.2990
     22  C         25.5140  -20.6170  -16.6600 C.3     1  UNL1        0.1980
     23  O         25.4040  -21.3020  -17.9130 O.3     1  UNL1       -0.3880
     24  C         25.4180  -22.7230  -17.7210 C.3     1  UNL1        0.1980
     25  C         24.3000  -23.1740  -16.7670 C.3     1  UNL1        0.2990
     26  S         16.6820  -24.2730   -7.4370 S.O2    1  UNL1        0.2650
     27  O         15.5380  -24.7600   -8.1760 O.2     1  UNL1       -0.2000
     28  O         17.4080  -25.1740   -6.5650 O.2     1  UNL1       -0.2000
     29  N         16.1730  -22.9340   -6.5470 N.pl3   1  UNL1       -0.2800
     30  H         15.5790  -22.3200   -7.1020 H       1  UNL1        0.1790
     31  C         16.9880  -22.3620   -5.5200 C.2     1  UNL1        0.0490
     32  C         16.7350  -22.6630   -4.1690 C.2     1  UNL1       -0.0350
     33  C         17.5350  -22.0660   -3.1790 C.2     1  UNL1        0.0090
     34  C         15.6220  -23.5720   -3.7280 C.3     1  UNL1        0.0500
     35  C         18.5900  -21.2200   -3.5180 C.2     1  UNL1        0.0070
     36  C         18.8710  -20.9520   -4.8580 C.2     1  UNL1       -0.0600
     37  C         20.0450  -20.0960   -5.2300 C.3     1  UNL1        0.0480
     38  C         18.0810  -21.5480   -5.8500 C.2     1  UNL1        0.0370
@<TRIPOS>BOND
     1    23    24    1
     2    23    22    1
     3    24    25    1
     4    25    20    1
     5    22    21    1
     6    21    20    1
     7    20    19    1
     8    19    17    1
     9    17    16    2
    10    17    18    1
    11    16    15    1
    12    18    13    2
    13    15    14    2
    14    13    14    1
    15    13    12    1
    16     5     4    2
    17     5     6    1
    18     4     3    1
    19    11    10    1
    20    10    12    1
    21    10     8   am
    22     7     6    1
    23     6     1    2
    24     3     8    1
    25     3     2    2
    26     8     9    2
    27     1     2    1
    28     1    26    1
    29    27    26    2
    30    26    28    2
    31    26    29    1
    32    30    29    1
    33    29    31    1
    34    38    31    2
    35    38    36    1
    36    31    32    1
    37    37    36    1
    38    36    35    2
    39    32    34    1
    40    32    33    2
    41    35    33    1
