@<TRIPOS>MOLECULE
20120_out_ligand_01.pdbqt
 36 39 0 0 0
SMALL
GASTEIGER

@<TRIPOS>ATOM
      1  C         15.7140  -22.2540   -9.5630 C.3     1  UNL1        0.0500
      2  C         17.1540  -22.6750   -9.4530 C.2     1  UNL1       -0.0390
      3  C         18.0750  -22.1650  -10.3840 C.2     1  UNL1        0.0090
      4  C         19.4220  -22.5360  -10.3450 C.2     1  UNL1        0.0170
      5  C         19.8740  -23.4450   -9.3860 C.2     1  UNL1        0.0330
      6  C         18.9790  -23.9550   -8.4410 C.2     1  UNL1        0.0420
      7  C         17.6280  -23.5710   -8.4720 C.2     1  UNL1        0.0810
      8  C         21.3120  -23.8230   -9.3850 C.2     1  UNL1        0.2510
      9  O         21.6710  -24.8500   -8.8250 O.2     1  UNL1       -0.2680
     10  N         22.1630  -22.9480  -10.0220 N.am    1  UNL1       -0.3530
     11  H         21.8210  -22.0540  -10.3440 H       1  UNL1        0.1630
     12  C         23.5990  -23.1300  -10.0010 C.3     1  UNL1        0.1610
     13  C         24.3480  -22.2250  -10.9520 C.2     1  UNL1       -0.0400
     14  C         25.3740  -21.3650  -10.5340 C.2     1  UNL1        0.0090
     15  C         26.0050  -20.5150  -11.4440 C.2     1  UNL1        0.0010
     16  C         25.6100  -20.4980  -12.7810 C.2     1  UNL1        0.0090
     17  C         24.5740  -21.3290  -13.2220 C.2     1  UNL1       -0.0300
     18  C         23.9530  -22.1870  -12.3000 C.2     1  UNL1        0.0170
     19  C         24.1360  -21.3140  -14.6720 C.3     1  UNL1        0.3110
     20  N         25.2340  -21.5630  -15.6250 N.3     1  UNL1        0.0960
     21  C         25.3540  -22.9900  -15.9810 C.3     1  UNL1        0.2990
     22  C         24.2460  -23.5010  -16.9200 C.3     1  UNL1        0.1980
     23  O         23.9170  -22.6080  -17.9940 O.3     1  UNL1       -0.3880
     24  C         24.8840  -21.5690  -18.1510 C.3     1  UNL1        0.1980
     25  C         25.0330  -20.7550  -16.8530 C.3     1  UNL1        0.2990
     26  S         16.5470  -24.2630   -7.2240 S.O2    1  UNL1        0.2460
     27  O         15.4800  -24.9650   -7.9010 O.2     1  UNL1       -0.2060
     28  O         17.3860  -24.9220   -6.2440 O.2     1  UNL1       -0.2060
     29  N         15.9640  -22.8420   -6.4840 N.pl3   1  UNL1       -0.1810
     30  H         15.7990  -22.1550   -7.2210 H       1  UNL1        0.1460
     31  C         16.8380  -22.3120   -5.4780 C.2     1  UNL1        0.0220
     32  C         17.9700  -21.5870   -5.8490 C.2     1  UNL1        0.0240
     33  C         18.8350  -21.1000   -4.8670 C.2     1  UNL1        0.0020
     34  C         18.5730  -21.3490   -3.5200 C.2     1  UNL1        0.0000
     35  C         17.4510  -22.0930   -3.1530 C.2     1  UNL1        0.0020
     36  C         16.5850  -22.5800   -4.1340 C.2     1  UNL1        0.0240
@<TRIPOS>BOND
     1    24    23    1
     2    24    25    1
     3    23    22    1
     4    22    21    1
     5    25    20    1
     6    21    20    1
     7    20    19    1
     8    19    17    1
     9    17    16    2
    10    17    18    1
    11    16    15    1
    12    18    13    2
    13    15    14    2
    14    13    14    1
    15    13    12    1
    16     3     4    1
    17     3     2    2
    18     4     5    2
    19    11    10    1
    20    10    12    1
    21    10     8   am
    22     1     2    1
    23     2     7    1
    24     5     8    1
    25     5     6    1
    26     8     9    2
    27     7     6    2
    28     7    26    1
    29    27    26    2
    30    26    29    1
    31    26    28    2
    32    30    29    1
    33    29    31    1
    34    32    31    2
    35    32    33    1
    36    31    36    1
    37    33    34    2
    38    36    35    2
    39    34    35    1
