@<TRIPOS>MOLECULE
20132_out_ligand_01.pdbqt
 37 40 0 0 0
SMALL
GASTEIGER

@<TRIPOS>ATOM
      1  C         18.6890  -22.4090   -9.9540 C.2     1  UNL1        0.0860
      2  C         20.0340  -22.8190   -9.9260 C.2     1  UNL1        0.0420
      3  C         20.9560  -22.2650  -10.8150 C.2     1  UNL1        0.0330
      4  C         20.5440  -21.2830  -11.7160 C.2     1  UNL1        0.0170
      5  C         19.2040  -20.8860  -11.7570 C.2     1  UNL1        0.0090
      6  C         18.2530  -21.4440  -10.8840 C.2     1  UNL1       -0.0390
      7  C         16.8190  -21.0190  -11.0390 C.3     1  UNL1        0.0500
      8  C         22.3760  -22.7030  -10.8280 C.2     1  UNL1        0.2510
      9  O         22.8940  -23.1390   -9.8080 O.2     1  UNL1       -0.2680
     10  N         23.0310  -22.5460  -12.0290 N.am    1  UNL1       -0.3530
     11  H         22.5830  -22.0400  -12.7800 H       1  UNL1        0.1630
     12  C         24.4480  -22.8210  -12.1600 C.3     1  UNL1        0.1620
     13  C         25.2900  -21.5670  -12.2800 C.2     1  UNL1       -0.0330
     14  C         25.8780  -21.0330  -11.1110 C.2     1  UNL1        0.0090
     15  C         26.6340  -19.8610  -11.1420 C.2     1  UNL1        0.0010
     16  C         26.8070  -19.1820  -12.3380 C.2     1  UNL1        0.0010
     17  C         26.2150  -19.6710  -13.5010 C.2     1  UNL1        0.0090
     18  C         25.4530  -20.8610  -13.4960 C.2     1  UNL1       -0.0220
     19  C         24.8490  -21.2940  -14.8250 C.3     1  UNL1        0.3110
     20  N         25.7700  -22.1030  -15.6410 N.3     1  UNL1        0.0920
     21  C         26.1060  -21.5020  -16.9390 C.3     1  UNL1        0.2720
     22  C         24.9810  -21.5800  -17.9770 C.3     1  UNL1        0.0300
     23  C         24.4930  -23.0130  -18.1530 C.3     1  UNL1        0.0030
     24  C         24.1270  -23.6190  -16.8020 C.3     1  UNL1        0.0300
     25  C         25.2840  -23.4800  -15.8070 C.3     1  UNL1        0.2720
     26  S         17.5750  -23.2110   -8.8060 S.O2    1  UNL1        0.2630
     27  O         18.3430  -24.1650   -8.0320 O.2     1  UNL1       -0.2000
     28  O         16.4120  -23.6500   -9.5480 O.2     1  UNL1       -0.2000
     29  N         17.0660  -21.9640   -7.8010 N.pl3   1  UNL1       -0.2800
     30  H         17.3480  -21.0470   -8.1410 H       1  UNL1        0.1790
     31  C         16.8380  -22.1450   -6.4030 C.2     1  UNL1        0.0480
     32  C         15.5800  -22.5330   -5.9250 C.2     1  UNL1        0.0300
     33  C         15.3590  -22.7010   -4.5560 C.2     1  UNL1        0.0020
     34  C         16.3890  -22.4680   -3.6520 C.2     1  UNL1        0.0010
     35  C         17.6360  -22.0490   -4.1120 C.2     1  UNL1        0.0090
     36  C         17.8730  -21.8700   -5.4870 C.2     1  UNL1       -0.0350
     37  C         19.2370  -21.4110   -5.9260 C.3     1  UNL1        0.0500
@<TRIPOS>BOND
     1    23    22    1
     2    23    24    1
     3    22    21    1
     4    21    20    1
     5    24    25    1
     6    25    20    1
     7    20    19    1
     8    19    18    1
     9    17    18    1
    10    17    16    2
    11    18    13    2
    12    11    10    1
    13    16    15    1
    14    13    12    1
    15    13    14    1
    16    12    10    1
    17    10     8   am
    18     5     4    2
    19     5     6    1
    20     4     3    1
    21    15    14    2
    22     7     6    1
    23     6     1    2
    24     8     3    1
    25     8     9    2
    26     3     2    2
    27     1     2    1
    28     1    26    1
    29    28    26    2
    30    26    27    2
    31    26    29    1
    32    30    29    1
    33    29    31    1
    34    31    32    2
    35    31    36    1
    36    37    36    1
    37    32    33    1
    38    36    35    2
    39    33    34    2
    40    35    34    1
