@<TRIPOS>MOLECULE
20135_out_ligand_01.pdbqt
 38 41 0 0 0
SMALL
GASTEIGER

@<TRIPOS>ATOM
      1  C         16.8880  -20.9390  -11.0430 C.3     1  UNL1        0.0500
      2  C         18.2860  -21.4600  -10.8570 C.2     1  UNL1       -0.0390
      3  C         19.3080  -20.9070  -11.6520 C.2     1  UNL1        0.0090
      4  C         20.6320  -21.3410  -11.5410 C.2     1  UNL1        0.0170
      5  C         20.9580  -22.3410  -10.6230 C.2     1  UNL1        0.0330
      6  C         19.9620  -22.9040   -9.8230 C.2     1  UNL1        0.0420
      7  C         18.6310  -22.4670   -9.9340 C.2     1  UNL1        0.0860
      8  C         22.3420  -22.8560  -10.4900 C.2     1  UNL1        0.2510
      9  O         22.7670  -23.1720   -9.3850 O.2     1  UNL1       -0.2680
     10  N         23.0800  -22.9050  -11.6520 N.am    1  UNL1       -0.3530
     11  H         22.7180  -22.4720  -12.4890 H       1  UNL1        0.1630
     12  C         24.4960  -23.2060  -11.6200 C.3     1  UNL1        0.1620
     13  C         25.4090  -22.0380  -11.9490 C.2     1  UNL1       -0.0330
     14  C         25.5490  -20.9480  -11.0650 C.2     1  UNL1        0.0090
     15  C         26.3940  -19.8750  -11.3580 C.2     1  UNL1        0.0010
     16  C         27.1190  -19.8670  -12.5400 C.2     1  UNL1        0.0010
     17  C         26.9940  -20.9290  -13.4330 C.2     1  UNL1        0.0090
     18  C         26.1320  -22.0140  -13.1690 C.2     1  UNL1       -0.0220
     19  C         26.0840  -23.1630  -14.1690 C.3     1  UNL1        0.3110
     20  N         25.5870  -22.7720  -15.5000 N.3     1  UNL1        0.0920
     21  C         26.6770  -22.2220  -16.3240 C.3     1  UNL1        0.2720
     22  C         26.4200  -22.3080  -17.8350 C.3     1  UNL1        0.0300
     23  C         24.9350  -22.2150  -18.1530 C.3     1  UNL1        0.0030
     24  C         24.1480  -23.3000  -17.4150 C.3     1  UNL1        0.0300
     25  C         24.8820  -23.8550  -16.1860 C.3     1  UNL1        0.2720
     26  S         17.4580  -23.2420   -8.8270 S.O2    1  UNL1        0.2630
     27  O         18.1270  -24.1980   -7.9740 O.2     1  UNL1       -0.2000
     28  O         16.3280  -23.6610   -9.6320 O.2     1  UNL1       -0.2000
     29  N         16.9100  -21.9380   -7.9140 N.pl3   1  UNL1       -0.2800
     30  H         16.3070  -21.3080   -8.4360 H       1  UNL1        0.1790
     31  C         16.6680  -22.1050   -6.5240 C.2     1  UNL1        0.0490
     32  C         15.3870  -22.4740   -6.1040 C.2     1  UNL1        0.0310
     33  C         15.1150  -22.6380   -4.7500 C.2     1  UNL1        0.0030
     34  C         16.1200  -22.4210   -3.8110 C.2     1  UNL1        0.0070
     35  C         17.4070  -22.0280   -4.2120 C.2     1  UNL1       -0.0540
     36  C         18.4550  -21.7950   -3.1550 C.3     1  UNL1        0.0490
     37  C         17.6830  -21.8340   -5.5870 C.2     1  UNL1       -0.0290
     38  C         19.0550  -21.3810   -6.0210 C.3     1  UNL1        0.0510
@<TRIPOS>BOND
     1    23    22    1
     2    23    24    1
     3    22    21    1
     4    24    25    1
     5    21    20    1
     6    25    20    1
     7    20    19    1
     8    19    18    1
     9    17    18    1
    10    17    16    2
    11    18    13    2
    12    16    15    1
    13    11    10    1
    14    13    12    1
    15    13    14    1
    16    10    12    1
    17    10     8   am
    18     3     4    1
    19     3     2    2
    20     4     5    2
    21    15    14    2
    22     1     2    1
    23     2     7    1
    24     5     8    1
    25     5     6    1
    26     8     9    2
    27     7     6    2
    28     7    26    1
    29    28    26    2
    30    26    27    2
    31    26    29    1
    32    30    29    1
    33    29    31    1
    34    31    32    2
    35    31    37    1
    36    32    33    1
    37    38    37    1
    38    37    35    2
    39    33    34    2
    40    35    34    1
    41    35    36    1
