@<TRIPOS>MOLECULE
20139_out_ligand_01.pdbqt
 37 40 0 0 0
SMALL
GASTEIGER

@<TRIPOS>ATOM
      1  C         18.9020  -22.6220   -9.9000 C.2     1  UNL1        0.0970
      2  C         20.2260  -23.0770   -9.7840 C.2     1  UNL1        0.0430
      3  C         21.2350  -22.5320  -10.5880 C.2     1  UNL1        0.0330
      4  C         20.9150  -21.5430  -11.5230 C.2     1  UNL1        0.0190
      5  C         19.5970  -21.0920  -11.6330 C.2     1  UNL1        0.0260
      6  C         18.5840  -21.6230  -10.8210 C.2     1  UNL1        0.0570
      7 CL         17.0000  -20.9900  -11.0660 Cl      1  UNL1       -0.0830
      8  C         22.6210  -23.0510  -10.4330 C.2     1  UNL1        0.2510
      9  O         23.0100  -23.4090   -9.3280 O.2     1  UNL1       -0.2680
     10  N         23.3990  -23.0640  -11.5690 N.am    1  UNL1       -0.3530
     11  H         23.0850  -22.5540  -12.3830 H       1  UNL1        0.1630
     12  C         24.8150  -23.3550  -11.5020 C.3     1  UNL1        0.1620
     13  C         25.6210  -22.1280  -11.8610 C.2     1  UNL1       -0.0330
     14  C         25.6680  -21.0820  -10.9190 C.2     1  UNL1        0.0090
     15  C         26.3890  -19.9150  -11.1700 C.2     1  UNL1        0.0010
     16  C         27.0750  -19.7740  -12.3690 C.2     1  UNL1        0.0010
     17  C         27.0260  -20.7930  -13.3210 C.2     1  UNL1        0.0090
     18  C         26.2810  -21.9690  -13.1010 C.2     1  UNL1       -0.0220
     19  C         26.2810  -23.0490  -14.1750 C.3     1  UNL1        0.3110
     20  N         25.4070  -22.7550  -15.3300 N.3     1  UNL1        0.0920
     21  C         24.9110  -23.9880  -15.9620 C.3     1  UNL1        0.2720
     22  C         23.9680  -23.6740  -17.1260 C.3     1  UNL1        0.0300
     23  C         24.6300  -22.7610  -18.1520 C.3     1  UNL1        0.0030
     24  C         25.2150  -21.5290  -17.4700 C.3     1  UNL1        0.0300
     25  C         26.1250  -21.9200  -16.3060 C.3     1  UNL1        0.2720
     26  S         17.6820  -23.3220   -8.8200 S.O2    1  UNL1        0.2470
     27  O         16.5070  -23.6110   -9.6180 O.2     1  UNL1       -0.2050
     28  O         18.3170  -24.3570   -8.0380 O.2     1  UNL1       -0.2050
     29  N         17.2580  -21.9880   -7.8580 N.pl3   1  UNL1       -0.1810
     30  H         16.5210  -21.4790   -8.3520 H       1  UNL1        0.1460
     31  C         16.7990  -22.2690   -6.5210 C.2     1  UNL1        0.0280
     32  C         15.5030  -22.7450   -6.2820 C.2     1  UNL1        0.0250
     33  C         15.0340  -22.8910   -4.9760 C.2     1  UNL1        0.0020
     34  C         15.8390  -22.5300   -3.9020 C.2     1  UNL1        0.0010
     35  C         17.1120  -22.0100   -4.1310 C.2     1  UNL1        0.0080
     36  C         17.5970  -21.8500   -5.4400 C.2     1  UNL1       -0.0400
     37  C         18.9740  -21.2860   -5.6480 C.3     1  UNL1        0.0500
@<TRIPOS>BOND
     1    23    24    1
     2    23    22    1
     3    24    25    1
     4    22    21    1
     5    25    20    1
     6    21    20    1
     7    20    19    1
     8    19    18    1
     9    17    18    1
    10    17    16    2
    11    18    13    2
    12    11    10    1
    13    16    15    1
    14    13    12    1
    15    13    14    1
    16     5     4    2
    17     5     6    1
    18    10    12    1
    19    10     8   am
    20     4     3    1
    21    15    14    2
    22     7     6    1
    23     6     1    2
    24     3     8    1
    25     3     2    2
    26     8     9    2
    27     1     2    1
    28     1    26    1
    29    27    26    2
    30    26    28    2
    31    26    29    1
    32    30    29    1
    33    29    31    1
    34    31    32    2
    35    31    36    1
    36    32    33    1
    37    37    36    1
    38    36    35    2
    39    33    34    2
    40    35    34    1
