@<TRIPOS>MOLECULE
20144_out_ligand_01.pdbqt
 35 39 0 0 0
SMALL
GASTEIGER

@<TRIPOS>ATOM
      1  O         20.4570  -19.9170  -12.4890 O.2     1  UNL1       -0.2680
      2  C         20.4410  -21.0970  -12.1600 C.2     1  UNL1        0.2510
      3  N         21.4880  -21.9650  -12.3720 N.am    1  UNL1       -0.3530
      4  H         21.4880  -22.8630  -11.9100 H       1  UNL1        0.1630
      5  C         19.2690  -21.6570  -11.4350 C.2     1  UNL1        0.0320
      6  C         18.1040  -20.8880  -11.3560 C.2     1  UNL1        0.0170
      7  C         16.9910  -21.3690  -10.6650 C.2     1  UNL1        0.0100
      8  C         17.0220  -22.6330  -10.0570 C.2     1  UNL1       -0.0300
      9  C         18.1860  -23.4100  -10.1580 C.2     1  UNL1        0.0100
     10  C         19.3040  -22.9270  -10.8450 C.2     1  UNL1        0.0170
     11  C         15.8130  -23.1450   -9.3010 C.3     1  UNL1        0.3110
     12  N         15.9050  -22.9350   -7.8480 N.3     1  UNL1        0.0970
     13  C         15.8710  -24.2260   -7.1430 C.3     1  UNL1        0.2770
     14  C         15.7710  -24.0150   -5.6280 C.3     1  UNL1        0.0690
     15  C         16.8140  -23.0560   -5.1170 C.2     1  UNL1       -0.0490
     16  C         17.1270  -23.0120   -3.7510 C.2     1  UNL1        0.0070
     17  C         17.4340  -22.1620   -6.0060 C.2     1  UNL1       -0.0240
     18  C         18.0760  -22.1070   -3.2750 C.2     1  UNL1        0.0010
     19  C         18.7090  -21.2320   -4.1560 C.2     1  UNL1        0.0010
     20  C         18.3900  -21.2600   -5.5140 C.2     1  UNL1        0.0090
     21  C         17.1400  -22.2060   -7.4930 C.3     1  UNL1        0.3110
     22  C         22.7430  -21.5310  -12.9530 C.3     1  UNL1        0.1620
     23  C         23.9210  -22.3310  -12.4330 C.2     1  UNL1       -0.0330
     24  C         24.5310  -23.2680  -13.2960 C.2     1  UNL1        0.0090
     25  C         25.6330  -24.0220  -12.8950 C.2     1  UNL1        0.0010
     26  C         26.1460  -23.8630  -11.6160 C.2     1  UNL1        0.0010
     27  C         25.5380  -22.9720  -10.7330 C.2     1  UNL1        0.0090
     28  C         24.4010  -22.2220  -11.1060 C.2     1  UNL1       -0.0220
     29  C         23.7750  -21.2910  -10.0740 C.3     1  UNL1        0.3110
     30  N         23.2260  -21.9810   -8.8910 N.3     1  UNL1        0.0920
     31  C         23.3070  -23.4490   -9.0010 C.3     1  UNL1        0.2720
     32  C         21.9740  -24.1170   -9.3280 C.3     1  UNL1        0.0300
     33  C         20.9130  -23.7960   -8.2770 C.3     1  UNL1        0.0030
     34  C         21.1220  -22.4210   -7.6440 C.3     1  UNL1        0.0300
     35  C         21.8760  -21.4850   -8.5870 C.3     1  UNL1        0.2720
@<TRIPOS>BOND
     1    24    25    1
     2    24    23    2
     3    22    23    1
     4    22     3    1
     5    25    26    2
     6     1     2    2
     7    23    28    1
     8     3     2   am
     9     3     4    1
    10     2     5    1
    11    26    27    1
    12     5     6    2
    13     5    10    1
    14     6     7    1
    15    28    27    2
    16    28    29    1
    17    10     9    2
    18     7     8    2
    19     9     8    1
    20    29    30    1
    21     8    11    1
    22    32    31    1
    23    32    33    1
    24    11    12    1
    25    31    30    1
    26    30    35    1
    27    35    34    1
    28    33    34    1
    29    12    21    1
    30    12    13    1
    31    21    17    1
    32    13    14    1
    33    17    20    1
    34    17    15    2
    35    14    15    1
    36    20    19    2
    37    15    16    1
    38    19    18    1
    39    16    18    2
