@<TRIPOS>MOLECULE
20146_out_ligand_01.pdbqt
 36 39 0 0 0
SMALL
GASTEIGER

@<TRIPOS>ATOM
      1  C         18.5210  -22.4230  -10.0070 C.2     1  UNL1        0.0860
      2  C         19.8620  -22.8540  -10.0210 C.2     1  UNL1        0.0420
      3  C         20.7640  -22.3180  -10.9420 C.2     1  UNL1        0.0330
      4  C         20.3300  -21.3400  -11.8400 C.2     1  UNL1        0.0170
      5  C         18.9970  -20.9220  -11.8360 C.2     1  UNL1        0.0090
      6  C         18.0690  -21.4550  -10.9250 C.2     1  UNL1       -0.0390
      7  C         16.6530  -20.9520  -10.9870 C.3     1  UNL1        0.0500
      8  C         22.1940  -22.7260  -10.9740 C.2     1  UNL1        0.2510
      9  O         22.6760  -23.3180  -10.0170 O.2     1  UNL1       -0.2680
     10  N         22.9040  -22.3750  -12.1000 N.am    1  UNL1       -0.3530
     11  H         22.4960  -21.7580  -12.7900 H       1  UNL1        0.1630
     12  C         24.3120  -22.6850  -12.2480 C.3     1  UNL1        0.1620
     13  C         25.1920  -21.4550  -12.3900 C.2     1  UNL1       -0.0330
     14  C         26.0800  -21.1170  -11.3480 C.2     1  UNL1        0.0090
     15  C         26.8970  -19.9920  -11.4260 C.2     1  UNL1        0.0010
     16  C         26.8500  -19.1870  -12.5530 C.2     1  UNL1        0.0010
     17  C         26.0060  -19.5220  -13.6140 C.2     1  UNL1        0.0090
     18  C         25.1920  -20.6710  -13.5780 C.2     1  UNL1       -0.0330
     19  C         24.2840  -21.0330  -14.7510 C.3     1  UNL1        0.1560
     20  N         24.8580  -21.6360  -15.9440 N.3     1  UNL1       -0.4080
     21  C         24.5060  -23.0080  -16.2680 C.3     1  UNL1        0.1170
     22  C         24.7260  -23.1180  -17.7730 C.3     1  UNL1        0.0210
     23  C         25.4670  -21.8450  -18.1530 C.3     1  UNL1        0.0210
     24  C         24.9540  -20.8300  -17.1470 C.3     1  UNL1        0.1170
     25  S         17.4700  -23.1870   -8.7790 S.O2    1  UNL1        0.2630
     26  O         18.3170  -24.0770   -8.0100 O.2     1  UNL1       -0.2000
     27  O         16.2550  -23.6850   -9.3810 O.2     1  UNL1       -0.2000
     28  N         17.1110  -21.8980   -7.7450 N.pl3   1  UNL1       -0.2800
     29  H         17.6450  -21.0660   -7.9930 H       1  UNL1        0.1790
     30  C         16.9230  -22.1680   -6.3600 C.2     1  UNL1        0.0480
     31  C         15.7140  -22.7480   -5.9620 C.2     1  UNL1        0.0300
     32  C         15.4970  -23.0760   -4.6250 C.2     1  UNL1        0.0020
     33  C         16.4900  -22.8290   -3.6830 C.2     1  UNL1        0.0010
     34  C         17.6990  -22.2480   -4.0760 C.2     1  UNL1        0.0090
     35  C         17.9270  -21.8990   -5.4180 C.2     1  UNL1       -0.0350
     36  C         19.2550  -21.3050   -5.7970 C.3     1  UNL1        0.0500
@<TRIPOS>BOND
     1    23    22    1
     2    23    24    1
     3    22    21    1
     4    24    20    1
     5    21    20    1
     6    20    19    1
     7    19    18    1
     8    17    18    1
     9    17    16    2
    10    18    13    2
    11    11    10    1
    12    16    15    1
    13    13    12    1
    14    13    14    1
    15    12    10    1
    16    10     8   am
    17     4     5    2
    18     4     3    1
    19     5     6    1
    20    15    14    2
    21     7     6    1
    22     8     3    1
    23     8     9    2
    24     3     2    2
    25     6     1    2
    26     2     1    1
    27     1    25    1
    28    27    25    2
    29    25    26    2
    30    25    28    1
    31    29    28    1
    32    28    30    1
    33    30    31    2
    34    30    35    1
    35    31    32    1
    36    36    35    1
    37    35    34    2
    38    32    33    2
    39    34    33    1
