@<TRIPOS>MOLECULE
20142_out_ligand_01.pdbqt
 36 39 0 0 0
SMALL
GASTEIGER

@<TRIPOS>ATOM
      1  C         19.3020  -22.2360   -6.1380 C.2     1  UNL1        0.0550
      2  C         18.2630  -23.1010   -5.7480 C.2     1  UNL1        0.0430
      3  C         17.5040  -22.8260   -4.6130 C.2     1  UNL1        0.0240
      4  C         17.7850  -21.7000   -3.8420 C.2     1  UNL1        0.0260
      5  C         18.8020  -20.8250   -4.2330 C.2     1  UNL1        0.0260
      6  C         19.5600  -21.0840   -5.3820 C.2     1  UNL1        0.0490
      7 CL         20.7670  -19.9170   -5.7960 Cl      1  UNL1       -0.0830
      8  C         20.0620  -22.6430   -7.3490 C.2     1  UNL1        0.2530
      9  O         21.1920  -22.2070   -7.5300 O.2     1  UNL1       -0.2680
     10  N         19.3980  -23.4290   -8.2620 N.am    1  UNL1       -0.3530
     11  H         18.4460  -23.7240   -8.0860 H       1  UNL1        0.1630
     12  C         20.0240  -23.8520   -9.4920 C.3     1  UNL1        0.1620
     13  C         20.1190  -22.6920  -10.4550 C.2     1  UNL1       -0.0330
     14  C         18.9260  -22.0140  -10.7790 C.2     1  UNL1        0.0090
     15  C         18.9100  -20.9890  -11.7250 C.2     1  UNL1        0.0010
     16  C         20.0820  -20.6430  -12.3810 C.2     1  UNL1        0.0010
     17  C         21.2710  -21.3090  -12.0780 C.2     1  UNL1        0.0090
     18  C         21.3200  -22.3240  -11.1050 C.2     1  UNL1       -0.0330
     19  C         22.6530  -23.0020  -10.8250 C.3     1  UNL1        0.1560
     20  N         23.8400  -22.3930  -11.4300 N.3     1  UNL1       -0.4080
     21  C         24.5480  -23.2020  -12.4230 C.3     1  UNL1        0.1170
     22  C         26.0660  -23.2100  -12.2510 C.3     1  UNL1        0.0190
     23  C         26.6510  -21.8060  -12.1320 C.3     1  UNL1        0.0030
     24  C         25.7600  -20.8680  -11.3210 C.3     1  UNL1        0.0190
     25  C         24.6870  -21.6190  -10.5310 C.3     1  UNL1        0.1170
     26  N         16.5000  -23.7480   -4.1750 N.pl3   1  UNL1       -0.1810
     27  H         16.3860  -23.7290   -3.1590 H       1  UNL1        0.1460
     28  S         14.9640  -23.4690   -4.8690 S.O2    1  UNL1        0.2450
     29  O         14.5190  -22.1360   -4.5260 O.2     1  UNL1       -0.2060
     30  O         14.1550  -24.6370   -4.5880 O.2     1  UNL1       -0.2060
     31  C         15.3700  -23.4830   -6.5950 C.2     1  UNL1        0.0740
     32  C         15.4790  -22.2660   -7.2810 C.2     1  UNL1        0.0250
     33  C         15.7580  -22.2750   -8.6470 C.2     1  UNL1        0.0020
     34  C         15.9300  -23.4880   -9.3180 C.2     1  UNL1        0.0000
     35  C         15.8210  -24.6980   -8.6290 C.2     1  UNL1        0.0020
     36  C         15.5300  -24.7010   -7.2640 C.2     1  UNL1        0.0250
@<TRIPOS>BOND
     1    21    22    1
     2    21    20    1
     3    16    17    2
     4    16    15    1
     5    22    23    1
     6    23    24    1
     7    17    18    1
     8    15    14    2
     9    20    19    1
    10    20    25    1
    11    24    25    1
    12    18    19    1
    13    18    13    2
    14    14    13    1
    15    13    12    1
    16    12    10    1
    17    34    33    2
    18    34    35    1
    19    33    32    1
    20    35    36    2
    21    10    11    1
    22    10     8   am
    23     9     8    2
    24     8     1    1
    25    32    31    2
    26    36    31    1
    27    31    28    1
    28     1     2    2
    29     1     6    1
    30     7     6    1
    31     2     3    1
    32     6     5    2
    33    28    30    2
    34    28    29    2
    35    28    26    1
    36     3    26    1
    37     3     4    2
    38     5     4    1
    39    26    27    1
