@<TRIPOS>MOLECULE
20149_out_ligand_01.pdbqt
 37 40 0 0 0
SMALL
GASTEIGER

@<TRIPOS>ATOM
      1  C         18.4680  -24.7720   -7.2270 C.3     1  UNL1        0.0500
      2  C         19.0290  -23.9320   -8.3390 C.2     1  UNL1       -0.0390
      3  C         20.4090  -24.0180   -8.5930 C.2     1  UNL1        0.0090
      4  C         20.9960  -23.3120   -9.6460 C.2     1  UNL1        0.0170
      5  C         20.2090  -22.5220  -10.4870 C.2     1  UNL1        0.0330
      6  C         18.8390  -22.4080  -10.2450 C.2     1  UNL1        0.0420
      7  C         18.2490  -23.1070   -9.1770 C.2     1  UNL1        0.0860
      8  C         20.8660  -21.8370  -11.6330 C.2     1  UNL1        0.2510
      9  O         20.4060  -20.7850  -12.0610 O.2     1  UNL1       -0.2680
     10  N         22.0220  -22.4200  -12.1040 N.am    1  UNL1       -0.3530
     11  H         22.4420  -23.1870  -11.5980 H       1  UNL1        0.1630
     12  C         22.8620  -21.7630  -13.0860 C.3     1  UNL1        0.1620
     13  C         24.2960  -21.5360  -12.6370 C.2     1  UNL1       -0.0330
     14  C         24.6260  -21.4600  -11.2680 C.2     1  UNL1        0.0090
     15  C         25.9380  -21.2420  -10.8430 C.2     1  UNL1        0.0010
     16  C         26.9520  -21.0840  -11.7760 C.2     1  UNL1        0.0010
     17  C         26.6490  -21.1320  -13.1350 C.2     1  UNL1        0.0090
     18  C         25.3320  -21.3580  -13.5880 C.2     1  UNL1       -0.0220
     19  C         25.0880  -21.3350  -15.0920 C.3     1  UNL1        0.3110
     20  N         25.7920  -22.4180  -15.8090 N.3     1  UNL1        0.0920
     21  C         24.9730  -23.6340  -15.9270 C.3     1  UNL1        0.2730
     22  C         24.1050  -23.4410  -17.1630 C.3     1  UNL1        0.0320
     23  C         24.8080  -22.3680  -17.9810 C.3     1  UNL1        0.0320
     24  C         26.0750  -22.0480  -17.2020 C.3     1  UNL1        0.2730
     25  S         16.4800  -22.9270   -8.9700 S.O2    1  UNL1        0.2630
     26  O         15.9460  -22.3800  -10.2020 O.2     1  UNL1       -0.2000
     27  O         15.9600  -24.1700   -8.4400 O.2     1  UNL1       -0.2000
     28  N         16.3450  -21.7780   -7.7440 N.pl3   1  UNL1       -0.2800
     29  H         15.8530  -20.9400   -8.0400 H       1  UNL1        0.1790
     30  C         16.2820  -22.1780   -6.3750 C.2     1  UNL1        0.0490
     31  C         15.1100  -22.7740   -5.8980 C.2     1  UNL1        0.0310
     32  C         14.9960  -23.1410   -4.5620 C.2     1  UNL1        0.0030
     33  C         16.0570  -22.9130   -3.6910 C.2     1  UNL1        0.0070
     34  C         17.2500  -22.3260   -4.1450 C.2     1  UNL1       -0.0540
     35  C         18.3730  -22.1390   -3.1540 C.3     1  UNL1        0.0490
     36  C         17.3800  -21.9710   -5.5100 C.2     1  UNL1       -0.0290
     37  C         18.6500  -21.3250   -6.0080 C.3     1  UNL1        0.0510
@<TRIPOS>BOND
     1    23    24    1
     2    23    22    1
     3    24    20    1
     4    22    21    1
     5    21    20    1
     6    20    19    1
     7    19    18    1
     8    18    17    1
     9    18    13    2
    10    17    16    2
    11    12    13    1
    12    12    10    1
    13    13    14    1
    14    10     8   am
    15    10    11    1
    16     9     8    2
    17    16    15    1
    18     8     5    1
    19    14    15    2
    20     5     6    2
    21     5     4    1
    22     6     7    1
    23    26    25    2
    24     4     3    2
    25     7    25    1
    26     7     2    2
    27    25    27    2
    28    25    28    1
    29     3     2    1
    30     2     1    1
    31    29    28    1
    32    28    30    1
    33    30    31    2
    34    30    36    1
    35    37    36    1
    36    31    32    1
    37    36    34    2
    38    32    33    2
    39    34    33    1
    40    34    35    1
