@<TRIPOS>MOLECULE
20156_out_ligand_01.pdbqt
 34 38 0 0 0
SMALL
GASTEIGER

@<TRIPOS>ATOM
      1  C         22.0750  -23.1300  -10.1790 C.2     1  UNL1        0.0320
      2  C         21.3060  -22.1590  -10.8330 C.2     1  UNL1        0.0170
      3  C         19.9250  -22.1010  -10.6200 C.2     1  UNL1        0.0100
      4  C         19.2870  -23.0220   -9.7740 C.2     1  UNL1       -0.0300
      5  C         20.0630  -23.9910   -9.1230 C.2     1  UNL1        0.0100
      6  C         21.4460  -24.0470   -9.3290 C.2     1  UNL1        0.0170
      7  C         23.5500  -23.2380  -10.3710 C.2     1  UNL1        0.2510
      8  O         24.2920  -23.3170   -9.3980 O.2     1  UNL1       -0.2680
      9  N         24.0040  -23.2140  -11.6710 N.am    1  UNL1       -0.3530
     10  H         23.3690  -23.0000  -12.4250 H       1  UNL1        0.1630
     11  C         25.4100  -23.2990  -11.9960 C.3     1  UNL1        0.1620
     12  C         25.9150  -21.9470  -12.4460 C.2     1  UNL1       -0.0330
     13  C         25.9360  -20.9160  -11.4840 C.2     1  UNL1        0.0090
     14  C         26.4450  -19.6530  -11.7860 C.2     1  UNL1        0.0010
     15  C         26.9600  -19.4030  -13.0510 C.2     1  UNL1        0.0010
     16  C         26.9600  -20.4160  -14.0120 C.2     1  UNL1        0.0090
     17  C         26.4300  -21.6940  -13.7380 C.2     1  UNL1       -0.0220
     18  C         26.4630  -22.7350  -14.8430 C.3     1  UNL1        0.3110
     19  N         25.5300  -22.5700  -15.9550 N.3     1  UNL1        0.0920
     20  C         24.8340  -23.7680  -16.4010 C.3     1  UNL1        0.2730
     21  C         24.0760  -23.2620  -17.6200 C.3     1  UNL1        0.0320
     22  C         24.9110  -22.1010  -18.1530 C.3     1  UNL1        0.0320
     23  C         26.0570  -21.9410  -17.1600 C.3     1  UNL1        0.2730
     24  C         17.7890  -22.9550   -9.5440 C.3     1  UNL1        0.3110
     25  N         17.3970  -23.2570   -8.1580 N.3     1  UNL1        0.0970
     26  C         15.9330  -23.2860   -8.0240 C.3     1  UNL1        0.2770
     27  C         15.5310  -23.8220   -6.6430 C.3     1  UNL1        0.0690
     28  C         16.2780  -23.1480   -5.5200 C.2     1  UNL1       -0.0490
     29  C         15.8310  -23.2760   -4.1990 C.2     1  UNL1        0.0070
     30  C         17.4650  -22.4430   -5.7930 C.2     1  UNL1       -0.0240
     31  C         16.5440  -22.6870   -3.1550 C.2     1  UNL1        0.0010
     32  C         17.7090  -21.9710   -3.4220 C.2     1  UNL1        0.0010
     33  C         18.1650  -21.8460   -4.7340 C.2     1  UNL1        0.0090
     34  C         17.9540  -22.2640   -7.2160 C.3     1  UNL1        0.3110
@<TRIPOS>BOND
     1    22    21    1
     2    22    23    1
     3    21    20    1
     4    23    19    1
     5    20    19    1
     6    19    18    1
     7    18    17    1
     8    16    17    1
     9    16    15    2
    10    17    12    2
    11    15    14    1
    12    12    11    1
    13    12    13    1
    14    10     9    1
    15    11     9    1
    16    14    13    2
    17     9     7   am
    18     2     3    1
    19     2     1    2
    20     3     4    2
    21     7     1    1
    22     7     8    2
    23     1     6    1
    24     4    24    1
    25     4     5    1
    26    24    25    1
    27     6     5    2
    28    25    26    1
    29    25    34    1
    30    26    27    1
    31    34    30    1
    32    27    28    1
    33    30    28    2
    34    30    33    1
    35    28    29    1
    36    33    32    2
    37    29    31    2
    38    32    31    1
