@<TRIPOS>MOLECULE
20151_out_ligand_01.pdbqt
 37 40 0 0 0
SMALL
GASTEIGER

@<TRIPOS>ATOM
      1  C         18.9080  -22.4340  -10.0820 C.2     1  UNL1        0.0810
      2  C         20.2350  -22.8830   -9.9740 C.2     1  UNL1        0.0420
      3  C         21.2150  -22.3960  -10.8450 C.2     1  UNL1        0.0330
      4  C         20.8670  -21.4310  -11.7930 C.2     1  UNL1        0.0170
      5  C         19.5490  -20.9840  -11.9010 C.2     1  UNL1        0.0090
      6  C         18.5440  -21.4830  -11.0550 C.2     1  UNL1       -0.0390
      7  C         17.1350  -20.9930  -11.2510 C.3     1  UNL1        0.0500
      8  C         22.6320  -22.8620  -10.7990 C.2     1  UNL1        0.2510
      9  O         23.1320  -23.1760   -9.7260 O.2     1  UNL1       -0.2680
     10  N         23.3150  -22.8780  -11.9960 N.am    1  UNL1       -0.3530
     11  H         22.9070  -22.4740  -12.8240 H       1  UNL1        0.1630
     12  C         24.7310  -23.1880  -12.0580 C.3     1  UNL1        0.1620
     13  C         25.6100  -21.9790  -12.3290 C.2     1  UNL1       -0.0330
     14  C         25.6770  -20.9230  -11.3980 C.2     1  UNL1        0.0090
     15  C         26.4320  -19.7780  -11.6540 C.2     1  UNL1        0.0010
     16  C         27.1200  -19.6530  -12.8540 C.2     1  UNL1        0.0010
     17  C         27.0580  -20.6790  -13.7950 C.2     1  UNL1        0.0090
     18  C         26.3080  -21.8460  -13.5530 C.2     1  UNL1       -0.0220
     19  C         26.2850  -22.9220  -14.6230 C.3     1  UNL1        0.3110
     20  N         25.6070  -22.4890  -15.8490 N.3     1  UNL1        0.0920
     21  C         26.5180  -22.3260  -16.9810 C.3     1  UNL1        0.2730
     22  C         25.5570  -22.2410  -18.1530 C.3     1  UNL1        0.0320
     23  C         24.4210  -23.1810  -17.7740 C.3     1  UNL1        0.0320
     24  C         24.6100  -23.4670  -16.2890 C.3     1  UNL1        0.2730
     25  S         17.7010  -23.1570   -8.9750 S.O2    1  UNL1        0.2460
     26  O         18.3970  -24.1250   -8.1490 O.2     1  UNL1       -0.2060
     27  O         16.5440  -23.5230   -9.7600 O.2     1  UNL1       -0.2060
     28  N         17.3450  -21.8350   -7.9560 N.pl3   1  UNL1       -0.1810
     29  H         18.1290  -21.1820   -8.0190 H       1  UNL1        0.1460
     30  C         17.1220  -22.2130   -6.5890 C.2     1  UNL1        0.0230
     31  C         17.9490  -21.6920   -5.5960 C.2     1  UNL1        0.0310
     32  C         17.7170  -22.0060   -4.2520 C.2     1  UNL1       -0.0600
     33  C         16.6350  -22.8340   -3.9200 C.2     1  UNL1        0.0130
     34  C         18.5920  -21.4460   -3.1700 C.3     1  UNL1        0.0480
     35  C         15.7920  -23.3500   -4.9130 C.2     1  UNL1       -0.0600
     36  C         14.6000  -24.1820   -4.5370 C.3     1  UNL1        0.0480
     37  C         16.0330  -23.0210   -6.2520 C.2     1  UNL1        0.0310
@<TRIPOS>BOND
     1    22    23    1
     2    22    21    1
     3    23    24    1
     4    21    20    1
     5    24    20    1
     6    20    19    1
     7    19    18    1
     8    17    18    1
     9    17    16    2
    10    18    13    2
    11    16    15    1
    12    11    10    1
    13    13    12    1
    14    13    14    1
    15    12    10    1
    16    10     8   am
    17     5     4    2
    18     5     6    1
    19     4     3    1
    20    15    14    2
    21     7     6    1
    22     6     1    2
    23     3     8    1
    24     3     2    2
    25     8     9    2
    26     1     2    1
    27     1    25    1
    28    27    25    2
    29    25    26    2
    30    25    28    1
    31    29    28    1
    32    28    30    1
    33    30    37    2
    34    30    31    1
    35    37    35    1
    36    31    32    2
    37    35    36    1
    38    35    33    2
    39    32    33    1
    40    32    34    1
