@<TRIPOS>MOLECULE
20152_out_ligand_01.pdbqt
 37 40 0 0 0
SMALL
GASTEIGER

@<TRIPOS>ATOM
      1  C         18.9910  -22.4590  -10.1500 C.2     1  UNL1        0.0810
      2  C         20.3340  -22.8720  -10.1390 C.2     1  UNL1        0.0420
      3  C         21.2480  -22.3040  -11.0300 C.2     1  UNL1        0.0330
      4  C         20.8210  -21.3360  -11.9440 C.2     1  UNL1        0.0170
      5  C         19.4870  -20.9210  -11.9510 C.2     1  UNL1        0.0090
      6  C         18.5500  -21.4720  -11.0600 C.2     1  UNL1       -0.0390
      7  C         17.1420  -20.9520  -11.1090 C.3     1  UNL1        0.0500
      8  C         22.6640  -22.7610  -10.9930 C.2     1  UNL1        0.2510
      9  O         23.1670  -23.1090   -9.9340 O.2     1  UNL1       -0.2680
     10  N         23.3270  -22.7290  -12.2030 N.am    1  UNL1       -0.3530
     11  H         22.9140  -22.1930  -12.9500 H       1  UNL1        0.1630
     12  C         24.7570  -22.9470  -12.2860 C.3     1  UNL1        0.1620
     13  C         25.4840  -21.6310  -12.4420 C.2     1  UNL1       -0.0330
     14  C         26.0610  -21.0650  -11.2900 C.2     1  UNL1        0.0090
     15  C         26.6920  -19.8230  -11.3330 C.2     1  UNL1        0.0010
     16  C         26.7470  -19.1170  -12.5280 C.2     1  UNL1        0.0010
     17  C         26.1740  -19.6570  -13.6790 C.2     1  UNL1        0.0090
     18  C         25.5540  -20.9240  -13.6680 C.2     1  UNL1       -0.0220
     19  C         24.9070  -21.4370  -14.9480 C.3     1  UNL1        0.3110
     20  N         25.7600  -22.3510  -15.7360 N.3     1  UNL1        0.0920
     21  C         25.1050  -23.6490  -15.9760 C.3     1  UNL1        0.2730
     22  C         24.2150  -23.4540  -17.1960 C.3     1  UNL1        0.0320
     23  C         24.7930  -22.2500  -17.9250 C.3     1  UNL1        0.0320
     24  C         25.9920  -21.8230  -17.0880 C.3     1  UNL1        0.2730
     25  S         17.8950  -23.1930   -8.9410 S.O2    1  UNL1        0.2460
     26  O         16.6550  -23.5400   -9.6020 O.2     1  UNL1       -0.2060
     27  O         18.6490  -24.1830   -8.2030 O.2     1  UNL1       -0.2060
     28  N         17.6570  -21.8940   -7.8700 N.pl3   1  UNL1       -0.1810
     29  H         18.4550  -21.2650   -7.9730 H       1  UNL1        0.1460
     30  C         17.3910  -22.2310   -6.5030 C.2     1  UNL1        0.0290
     31  C         18.2560  -21.8140   -5.4830 C.2     1  UNL1       -0.0400
     32  C         17.9290  -22.1360   -4.1580 C.2     1  UNL1        0.0090
     33  C         19.4830  -20.9940   -5.7580 C.3     1  UNL1        0.0500
     34  C         16.7780  -22.8710   -3.8610 C.2     1  UNL1        0.0070
     35  C         15.9250  -23.2990   -4.8820 C.2     1  UNL1       -0.0600
     36  C         14.6740  -24.0600   -4.5510 C.3     1  UNL1        0.0480
     37  C         16.2370  -22.9690   -6.2050 C.2     1  UNL1        0.0310
@<TRIPOS>BOND
     1    23    22    1
     2    23    24    1
     3    22    21    1
     4    24    20    1
     5    21    20    1
     6    20    19    1
     7    19    18    1
     8    17    18    1
     9    17    16    2
    10    18    13    2
    11    11    10    1
    12    16    15    1
    13    13    12    1
    14    13    14    1
    15    12    10    1
    16    10     8   am
    17     5     4    2
    18     5     6    1
    19     4     3    1
    20    15    14    2
    21     7     6    1
    22     6     1    2
    23     3     8    1
    24     3     2    2
    25     8     9    2
    26     1     2    1
    27     1    25    1
    28    26    25    2
    29    25    27    2
    30    25    28    1
    31    29    28    1
    32    28    30    1
    33    30    37    2
    34    30    31    1
    35    37    35    1
    36    33    31    1
    37    31    32    2
    38    35    36    1
    39    35    34    2
    40    32    34    1
