@<TRIPOS>MOLECULE
20160_out_ligand_01.pdbqt
 37 40 0 0 0
SMALL
GASTEIGER

@<TRIPOS>ATOM
      1  C         19.1950  -22.5040  -10.1370 C.2     1  UNL1        0.0970
      2  C         20.5220  -22.9600  -10.0690 C.2     1  UNL1        0.0430
      3  C         21.4860  -22.4550  -10.9490 C.2     1  UNL1        0.0330
      4  C         21.1280  -21.4790  -11.8830 C.2     1  UNL1        0.0190
      5  C         19.8050  -21.0320  -11.9510 C.2     1  UNL1        0.0260
      6  C         18.8310  -21.5420  -11.0830 C.2     1  UNL1        0.0570
      7 CL         17.2420  -20.8920  -11.2500 Cl      1  UNL1       -0.0830
      8  C         22.8850  -22.9390  -10.8180 C.2     1  UNL1        0.2510
      9  O         23.3190  -23.2340   -9.7110 O.2     1  UNL1       -0.2680
     10  N         23.6100  -23.0310  -11.9850 N.am    1  UNL1       -0.3530
     11  H         23.2000  -22.7620  -12.8640 H       1  UNL1        0.1630
     12  C         25.0340  -23.2810  -11.9690 C.3     1  UNL1        0.1620
     13  C         25.7860  -22.0040  -12.2640 C.2     1  UNL1       -0.0330
     14  C         25.7930  -21.0110  -11.2650 C.2     1  UNL1        0.0090
     15  C         26.4570  -19.8000  -11.4550 C.2     1  UNL1        0.0010
     16  C         27.1210  -19.5580  -12.6490 C.2     1  UNL1        0.0010
     17  C         27.1100  -20.5230  -13.6570 C.2     1  UNL1        0.0090
     18  C         26.4310  -21.7480  -13.4960 C.2     1  UNL1       -0.0220
     19  C         26.4840  -22.7580  -14.6320 C.3     1  UNL1        0.3110
     20  N         25.4820  -22.5180  -15.6770 N.3     1  UNL1        0.0920
     21  C         26.0640  -21.9010  -16.8690 C.3     1  UNL1        0.2730
     22  C         24.9550  -22.0530  -17.8970 C.3     1  UNL1        0.0320
     23  C         24.1920  -23.3020  -17.4720 C.3     1  UNL1        0.0320
     24  C         24.8290  -23.7360  -16.1580 C.3     1  UNL1        0.2730
     25  S         18.0140  -23.1850   -9.0000 S.O2    1  UNL1        0.2470
     26  O         18.7110  -24.1560   -8.1810 O.2     1  UNL1       -0.2050
     27  O         16.8420  -23.5540   -9.7610 O.2     1  UNL1       -0.2050
     28  N         17.7150  -21.8450   -7.9880 N.pl3   1  UNL1       -0.1810
     29  H         18.5520  -21.2620   -7.9880 H       1  UNL1        0.1460
     30  C         17.3160  -22.1820   -6.6470 C.2     1  UNL1        0.0290
     31  C         18.1090  -21.8400   -5.5380 C.2     1  UNL1       -0.0400
     32  C         17.6630  -22.2030   -4.2580 C.2     1  UNL1        0.0090
     33  C         19.4060  -21.0920   -5.6700 C.3     1  UNL1        0.0500
     34  C         16.4640  -22.9000   -4.0850 C.2     1  UNL1        0.0070
     35  C         15.6900  -23.2590   -5.1900 C.2     1  UNL1       -0.0600
     36  C         14.3880  -23.9840   -5.0120 C.3     1  UNL1        0.0480
     37  C         16.1180  -22.8840   -6.4680 C.2     1  UNL1        0.0310
@<TRIPOS>BOND
     1    22    23    1
     2    22    21    1
     3    23    24    1
     4    21    20    1
     5    24    20    1
     6    20    19    1
     7    19    18    1
     8    17    18    1
     9    17    16    2
    10    18    13    2
    11    11    10    1
    12    16    15    1
    13    13    12    1
    14    13    14    1
    15    10    12    1
    16    10     8   am
    17     5     4    2
    18     5     6    1
    19     4     3    1
    20    15    14    2
    21     7     6    1
    22     6     1    2
    23     3     8    1
    24     3     2    2
    25     8     9    2
    26     1     2    1
    27     1    25    1
    28    27    25    2
    29    25    26    2
    30    25    28    1
    31    28    29    1
    32    28    30    1
    33    30    37    2
    34    30    31    1
    35    37    35    1
    36    33    31    1
    37    31    32    2
    38    35    36    1
    39    35    34    2
    40    32    34    1
