@<TRIPOS>MOLECULE
20162_out_ligand_01.pdbqt
 34 37 0 0 0
SMALL
GASTEIGER

@<TRIPOS>ATOM
      1  C         19.3390  -22.0850   -6.1340 C.2     1  UNL1        0.0330
      2  C         19.5280  -20.8680   -5.4640 C.2     1  UNL1        0.0170
      3  C         18.8100  -20.5930   -4.2980 C.2     1  UNL1        0.0030
      4  C         17.9080  -21.5320   -3.7970 C.2     1  UNL1        0.0240
      5  C         17.7230  -22.7460   -4.4590 C.2     1  UNL1        0.0230
      6  C         18.4470  -23.0350   -5.6150 C.2     1  UNL1        0.0410
      7  C         20.0790  -22.4250   -7.3800 C.2     1  UNL1        0.2510
      8  O         21.2200  -22.0100   -7.5480 O.2     1  UNL1       -0.2680
      9  N         19.4230  -23.2430   -8.2770 N.am    1  UNL1       -0.3530
     10  H         18.6050  -23.7450   -7.9660 H       1  UNL1        0.1630
     11  C         20.0890  -23.7600   -9.4520 C.3     1  UNL1        0.1620
     12  C         20.1220  -22.7210  -10.5480 C.2     1  UNL1       -0.0330
     13  C         18.9200  -22.0430  -10.8350 C.2     1  UNL1        0.0090
     14  C         18.8690  -21.0310  -11.7910 C.2     1  UNL1        0.0010
     15  C         20.0250  -20.6660  -12.4700 C.2     1  UNL1        0.0010
     16  C         21.2270  -21.3180  -12.1940 C.2     1  UNL1        0.0090
     17  C         21.2990  -22.3550  -11.2430 C.2     1  UNL1       -0.0220
     18  C         22.6480  -23.0080  -10.9970 C.3     1  UNL1        0.3110
     19  N         23.8430  -22.2850  -11.4260 N.3     1  UNL1        0.0920
     20  C         24.5510  -21.5260  -10.4020 C.3     1  UNL1        0.2730
     21  C         25.8350  -21.1050  -11.1080 C.3     1  UNL1        0.0320
     22  C         25.9730  -22.0510  -12.2960 C.3     1  UNL1        0.0320
     23  C         24.8610  -23.0710  -12.1110 C.3     1  UNL1        0.2730
     24  N         16.8270  -23.7230   -3.9080 N.pl3   1  UNL1       -0.1810
     25  H         16.8050  -23.6650   -2.8880 H       1  UNL1        0.1460
     26  S         15.2110  -23.5640   -4.4440 S.O2    1  UNL1        0.2450
     27  O         14.6780  -22.2800   -4.0480 O.2     1  UNL1       -0.2060
     28  O         14.5470  -24.8080   -4.1250 O.2     1  UNL1       -0.2060
     29  C         15.4620  -23.5100   -6.2020 C.2     1  UNL1        0.0740
     30  C         15.6680  -24.7070   -6.8950 C.2     1  UNL1        0.0250
     31  C         15.8760  -24.6760   -8.2740 C.2     1  UNL1        0.0020
     32  C         15.8830  -23.4560   -8.9510 C.2     1  UNL1        0.0000
     33  C         15.6870  -22.2630   -8.2520 C.2     1  UNL1        0.0020
     34  C         15.4790  -22.2850   -6.8720 C.2     1  UNL1        0.0250
@<TRIPOS>BOND
     1    15    16    2
     2    15    14    1
     3    22    23    1
     4    22    21    1
     5    16    17    1
     6    23    19    1
     7    14    13    2
     8    19    18    1
     9    19    20    1
    10    17    18    1
    11    17    12    2
    12    21    20    1
    13    13    12    1
    14    12    11    1
    15    11     9    1
    16    32    31    2
    17    32    33    1
    18     9    10    1
    19     9     7   am
    20    31    30    1
    21    33    34    2
    22     8     7    2
    23     7     1    1
    24    30    29    2
    25    34    29    1
    26    29    26    1
    27     1     6    2
    28     1     2    1
    29     6     5    1
    30     2     3    2
    31     5    24    1
    32     5     4    2
    33    26    28    2
    34    26    27    2
    35    26    24    1
    36     3     4    1
    37    24    25    1
