@<TRIPOS>MOLECULE
20167_out_ligand_01.pdbqt
 36 39 0 0 0
SMALL
GASTEIGER

@<TRIPOS>ATOM
      1  C         17.8610  -22.6350   -4.2990 C.2     1  UNL1        0.0230
      2  C         17.9950  -21.3890   -3.6880 C.2     1  UNL1        0.0240
      3  C         18.8210  -20.4170   -4.2540 C.2     1  UNL1        0.0030
      4  C         19.5170  -20.6890   -5.4350 C.2     1  UNL1        0.0170
      5  C         19.3750  -21.9360   -6.0610 C.2     1  UNL1        0.0330
      6  C         18.5450  -22.9100   -5.4850 C.2     1  UNL1        0.0410
      7  C         20.1080  -22.2940   -7.3070 C.2     1  UNL1        0.2510
      8  O         21.2210  -21.8190   -7.5080 O.2     1  UNL1       -0.2680
      9  N         19.4790  -23.1670   -8.1650 N.am    1  UNL1       -0.3530
     10  H         18.6200  -23.6220   -7.9030 H       1  UNL1        0.1630
     11  C         20.1200  -23.6470   -9.3730 C.3     1  UNL1        0.1620
     12  C         20.1540  -22.6400  -10.5130 C.2     1  UNL1       -0.0330
     13  C         19.0010  -21.9320  -10.9020 C.2     1  UNL1        0.0090
     14  C         19.0420  -20.9810  -11.9240 C.2     1  UNL1        0.0010
     15  C         20.2390  -20.7130  -12.5770 C.2     1  UNL1        0.0010
     16  C         21.3940  -21.3990  -12.2100 C.2     1  UNL1        0.0090
     17  C         21.3740  -22.3580  -11.1790 C.2     1  UNL1       -0.0220
     18  C         22.6750  -23.0670  -10.8290 C.3     1  UNL1        0.3110
     19  N         23.8610  -22.4080  -11.3930 N.3     1  UNL1        0.0920
     20  C         24.6970  -23.3120  -12.2020 C.3     1  UNL1        0.2720
     21  C         26.1290  -23.4740  -11.6910 C.3     1  UNL1        0.0300
     22  C         26.8240  -22.1290  -11.4840 C.3     1  UNL1        0.0030
     23  C         25.8740  -21.0620  -10.9420 C.3     1  UNL1        0.0300
     24  C         24.5980  -21.6680  -10.3630 C.3     1  UNL1        0.2720
     25  N         17.0380  -23.6510   -3.7020 N.pl3   1  UNL1       -0.1810
     26  H         17.3700  -24.5850   -3.9660 H       1  UNL1        0.1460
     27  S         15.3880  -23.6010   -4.1400 S.O2    1  UNL1        0.2450
     28  O         14.7480  -24.8670   -3.8650 O.2     1  UNL1       -0.2060
     29  O         14.8720  -22.3480   -3.6310 O.2     1  UNL1       -0.2060
     30  C         15.5380  -23.4660   -5.9060 C.2     1  UNL1        0.0740
     31  C         15.7760  -24.6260   -6.6500 C.2     1  UNL1        0.0250
     32  C         15.9090  -24.5380   -8.0360 C.2     1  UNL1        0.0080
     33  C         15.8110  -23.2950   -8.6810 C.2     1  UNL1       -0.0620
     34  C         15.9260  -23.2170  -10.1760 C.3     1  UNL1        0.0480
     35  C         15.5500  -22.1440   -7.9230 C.2     1  UNL1        0.0080
     36  C         15.4170  -22.2240   -6.5350 C.2     1  UNL1        0.0250
@<TRIPOS>BOND
     1    15    16    2
     2    15    14    1
     3    16    17    1
     4    20    21    1
     5    20    19    1
     6    14    13    2
     7    21    22    1
     8    22    23    1
     9    19    18    1
    10    19    24    1
    11    17    18    1
    12    17    12    2
    13    23    24    1
    14    13    12    1
    15    12    11    1
    16    34    33    1
    17    11     9    1
    18    33    32    2
    19    33    35    1
    20     9    10    1
    21     9     7   am
    22    32    31    1
    23    35    36    2
    24     8     7    2
    25     7     5    1
    26    31    30    2
    27    36    30    1
    28     5     6    1
    29     5     4    2
    30    30    27    1
    31     6     1    2
    32     4     3    1
    33     1    25    1
    34     1     2    1
    35     3     2    2
    36    27    28    2
    37    27    25    1
    38    27    29    2
    39    26    25    1
