@<TRIPOS>MOLECULE
20184_out_ligand_01.pdbqt
 38 41 0 0 0
SMALL
GASTEIGER

@<TRIPOS>ATOM
      1  C         17.7210  -23.4640   -8.8560 C.2     1  UNL1        0.1020
      2  C         18.3880  -22.7340   -9.8550 C.2     1  UNL1        0.0440
      3  C         19.7820  -22.8010   -9.9750 C.2     1  UNL1        0.0330
      4  C         20.5110  -23.6150   -9.1040 C.2     1  UNL1        0.0190
      5  C         19.8480  -24.3240   -8.0970 C.2     1  UNL1        0.0260
      6  C         18.4560  -24.2450   -7.9600 C.2     1  UNL1        0.0570
      7 CL         17.7720  -25.1040   -6.6290 Cl      1  UNL1       -0.0830
      8  C         20.4380  -22.0130  -11.0560 C.2     1  UNL1        0.2510
      9  O         19.8980  -20.9980  -11.4780 O.2     1  UNL1       -0.2680
     10  N         21.6590  -22.4740  -11.4950 N.am    1  UNL1       -0.3530
     11  H         22.1470  -23.1960  -10.9820 H       1  UNL1        0.1630
     12  C         22.4170  -21.7870  -12.5240 C.3     1  UNL1        0.1620
     13  C         23.9150  -21.9130  -12.3370 C.2     1  UNL1       -0.0330
     14  C         24.4100  -22.4930  -11.1480 C.2     1  UNL1        0.0090
     15  C         25.7800  -22.6170  -10.9080 C.2     1  UNL1        0.0010
     16  C         26.6890  -22.1540  -11.8470 C.2     1  UNL1        0.0010
     17  C         26.2260  -21.5480  -13.0140 C.2     1  UNL1        0.0090
     18  C         24.8450  -21.3960  -13.2700 C.2     1  UNL1       -0.0220
     19  C         24.4460  -20.6810  -14.5550 C.3     1  UNL1        0.3110
     20  N         24.9880  -21.3130  -15.7690 N.3     1  UNL1        0.0920
     21  C         24.8290  -20.4810  -16.9630 C.3     1  UNL1        0.2720
     22  C         25.6590  -21.0580  -18.1160 C.3     1  UNL1        0.0300
     23  C         25.6630  -22.5880  -18.1530 C.3     1  UNL1        0.0030
     24  C         24.4640  -23.1550  -17.4090 C.3     1  UNL1        0.0300
     25  C         24.4070  -22.6520  -15.9610 C.3     1  UNL1        0.2720
     26  S         15.9580  -23.3550   -8.7250 S.O2    1  UNL1        0.2650
     27  O         15.5090  -24.6690   -8.3080 O.2     1  UNL1       -0.2000
     28  O         15.4250  -22.7120   -9.9060 O.2     1  UNL1       -0.2000
     29  N         15.6640  -22.3560   -7.4170 N.pl3   1  UNL1       -0.2800
     30  H         14.7720  -21.8690   -7.4730 H       1  UNL1        0.1790
     31  C         16.5270  -22.1270   -6.3010 C.2     1  UNL1        0.0490
     32  C         16.1060  -22.5720   -5.0310 C.2     1  UNL1       -0.0350
     33  C         16.9360  -22.3630   -3.9170 C.2     1  UNL1        0.0090
     34  C         14.7920  -23.2760   -4.8200 C.3     1  UNL1        0.0500
     35  C         18.1660  -21.7220   -4.0510 C.2     1  UNL1        0.0070
     36  C         18.5850  -21.2620   -5.3000 C.2     1  UNL1       -0.0600
     37  C         19.9190  -20.5940   -5.4550 C.3     1  UNL1        0.0480
     38  C         17.7650  -21.4810   -6.4190 C.2     1  UNL1        0.0370
@<TRIPOS>BOND
     1    23    22    1
     2    23    24    1
     3    22    21    1
     4    24    25    1
     5    21    20    1
     6    25    20    1
     7    20    19    1
     8    19    18    1
     9    18    17    1
    10    18    13    2
    11    17    16    2
    12    12    13    1
    13    12    10    1
    14    13    14    1
    15    16    15    1
    16    10     8   am
    17    10    11    1
    18     9     8    2
    19    14    15    2
    20     8     3    1
    21     3     2    1
    22     3     4    2
    23    28    26    2
    24     2     1    2
    25     4     5    1
    26     1    26    1
    27     1     6    1
    28    26    27    2
    29    26    29    1
    30     5     6    2
    31     6     7    1
    32    30    29    1
    33    29    31    1
    34    38    31    2
    35    38    36    1
    36    31    32    1
    37    37    36    1
    38    36    35    2
    39    32    34    1
    40    32    33    2
    41    35    33    1
