@<TRIPOS>MOLECULE
20204_out_ligand_01.pdbqt
 34 38 0 0 0
SMALL
GASTEIGER

@<TRIPOS>ATOM
      1  C         21.5000  -21.8930  -11.4390 C.2     1  UNL1        0.0320
      2  C         22.5820  -22.6630  -10.9970 C.2     1  UNL1        0.0170
      3  C         23.7130  -22.8090  -11.8070 C.2     1  UNL1        0.0100
      4  C         23.7770  -22.1930  -13.0660 C.2     1  UNL1       -0.0300
      5  C         22.6750  -21.4440  -13.5090 C.2     1  UNL1        0.0100
      6  C         21.5430  -21.2980  -12.7040 C.2     1  UNL1        0.0170
      7  C         20.2770  -21.7110  -10.6080 C.2     1  UNL1        0.2560
      8  N         20.2860  -22.3920   -9.4040 N.am    1  UNL1       -0.3230
      9  H         21.1490  -22.8530   -9.1480 H       1  UNL1        0.1690
     10  O         19.3980  -20.9660  -11.0240 O.2     1  UNL1       -0.2670
     11  C         19.2560  -22.4350   -8.4400 C.2     1  UNL1        0.0360
     12  C         19.4350  -22.1130   -7.0940 C.2     1  UNL1        0.0510
     13  C         18.3430  -22.1870   -6.2360 C.ar    1  UNL1        0.0390
     14  S         18.3420  -21.8270   -4.5050 S.2     1  UNL1       -0.0270
     15  C         17.0730  -22.5680   -6.6730 C.ar    1  UNL1        0.0550
     16  C         16.6180  -22.1970   -4.3830 C.ar    1  UNL1        0.2910
     17  N         16.1120  -22.5720   -5.6300 N.ar    1  UNL1       -0.3030
     18  O         16.0040  -22.1170   -3.3290 O.2     1  UNL1       -0.2590
     19  C         16.8870  -22.8840   -8.0090 C.2     1  UNL1        0.0330
     20  C         17.9780  -22.8140   -8.8870 C.2     1  UNL1        0.0320
     21  C         14.7010  -22.9220   -5.7700 C.3     1  UNL1        0.0860
     22  C         14.2990  -24.1410   -4.9370 C.3     1  UNL1        0.0320
     23  C         13.7610  -21.7320   -5.5750 C.3     1  UNL1        0.0320
     24  C         25.0020  -22.3510  -13.9450 C.3     1  UNL1        0.3110
     25  N         25.2320  -21.3170  -14.9580 N.3     1  UNL1        0.0970
     26  C         25.7730  -21.8210  -16.2230 C.3     1  UNL1        0.2770
     27  C         25.6300  -20.7600  -17.3230 C.3     1  UNL1        0.0690
     28  C         26.1040  -19.3970  -16.8860 C.2     1  UNL1       -0.0490
     29  C         26.3430  -18.3970  -17.8370 C.2     1  UNL1        0.0070
     30  C         26.2450  -19.1100  -15.5170 C.2     1  UNL1       -0.0240
     31  C         26.7460  -17.1240  -17.4330 C.2     1  UNL1        0.0010
     32  C         26.9070  -16.8410  -16.0790 C.2     1  UNL1        0.0010
     33  C         26.6610  -17.8280  -15.1250 C.2     1  UNL1        0.0090
     34  C         26.0280  -20.1840  -14.4700 C.3     1  UNL1        0.3110
@<TRIPOS>BOND
     1    29    31    1
     2    29    28    2
     3    31    32    2
     4    27    28    1
     5    27    26    1
     6    28    30    1
     7    26    25    1
     8    32    33    1
     9    30    33    2
    10    30    34    1
    11    25    34    1
    12    25    24    1
    13    24     4    1
    14     5     4    2
    15     5     6    1
    16     4     3    1
    17     6     1    2
    18     3     2    2
    19     1     2    1
    20     1     7    1
    21    10     7    2
    22     7     8   am
    23     8     9    1
    24     8    11    1
    25    20    11    2
    26    20    19    1
    27    11    12    1
    28    19    15    2
    29    12    13    2
    30    15    13   ar
    31    15    17   ar
    32    13    14   ar
    33    21    17    1
    34    21    23    1
    35    21    22    1
    36    17    16   ar
    37    14    16   ar
    38    16    18    2
