@<TRIPOS>MOLECULE
20211_out_ligand_01.pdbqt
 35 38 0 0 0
SMALL
GASTEIGER

@<TRIPOS>ATOM
      1  C         18.2410  -23.2260   -8.9570 C.2     1  UNL1        0.1020
      2  C         18.9250  -22.5270   -9.9720 C.2     1  UNL1        0.0440
      3  C         20.2950  -22.7300  -10.1780 C.2     1  UNL1        0.0340
      4  C         20.9790  -23.6620   -9.3950 C.2     1  UNL1        0.0190
      5  C         20.2980  -24.3610   -8.3950 C.2     1  UNL1        0.0260
      6  C         18.9290  -24.1480   -8.1660 C.2     1  UNL1        0.0570
      7 CL         18.2400  -25.0640   -6.8780 Cl      1  UNL1       -0.0830
      8  C         20.9740  -21.9670  -11.2630 C.2     1  UNL1        0.2560
      9  O         20.3250  -21.1200  -11.8610 O.2     1  UNL1       -0.2670
     10  N         22.3070  -22.2840  -11.4490 N.am    1  UNL1       -0.3230
     11  H         22.7350  -22.9100  -10.7800 H       1  UNL1        0.1690
     12  C         23.1800  -21.7580  -12.4240 C.2     1  UNL1        0.0350
     13  C         22.7860  -21.3730  -13.7010 C.2     1  UNL1        0.0320
     14  C         23.7240  -20.8690  -14.6180 C.2     1  UNL1        0.0310
     15  C         25.0820  -20.7400  -14.2970 C.2     1  UNL1        0.0300
     16  C         25.4570  -21.1350  -13.0020 C.2     1  UNL1        0.0310
     17  C         24.5270  -21.6380  -12.0810 C.2     1  UNL1        0.0320
     18  N         26.0410  -20.2390  -15.1820 N.pl3   1  UNL1       -0.3810
     19  C         25.6200  -20.1870  -16.5960 C.3     1  UNL1        0.1230
     20  C         26.5090  -19.2580  -17.4160 C.3     1  UNL1        0.0200
     21  C         26.5610  -17.8520  -16.8220 C.3     1  UNL1        0.0030
     22  C         26.6200  -17.8540  -15.2930 C.3     1  UNL1        0.0200
     23  C         27.0090  -19.2240  -14.7460 C.3     1  UNL1        0.1230
     24  S         16.5050  -22.9030   -8.7810 S.O2    1  UNL1        0.2650
     25  O         15.7870  -24.1240   -8.5030 O.2     1  UNL1       -0.2000
     26  O         16.1090  -22.0830   -9.9100 O.2     1  UNL1       -0.2000
     27  N         16.4580  -21.8660   -7.4670 N.pl3   1  UNL1       -0.2800
     28  H         16.1780  -20.9090   -7.6760 H       1  UNL1        0.1790
     29  C         16.3770  -22.3310   -6.1330 C.2     1  UNL1        0.0480
     30  C         15.1850  -22.8670   -5.6460 C.2     1  UNL1        0.0300
     31  C         15.0830  -23.2580   -4.3130 C.2     1  UNL1        0.0020
     32  C         16.1650  -23.0890   -3.4580 C.2     1  UNL1        0.0010
     33  C         17.3440  -22.5120   -3.9280 C.2     1  UNL1        0.0090
     34  C         17.4600  -22.1130   -5.2670 C.2     1  UNL1       -0.0350
     35  C         18.7410  -21.4980   -5.7460 C.3     1  UNL1        0.0500
@<TRIPOS>BOND
     1    20    21    1
     2    20    19    1
     3    21    22    1
     4    19    18    1
     5    22    23    1
     6    18    23    1
     7    18    15    1
     8    14    15    2
     9    14    13    1
    10    15    16    1
    11    13    12    2
    12    16    17    2
    13    12    17    1
    14    12    10    1
    15     9     8    2
    16    10     8   am
    17    10    11    1
    18     8     3    1
    19     3     2    1
    20     3     4    2
    21     2     1    2
    22    26    24    2
    23     4     5    1
    24     1    24    1
    25     1     6    1
    26    24    25    2
    27    24    27    1
    28     5     6    2
    29     6     7    1
    30    28    27    1
    31    27    29    1
    32    29    30    2
    33    29    34    1
    34    35    34    1
    35    30    31    1
    36    34    33    2
    37    31    32    2
    38    33    32    1
