@<TRIPOS>MOLECULE
20218_out_ligand_01.pdbqt
 35 38 0 0 0
SMALL
GASTEIGER

@<TRIPOS>ATOM
      1  C         18.1700  -23.2870   -8.8430 C.2     1  UNL1        0.0860
      2  C         18.8780  -22.5960   -9.8410 C.2     1  UNL1        0.0420
      3  C         20.2520  -22.7820   -9.9960 C.2     1  UNL1        0.0330
      4  C         20.9260  -23.6730   -9.1580 C.2     1  UNL1        0.0170
      5  C         20.2170  -24.3880   -8.1880 C.2     1  UNL1        0.0090
      6  C         18.8300  -24.2160   -8.0170 C.2     1  UNL1       -0.0390
      7  C         18.1490  -25.0300   -6.9540 C.3     1  UNL1        0.0500
      8  C         20.9710  -21.9630  -11.0110 C.2     1  UNL1        0.2560
      9  O         20.4540  -20.9140  -11.3660 O.2     1  UNL1       -0.2670
     10  N         22.1540  -22.5090  -11.4700 N.am    1  UNL1       -0.3230
     11  H         22.3570  -23.4620  -11.1980 H       1  UNL1        0.1690
     12  C         23.0850  -21.9120  -12.3440 C.2     1  UNL1        0.0350
     13  C         22.5900  -21.3360  -13.5160 C.2     1  UNL1        0.0310
     14  C         23.4590  -20.7470  -14.4420 C.2     1  UNL1        0.0260
     15  C         24.8460  -20.7120  -14.2330 C.2     1  UNL1        0.0100
     16  C         25.3260  -21.3040  -13.0580 C.2     1  UNL1        0.0260
     17  C         24.4600  -21.8900  -12.1220 C.2     1  UNL1        0.0310
     18  N         25.6710  -20.1300  -15.2070 N.pl3   1  UNL1       -0.2790
     19  C         26.0450  -18.7080  -15.0400 C.3     1  UNL1        0.1220
     20  C         27.1190  -18.3320  -16.0740 C.3     1  UNL1        0.1820
     21  O         26.6600  -18.5730  -17.4140 O.3     1  UNL1       -0.3890
     22  C         26.3390  -19.9640  -17.5820 C.3     1  UNL1        0.1820
     23  C         25.2470  -20.4240  -16.5990 C.3     1  UNL1        0.1220
     24  S         16.4240  -22.9000   -8.7270 S.O2    1  UNL1        0.2630
     25  O         15.6680  -24.0930   -8.4140 O.2     1  UNL1       -0.2000
     26  O         16.0970  -22.1130   -9.8980 O.2     1  UNL1       -0.2000
     27  N         16.3520  -21.8420   -7.4130 N.pl3   1  UNL1       -0.2800
     28  H         16.8250  -20.9600   -7.6000 H       1  UNL1        0.1790
     29  C         16.3270  -22.3330   -6.0730 C.2     1  UNL1        0.0480
     30  C         15.1810  -22.9700   -5.5820 C.2     1  UNL1        0.0300
     31  C         15.1490  -23.4690   -4.2800 C.2     1  UNL1        0.0020
     32  C         16.2580  -23.3210   -3.4520 C.2     1  UNL1        0.0010
     33  C         17.3940  -22.6630   -3.9230 C.2     1  UNL1        0.0090
     34  C         17.4410  -22.1510   -5.2310 C.2     1  UNL1       -0.0350
     35  C         18.6860  -21.4370   -5.6790 C.3     1  UNL1        0.0500
@<TRIPOS>BOND
     1    22    21    1
     2    22    23    1
     3    21    20    1
     4    23    18    1
     5    20    19    1
     6    18    19    1
     7    18    15    1
     8    14    15    2
     9    14    13    1
    10    15    16    1
    11    13    12    2
    12    16    17    2
    13    12    17    1
    14    12    10    1
    15    10    11    1
    16    10     8   am
    17     9     8    2
    18     8     3    1
    19     3     2    1
    20     3     4    2
    21    26    24    2
    22     2     1    2
    23     4     5    1
    24     1    24    1
    25     1     6    1
    26    24    25    2
    27    24    27    1
    28     5     6    2
    29     6     7    1
    30    28    27    1
    31    27    29    1
    32    29    30    2
    33    29    34    1
    34    35    34    1
    35    30    31    1
    36    34    33    2
    37    31    32    2
    38    33    32    1
