@<TRIPOS>MOLECULE
20219_out_ligand_01.pdbqt
 35 38 0 0 0
SMALL
GASTEIGER

@<TRIPOS>ATOM
      1  C         19.3190  -22.3250   -6.8940 C.2     1  UNL1        0.0860
      2  C         20.2710  -22.7770   -7.8220 C.2     1  UNL1        0.0420
      3  C         21.5310  -22.1770   -7.8810 C.2     1  UNL1        0.0330
      4  C         21.8480  -21.1320   -7.0110 C.2     1  UNL1        0.0170
      5  C         20.8990  -20.6800   -6.0900 C.2     1  UNL1        0.0090
      6  C         19.6250  -21.2700   -6.0110 C.2     1  UNL1       -0.0390
      7  C         18.6550  -20.7270   -4.9980 C.3     1  UNL1        0.0500
      8  C         22.5290  -22.6990   -8.8530 C.2     1  UNL1        0.2560
      9  O         22.7930  -23.8930   -8.8200 O.2     1  UNL1       -0.2670
     10  N         23.0360  -21.7490   -9.7190 N.am    1  UNL1       -0.3230
     11  H         22.6190  -20.8270   -9.6870 H       1  UNL1        0.1690
     12  C         24.0190  -21.9360  -10.7120 C.2     1  UNL1        0.0350
     13  C         23.7430  -22.8510  -11.7290 C.2     1  UNL1        0.0320
     14  C         24.6740  -23.0840  -12.7500 C.2     1  UNL1        0.0310
     15  C         25.9150  -22.4280  -12.7950 C.2     1  UNL1        0.0300
     16  C         26.1560  -21.4940  -11.7800 C.2     1  UNL1        0.0310
     17  C         25.2310  -21.2550  -10.7500 C.2     1  UNL1        0.0320
     18  N         26.8030  -22.6870  -13.8400 N.pl3   1  UNL1       -0.3770
     19  C         26.7280  -21.7840  -15.0150 C.3     1  UNL1        0.1490
     20  C         25.7400  -22.3410  -16.0540 C.3     1  UNL1        0.1870
     21  O         26.1070  -23.6690  -16.4670 O.3     1  UNL1       -0.3880
     22  C         26.1220  -24.5560  -15.3360 C.3     1  UNL1        0.1870
     23  C         27.1020  -24.0750  -14.2530 C.3     1  UNL1        0.1490
     24  S         17.7240  -23.1290   -6.9010 S.O2    1  UNL1        0.2630
     25  O         17.7950  -24.2640   -6.0060 O.2     1  UNL1       -0.2000
     26  O         16.6920  -22.1290   -6.7240 O.2     1  UNL1       -0.2000
     27  N         17.6250  -23.7620   -8.4690 N.pl3   1  UNL1       -0.2810
     28  H         16.9020  -24.4780   -8.5140 H       1  UNL1        0.1790
     29  C         17.6880  -22.8410   -9.5540 C.2     1  UNL1        0.0430
     30  C         16.5820  -22.0510   -9.8570 C.2     1  UNL1        0.0300
     31  C         16.6640  -21.1130  -10.8860 C.2     1  UNL1        0.0030
     32  C         17.8560  -20.9560  -11.5960 C.2     1  UNL1        0.0070
     33  C         18.9780  -21.7310  -11.2790 C.2     1  UNL1       -0.0600
     34  C         20.2610  -21.5730  -12.0400 C.3     1  UNL1        0.0480
     35  C         18.8810  -22.6840  -10.2580 C.2     1  UNL1        0.0370
@<TRIPOS>BOND
     1    21    20    1
     2    21    22    1
     3    20    19    1
     4    22    23    1
     5    19    18    1
     6    23    18    1
     7    18    15    1
     8    15    14    2
     9    15    16    1
    10    14    13    1
    11    34    33    1
    12    16    17    2
    13    13    12    2
    14    32    33    2
    15    32    31    1
    16    33    35    1
    17    31    30    2
    18    17    12    1
    19    12    10    1
    20    35    29    2
    21    30    29    1
    22    10    11    1
    23    10     8   am
    24    29    27    1
    25     8     9    2
    26     8     3    1
    27    28    27    1
    28    27    24    1
    29     3     2    1
    30     3     4    2
    31     2     1    2
    32     4     5    1
    33    24     1    1
    34    24    26    2
    35    24    25    2
    36     1     6    1
    37     5     6    2
    38     6     7    1
