@<TRIPOS>MOLECULE
20213_out_ligand_01.pdbqt
 36 39 0 0 0
SMALL
GASTEIGER

@<TRIPOS>ATOM
      1  C         18.0730  -23.1640   -9.0550 C.2     1  UNL1        0.1020
      2  C         18.8100  -22.4330  -10.0010 C.2     1  UNL1        0.0440
      3  C         20.1940  -22.6120  -10.1090 C.2     1  UNL1        0.0340
      4  C         20.8400  -23.5370   -9.2820 C.2     1  UNL1        0.0190
      5  C         20.1040  -24.2610   -8.3410 C.2     1  UNL1        0.0260
      6  C         18.7190  -24.0760   -8.2170 C.2     1  UNL1        0.0570
      7 CL         17.9190  -25.0430   -7.0320 Cl      1  UNL1       -0.0830
      8  C         20.9390  -21.8320  -11.1360 C.2     1  UNL1        0.2560
      9  O         20.3800  -20.8620  -11.6330 O.2     1  UNL1       -0.2670
     10  N         22.2170  -22.2890  -11.3920 N.am    1  UNL1       -0.3230
     11  H         22.5740  -23.0250  -10.7980 H       1  UNL1        0.1690
     12  C         23.1300  -21.7810  -12.3400 C.2     1  UNL1        0.0350
     13  C         22.7750  -21.3380  -13.6090 C.2     1  UNL1        0.0320
     14  C         23.7510  -20.8560  -14.4970 C.2     1  UNL1        0.0310
     15  C         25.1080  -20.8050  -14.1560 C.2     1  UNL1        0.0300
     16  C         25.4420  -21.2540  -12.8690 C.2     1  UNL1        0.0310
     17  C         24.4750  -21.7350  -11.9750 C.2     1  UNL1        0.0320
     18  N         26.1040  -20.3310  -15.0150 N.pl3   1  UNL1       -0.3810
     19  C         25.8280  -20.5130  -16.4540 C.3     1  UNL1        0.1230
     20  C         26.6830  -19.5880  -17.3180 C.3     1  UNL1        0.0200
     21  C         26.5210  -18.1240  -16.9090 C.3     1  UNL1        0.0030
     22  C         26.4630  -17.9320  -15.3910 C.3     1  UNL1        0.0200
     23  C         26.9300  -19.1760  -14.6430 C.3     1  UNL1        0.1230
     24  S         16.3280  -22.8640   -8.9390 S.O2    1  UNL1        0.2650
     25  O         15.9260  -22.1340  -10.1230 O.2     1  UNL1       -0.2000
     26  O         15.6770  -24.1170   -8.6160 O.2     1  UNL1       -0.2000
     27  N         16.1770  -21.8130   -7.6330 N.pl3   1  UNL1       -0.2800
     28  H         16.6170  -20.9170   -7.8290 H       1  UNL1        0.1790
     29  C         16.1050  -22.2730   -6.2780 C.2     1  UNL1        0.0490
     30  C         14.9090  -22.7880   -5.7670 C.2     1  UNL1        0.0310
     31  C         14.8310  -23.2540   -4.4590 C.2     1  UNL1        0.0030
     32  C         15.9490  -23.1950   -3.6360 C.2     1  UNL1        0.0070
     33  C         17.1520  -22.6480   -4.1020 C.2     1  UNL1       -0.0540
     34  C         18.3220  -22.5980   -3.1540 C.3     1  UNL1        0.0490
     35  C         17.2270  -22.1380   -5.4230 C.2     1  UNL1       -0.0290
     36  C         18.5070  -21.5080   -5.9160 C.3     1  UNL1        0.0510
@<TRIPOS>BOND
     1    20    21    1
     2    20    19    1
     3    21    22    1
     4    19    18    1
     5    22    23    1
     6    18    23    1
     7    18    15    1
     8    14    15    2
     9    14    13    1
    10    15    16    1
    11    13    12    2
    12    16    17    2
    13    12    17    1
    14    12    10    1
    15     9     8    2
    16    10     8   am
    17    10    11    1
    18     8     3    1
    19    25    24    2
    20     3     2    1
    21     3     4    2
    22     2     1    2
    23     4     5    1
    24     1    24    1
    25     1     6    1
    26    24    26    2
    27    24    27    1
    28     5     6    2
    29     6     7    1
    30    28    27    1
    31    27    29    1
    32    29    30    2
    33    29    35    1
    34    36    35    1
    35    30    31    1
    36    35    33    2
    37    31    32    2
    38    33    32    1
    39    33    34    1
