@<TRIPOS>MOLECULE
20221_out_ligand_01.pdbqt
 36 39 0 0 0
SMALL
GASTEIGER

@<TRIPOS>ATOM
      1  C         18.0070  -25.0200   -6.9360 C.3     1  UNL1        0.0500
      2  C         18.7410  -24.1910   -7.9510 C.2     1  UNL1       -0.0390
      3  C         20.1380  -24.3560   -8.0450 C.2     1  UNL1        0.0090
      4  C         20.8970  -23.6240   -8.9600 C.2     1  UNL1        0.0170
      5  C         20.2720  -22.6930   -9.7910 C.2     1  UNL1        0.0330
      6  C         18.8890  -22.5130   -9.7160 C.2     1  UNL1        0.0420
      7  C         18.1210  -23.2680   -8.8150 C.2     1  UNL1        0.0860
      8  C         21.0320  -21.9160  -10.8030 C.2     1  UNL1        0.2560
      9  O         20.5810  -20.8290  -11.1410 O.2     1  UNL1       -0.2670
     10  N         22.2030  -22.5130  -11.2270 N.am    1  UNL1       -0.3230
     11  H         22.4850  -23.3630  -10.7520 H       1  UNL1        0.1690
     12  C         23.1080  -22.0250  -12.1920 C.2     1  UNL1        0.0350
     13  C         22.7360  -21.5880  -13.4580 C.2     1  UNL1        0.0320
     14  C         23.7050  -21.1110  -14.3540 C.2     1  UNL1        0.0310
     15  C         25.0670  -21.0480  -14.0210 C.2     1  UNL1        0.0300
     16  C         25.4220  -21.5060  -12.7480 C.2     1  UNL1        0.0310
     17  C         24.4600  -21.9890  -11.8460 C.2     1  UNL1        0.0320
     18  N         25.9830  -20.5440  -14.9500 N.pl3   1  UNL1       -0.3770
     19  C         26.8350  -19.3840  -14.6240 C.3     1  UNL1        0.1490
     20  C         26.3240  -18.1240  -15.3370 C.3     1  UNL1        0.1870
     21  O         26.3130  -18.2340  -16.7710 O.3     1  UNL1       -0.3880
     22  C         26.2920  -19.5940  -17.2340 C.3     1  UNL1        0.1870
     23  C         25.4540  -20.5240  -16.3400 C.3     1  UNL1        0.1490
     24  S         16.3590  -22.9510   -8.8460 S.O2    1  UNL1        0.2630
     25  O         15.7120  -24.1710   -8.4050 O.2     1  UNL1       -0.2000
     26  O         15.9850  -22.3440  -10.1050 O.2     1  UNL1       -0.2000
     27  N         16.1430  -21.8340   -7.6030 N.pl3   1  UNL1       -0.2800
     28  H         15.5360  -21.0570   -7.8590 H       1  UNL1        0.1790
     29  C         16.1910  -22.2550   -6.2420 C.2     1  UNL1        0.0490
     30  C         15.0800  -22.9230   -5.7190 C.2     1  UNL1        0.0310
     31  C         15.0620  -23.3350   -4.3910 C.2     1  UNL1        0.0030
     32  C         16.1610  -23.0840   -3.5760 C.2     1  UNL1        0.0070
     33  C         17.2920  -22.4250   -4.0810 C.2     1  UNL1       -0.0540
     34  C         18.4580  -22.1860   -3.1570 C.3     1  UNL1        0.0490
     35  C         17.3170  -22.0020   -5.4330 C.2     1  UNL1       -0.0290
     36  C         18.5490  -21.3030   -5.9550 C.3     1  UNL1        0.0510
@<TRIPOS>BOND
     1    22    21    1
     2    22    23    1
     3    21    20    1
     4    23    18    1
     5    20    19    1
     6    18    19    1
     7    18    15    1
     8    14    15    2
     9    14    13    1
    10    15    16    1
    11    13    12    2
    12    16    17    2
    13    12    17    1
    14    12    10    1
    15    10     8   am
    16    10    11    1
    17     9     8    2
    18     8     5    1
    19    26    24    2
    20     5     6    2
    21     5     4    1
    22     6     7    1
    23     4     3    2
    24    24     7    1
    25    24    25    2
    26    24    27    1
    27     7     2    2
    28     3     2    1
    29     2     1    1
    30    28    27    1
    31    27    29    1
    32    29    30    2
    33    29    35    1
    34    36    35    1
    35    30    31    1
    36    35    33    2
    37    31    32    2
    38    33    32    1
    39    33    34    1
