@<TRIPOS>MOLECULE
20272_out_ligand_01.pdbqt
 31 34 0 0 0
SMALL
GASTEIGER

@<TRIPOS>ATOM
      1  C         19.2890  -22.3630  -10.6160 C.2     1  UNL1        0.0120
      2  C         20.5270  -22.9700  -10.3230 C.2     1  UNL1        0.0160
      3  C         21.6810  -22.6830  -11.0640 C.2     1  UNL1        0.0180
      4  C         21.6210  -21.7730  -12.1230 C.2     1  UNL1        0.0320
      5  C         20.4030  -21.1720  -12.4470 C.2     1  UNL1        0.0180
      6  C         19.2560  -21.4580  -11.6960 C.2     1  UNL1        0.0160
      7  C         18.0770  -22.6670   -9.8280 C.2     1  UNL1        0.1620
      8  N         16.8940  -22.2060  -10.2850 N.2     1  UNL1       -0.2410
      9  C         15.8060  -22.4950   -9.5470 C.2     1  UNL1        0.1230
     10  C         15.8490  -23.2300   -8.3910 C.2     1  UNL1        0.0770
     11  C         17.1000  -23.6650   -8.0190 C.2     1  UNL1        0.1730
     12  N         18.2240  -23.3910   -8.7060 N.2     1  UNL1       -0.2040
     13  O         17.1580  -24.4060   -6.8420 O.2     1  UNL1       -0.2920
     14  C         16.9310  -23.7360   -5.6630 C.2     1  UNL1        0.0800
     15  C         15.8100  -23.9960   -4.8750 C.2     1  UNL1        0.0370
     16  C         15.5950  -23.2490   -3.7190 C.2     1  UNL1        0.0050
     17  C         16.4850  -22.2300   -3.3640 C.2     1  UNL1        0.0370
     18  C         17.5920  -21.9500   -4.1680 C.2     1  UNL1        0.0700
     19  C         17.8080  -22.7060   -5.3230 C.2     1  UNL1        0.0740
     20  O         18.5240  -20.9740   -3.9410 O.2     1  UNL1       -0.3560
     21  C         19.2230  -20.4740   -5.0760 C.3     1  UNL1        0.2100
     22  C         22.8170  -21.4480  -12.9450 C.2     1  UNL1        0.2520
     23  O         22.6840  -20.9170  -14.0410 O.2     1  UNL1       -0.2680
     24  N         24.0390  -21.7600  -12.3840 N.am    1  UNL1       -0.3520
     25  H         24.0700  -22.1610  -11.4560 H       1  UNL1        0.1630
     26  C         25.2890  -21.5990  -13.1190 C.3     1  UNL1        0.0840
     27  C         26.4320  -21.2470  -12.1640 C.3     1  UNL1        0.0250
     28  C         26.7870  -22.3830  -11.2000 C.3     1  UNL1        0.0020
     29  C         26.5210  -23.7780  -11.7670 C.3     1  UNL1        0.0000
     30  C         26.6200  -23.8010  -13.2850 C.3     1  UNL1        0.0020
     31  C         25.6090  -22.8590  -13.9460 C.3     1  UNL1        0.0250
@<TRIPOS>BOND
     1    23    22    2
     2    31    30    1
     3    31    26    1
     4    30    29    1
     5    26    24    1
     6    26    27    1
     7    22    24   am
     8    22     4    1
     9     5     4    2
    10     5     6    1
    11    24    25    1
    12    27    28    1
    13     4     3    1
    14    29    28    1
    15     6     1    2
    16     3     2    2
    17     1     2    1
    18     1     7    1
    19     8     7    2
    20     8     9    1
    21     7    12    1
    22     9    10    2
    23    12    11    2
    24    10    11    1
    25    11    13    1
    26    13    14    1
    27    14    19    2
    28    14    15    1
    29    19    18    1
    30    21    20    1
    31    15    16    2
    32    18    20    1
    33    18    17    2
    34    16    17    1
