@<TRIPOS>MOLECULE
20296_out_ligand_01.pdbqt
 31 34 0 0 0
SMALL
GASTEIGER

@<TRIPOS>ATOM
      1  C         21.9060  -22.6540  -11.2770 C.2     1  UNL1        0.0230
      2  C         21.4670  -21.7170  -12.2090 C.2     1  UNL1        0.0240
      3  C         20.2370  -21.0890  -12.0310 C.2     1  UNL1        0.0030
      4  C         19.4510  -21.3920  -10.9160 C.2     1  UNL1        0.0140
      5  C         19.8910  -22.3210   -9.9630 C.2     1  UNL1       -0.0080
      6  C         21.1330  -22.9430  -10.1500 C.2     1  UNL1        0.0380
      7  N         23.1920  -23.2680  -11.4420 N.pl3   1  UNL1       -0.1810
      8  H         23.2530  -24.1490  -10.9280 H       1  UNL1        0.1460
      9  S         24.4950  -22.2880  -10.9300 S.O2    1  UNL1        0.2460
     10  O         24.0080  -21.1710  -10.1510 O.2     1  UNL1       -0.2060
     11  O         25.4990  -23.1930  -10.4110 O.2     1  UNL1       -0.2060
     12  C         25.0750  -21.6610  -12.5010 C.2     1  UNL1        0.0810
     13  C         25.9580  -20.5720  -12.5850 C.2     1  UNL1       -0.0390
     14  C         26.3660  -20.1480  -13.8610 C.2     1  UNL1        0.0150
     15  C         26.5160  -19.8610  -11.3830 C.3     1  UNL1        0.0500
     16  C         25.9090  -20.7750  -15.0340 C.2     1  UNL1       -0.0560
     17  C         26.3890  -20.2730  -16.3700 C.3     1  UNL1        0.0490
     18  C         25.0350  -21.8720  -14.9340 C.2     1  UNL1       -0.0550
     19  C         24.6250  -22.3040  -13.6650 C.2     1  UNL1        0.0320
     20  C         24.5280  -22.5880  -16.1570 C.3     1  UNL1        0.0490
     21  C         19.0820  -22.6340   -8.7830 C.2     1  UNL1        0.0430
     22  C         19.3780  -22.5240   -7.4350 C.2     1  UNL1        0.0440
     23  C         18.2560  -22.9710   -6.6860 C.2     1  UNL1       -0.0040
     24  C         17.9770  -23.0830   -5.3110 C.2     1  UNL1        0.0560
     25  C         17.2820  -23.3600   -7.6030 C.2     1  UNL1        0.0430
     26  C         16.7350  -23.5800   -4.9200 C.2     1  UNL1        0.1170
     27  F         16.4590  -23.6920   -3.6140 F       1  UNL1       -0.2060
     28  C         15.7750  -23.9640   -5.8490 C.2     1  UNL1        0.0440
     29  C         16.0310  -23.8610   -7.2190 C.2     1  UNL1        0.0330
     30  N         17.8060  -23.1480   -8.8580 N.pl3   1  UNL1       -0.3550
     31  H         17.3230  -23.3630   -9.7180 H       1  UNL1        0.1660
@<TRIPOS>BOND
     1    17    16    1
     2    20    18    1
     3    16    18    2
     4    16    14    1
     5    18    19    1
     6    14    13    2
     7    19    12    2
     8    13    12    1
     9    13    15    1
    10    12     9    1
    11     2     3    1
    12     2     1    2
    13     3     4    2
    14     7     1    1
    15     7     9    1
    16     7     8    1
    17     1     6    1
    18     9    11    2
    19     9    10    2
    20     4     5    1
    21     6     5    2
    22     5    21    1
    23    31    30    1
    24    30    21    1
    25    30    25    1
    26    21    22    2
    27    25    29    1
    28    25    23    2
    29    22    23    1
    30    29    28    2
    31    23    24    1
    32    28    26    1
    33    24    26    2
    34    26    27    1
