@<TRIPOS>MOLECULE
20319_out_ligand_01.pdbqt
 35 38 0 0 0
SMALL
GASTEIGER

@<TRIPOS>ATOM
      1  C         21.4400  -22.9660   -9.5380 C.2     1  UNL1        0.0320
      2  C         21.0560  -22.4070  -10.7610 C.2     1  UNL1        0.0190
      3  C         22.0070  -22.2010  -11.7650 C.2     1  UNL1        0.0300
      4  C         23.3480  -22.5600  -11.5700 C.2     1  UNL1        0.0360
      5  C         23.7250  -23.1230  -10.3500 C.2     1  UNL1        0.0300
      6  C         22.7750  -23.3330   -9.3420 C.2     1  UNL1        0.0190
      7  N         24.2410  -22.3080  -12.6310 N.am    1  UNL1       -0.3090
      8  C         24.9890  -23.2210  -13.3460 C.2     1  UNL1        0.3270
      9  O         24.8840  -24.4400  -13.2350 O.2     1  UNL1       -0.2460
     10  N         25.8430  -22.6530  -14.3060 N.am    1  UNL1       -0.2960
     11  C         26.1540  -23.4600  -15.4870 C.3     1  UNL1        0.1440
     12  C         26.2030  -21.2730  -14.3930 C.2     1  UNL1        0.0800
     13  C         25.2680  -23.0460  -16.6500 C.3     1  UNL1        0.1010
     14  S         25.6200  -21.3370  -17.1670 S.3     1  UNL1       -0.1060
     15  C         26.1230  -20.5880  -15.6220 C.2     1  UNL1        0.1210
     16  N         26.4040  -19.2680  -15.7490 N.2     1  UNL1       -0.2440
     17  C         26.8030  -18.5850  -14.6570 C.2     1  UNL1        0.0320
     18  C         27.1070  -17.1270  -14.8310 C.3     1  UNL1        0.0700
     19  C         26.9660  -19.1930  -13.4200 C.2     1  UNL1        0.0350
     20  C         26.6950  -20.5620  -13.2790 C.2     1  UNL1       -0.0300
     21  C         27.0100  -21.1920  -11.9470 C.3     1  UNL1        0.0500
     22  H         24.2320  -21.3690  -13.0010 H       1  UNL1        0.1700
     23  C         20.4650  -23.2120   -8.4380 C.2     1  UNL1        0.2510
     24  N         20.1710  -22.1300   -7.6310 N.am    1  UNL1       -0.3570
     25  H         20.8250  -21.3590   -7.6330 H       1  UNL1        0.1620
     26  O         19.9970  -24.3310   -8.2690 O.2     1  UNL1       -0.2680
     27  C         19.3600  -22.3090   -6.4370 C.3     1  UNL1        0.1270
     28  C         17.9610  -21.7210   -6.6140 C.3     1  UNL1        0.0580
     29  C         17.0880  -22.5910   -7.4810 C.2     1  UNL1       -0.0570
     30  C         16.6510  -23.8410   -7.0270 C.2     1  UNL1        0.0070
     31  C         15.8610  -24.6550   -7.8420 C.2     1  UNL1        0.0070
     32  C         15.4900  -24.2320   -9.1230 C.2     1  UNL1       -0.0620
     33  C         14.6730  -25.1180  -10.0140 C.3     1  UNL1        0.0480
     34  C         15.9440  -22.9920   -9.5850 C.2     1  UNL1        0.0070
     35  C         16.7330  -22.1760   -8.7710 C.2     1  UNL1        0.0070
@<TRIPOS>BOND
     1    14    13    1
     2    14    15    1
     3    13    11    1
     4    16    15    1
     5    16    17    2
     6    15    12    2
     7    11    10    1
     8    18    17    1
     9    17    19    1
    10    12    10    1
    11    12    20    1
    12    10     8   am
    13    19    20    2
    14     8     9    2
    15     8     7   am
    16    20    21    1
    17    22     7    1
    18     7     4    1
    19     3     4    2
    20     3     2    1
    21     4     5    1
    22     2     1    2
    23     5     6    2
    24    33    32    1
    25    34    32    2
    26    34    35    1
    27     1     6    1
    28     1    23    1
    29    32    31    1
    30    35    29    2
    31    23    26    2
    32    23    24   am
    33    31    30    2
    34    25    24    1
    35    24    27    1
    36    29    30    1
    37    29    28    1
    38    28    27    1
