@<TRIPOS>MOLECULE
20337_out_ligand_01.pdbqt
 32 35 0 0 0
SMALL
GASTEIGER

@<TRIPOS>ATOM
      1  C         23.2680  -23.0000   -9.3670 C.ar    1  UNL1        0.1090
      2  N         22.8140  -22.1200   -8.4990 N.ar    1  UNL1       -0.2330
      3  C         21.5560  -22.5470   -8.1500 C.ar    1  UNL1        0.0860
      4  C         20.6290  -21.9760   -7.2710 C.2     1  UNL1        0.0510
      5  C         19.3850  -22.6080   -7.1100 C.2     1  UNL1        0.0340
      6  C         19.0910  -23.8020   -7.7870 C.2     1  UNL1        0.0190
      7  C         20.0160  -24.3880   -8.6620 C.2     1  UNL1        0.0330
      8  C         21.2340  -23.7240   -8.8150 C.ar    1  UNL1        0.0620
      9  N         22.3430  -23.9990   -9.5710 N.ar    1  UNL1       -0.3420
     10  H         22.4550  -24.7810  -10.2020 H       1  UNL1        0.1670
     11  C         24.5980  -22.9660  -10.0520 C.3     1  UNL1        0.1170
     12  C         24.5160  -22.7310  -11.5450 C.2     1  UNL1       -0.0510
     13  C         25.4890  -23.2630  -12.4020 C.2     1  UNL1        0.0100
     14  C         25.4390  -23.0220  -13.7790 C.2     1  UNL1        0.0300
     15  C         24.4140  -22.2520  -14.3280 C.2     1  UNL1        0.0340
     16  C         23.4340  -21.7300  -13.4740 C.2     1  UNL1        0.0300
     17  C         23.4840  -21.9620  -12.0950 C.2     1  UNL1        0.0100
     18  N         24.2910  -21.9630  -15.7020 N.am    1  UNL1       -0.3270
     19  C         24.5160  -22.8210  -16.7690 C.2     1  UNL1        0.2210
     20  O         24.8860  -23.9870  -16.7010 O.2     1  UNL1       -0.2730
     21  H         24.0040  -21.0210  -15.9340 H       1  UNL1        0.1690
     22  C         24.2520  -22.1300  -18.0980 C.3     1  UNL1        0.0980
     23  C         24.7740  -20.7050  -18.1270 C.3     1  UNL1        0.0140
     24  C         18.4020  -21.9860   -6.1840 C.2     1  UNL1        0.2520
     25  O         18.6800  -20.9540   -5.5870 O.2     1  UNL1       -0.2680
     26  N         17.1820  -22.6260   -6.0830 N.am    1  UNL1       -0.3520
     27  H         16.9520  -23.3280   -6.7710 H       1  UNL1        0.1630
     28  C         16.1050  -22.0710   -5.2790 C.3     1  UNL1        0.0840
     29  C         16.1200  -22.6090   -3.8490 C.3     1  UNL1        0.0250
     30  C         15.4730  -23.9860   -3.9560 C.3     1  UNL1        0.0020
     31  C         14.5330  -23.9150   -5.1600 C.3     1  UNL1        0.0020
     32  C         14.7380  -22.5330   -5.7800 C.3     1  UNL1        0.0250
@<TRIPOS>BOND
     1    23    22    1
     2    22    19    1
     3    19    20    2
     4    19    18   am
     5    21    18    1
     6    18    15    1
     7    15    14    2
     8    15    16    1
     9    14    13    1
    10    16    17    2
    11    13    12    2
    12    17    12    1
    13    12    11    1
    14    10     9    1
    15    11     1    1
    16     9     1   ar
    17     9     8   ar
    18     1     2   ar
    19     8     7    1
    20     8     3   ar
    21     7     6    2
    22     2     3   ar
    23     3     4    1
    24     6     5    1
    25     4     5    2
    26     5    24    1
    27    27    26    1
    28    24    26   am
    29    24    25    2
    30    26    28    1
    31    32    28    1
    32    32    31    1
    33    28    29    1
    34    31    30    1
    35    30    29    1
