@<TRIPOS>MOLECULE
20332_out_ligand_01.pdbqt
 36 39 0 0 0
SMALL
GASTEIGER

@<TRIPOS>ATOM
      1  C         21.8010  -22.0360  -11.6040 C.2     1  UNL1        0.0100
      2  C         20.6650  -21.3720  -12.0960 C.2     1  UNL1        0.0150
      3  C         19.4010  -21.6020  -11.5460 C.2     1  UNL1        0.0020
      4  C         19.2550  -22.5130  -10.5010 C.2     1  UNL1        0.0090
      5  C         20.3700  -23.1930   -9.9860 C.2     1  UNL1       -0.0400
      6  C         21.6380  -22.9450  -10.5460 C.2     1  UNL1        0.0240
      7  C         23.1070  -21.7970  -12.2330 C.2     1  UNL1        0.1380
      8  N         24.2880  -21.9540  -11.6640 N.2     1  UNL1       -0.2400
      9  C         25.2140  -21.5250  -12.5860 C.2     1  UNL1        0.1490
     10  C         24.6140  -21.1110  -13.7610 C.2     1  UNL1        0.0640
     11  N         23.2800  -21.3660  -13.5280 N.pl3   1  UNL1       -0.3380
     12  H         22.5500  -21.2070  -14.2050 H       1  UNL1        0.1670
     13  C         25.1360  -20.5010  -14.9960 C.2     1  UNL1        0.0280
     14  C         24.8510  -21.0050  -16.2880 C.2     1  UNL1        0.0810
     15  C         25.3480  -20.3340  -17.4170 C.2     1  UNL1        0.0400
     16  C         26.1120  -19.1700  -17.2860 C.2     1  UNL1        0.0390
     17  C         26.3980  -18.6640  -16.0230 C.2     1  UNL1        0.0690
     18  C         25.9170  -19.3350  -14.8930 C.2     1  UNL1        0.0530
     19  O         24.0850  -22.1450  -16.3620 O.2     1  UNL1       -0.3550
     20  C         24.4920  -23.1660  -17.2780 C.3     1  UNL1        0.2100
     21  O         27.1200  -17.5350  -15.7540 O.2     1  UNL1       -0.3560
     22  C         26.7080  -16.3390  -16.4020 C.3     1  UNL1        0.2100
     23  C         20.2260  -24.2300   -8.9000 C.3     1  UNL1        0.1610
     24  N         19.1170  -23.9470   -8.0120 N.am    1  UNL1       -0.3530
     25  C         19.1420  -22.9090   -7.1070 C.2     1  UNL1        0.2550
     26  O         20.1280  -22.1940   -6.9300 O.2     1  UNL1       -0.2680
     27  H         18.2670  -24.4900   -8.1440 H       1  UNL1        0.1630
     28  C         17.9030  -22.6680   -6.3090 C.2     1  UNL1        0.0730
     29  C         18.0030  -22.6450   -4.9020 C.2     1  UNL1        0.0230
     30  C         16.8690  -22.4350   -4.1100 C.2     1  UNL1        0.0470
     31  C         15.6330  -22.2500   -4.7240 C.2     1  UNL1        0.1580
     32  F         14.5470  -22.0580   -3.9640 F       1  UNL1       -0.2030
     33  C         15.5230  -22.2680   -6.1100 C.2     1  UNL1        0.1940
     34  F         14.3280  -22.1020   -6.6980 F       1  UNL1       -0.2000
     35  C         16.6500  -22.4720   -6.8980 C.2     1  UNL1        0.1730
     36  F         16.5040  -22.4790   -8.2370 F       1  UNL1       -0.2020
@<TRIPOS>BOND
     1    15    16    2
     2    15    14    1
     3    16    17    1
     4    20    19    1
     5    22    21    1
     6    19    14    1
     7    14    13    2
     8    17    21    1
     9    17    18    2
    10    13    18    1
    11    13    10    1
    12    12    11    1
    13    10    11    1
    14    10     9    2
    15    11     7    1
    16     9     8    1
    17     7     8    2
    18     7     1    1
    19     2     1    2
    20     2     3    1
    21     1     6    1
    22     3     4    2
    23     6     5    2
    24     4     5    1
    25     5    23    1
    26    23    24    1
    27    36    35    1
    28    27    24    1
    29    24    25   am
    30    25    26    2
    31    25    28    1
    32    35    28    2
    33    35    33    1
    34    34    33    1
    35    28    29    1
    36    33    31    2
    37    29    30    2
    38    31    30    1
    39    31    32    1
