@<TRIPOS>MOLECULE
20364_out_ligand_01.pdbqt
 33 37 0 0 0
SMALL
GASTEIGER

@<TRIPOS>ATOM
      1  C         23.2490  -22.8630  -10.7860 C.2     1  UNL1        0.0320
      2  C         22.1500  -22.2580  -11.4070 C.2     1  UNL1        0.0180
      3  C         20.9020  -22.2520  -10.7770 C.2     1  UNL1        0.0150
      4  C         20.7420  -22.8410   -9.5180 C.2     1  UNL1       -0.0070
      5  C         21.8470  -23.4300   -8.8920 C.2     1  UNL1        0.0150
      6  C         23.0970  -23.4380   -9.5190 C.2     1  UNL1        0.0180
      7  C         19.4420  -22.8430   -8.8630 C.ar    1  UNL1        0.0690
      8  N         18.3330  -23.3740   -9.4500 N.ar    1  UNL1       -0.2760
      9  N         17.2340  -23.3100   -8.7000 N.ar    1  UNL1       -0.1730
     10  H         18.2620  -23.7940  -10.3700 H       1  UNL1        0.1890
     11  C         17.6190  -22.7070   -7.5600 C.ar    1  UNL1        0.0960
     12  C         19.0160  -22.3770   -7.6250 C.ar    1  UNL1        0.0020
     13  C         16.6270  -22.4910   -6.4870 C.2     1  UNL1        0.0010
     14  C         19.8990  -21.7260   -6.6140 C.3     1  UNL1        0.0440
     15  C         19.2030  -21.1150   -5.4100 C.3     1  UNL1        0.0090
     16  C         18.3850  -22.1450   -4.6410 C.3     1  UNL1        0.0400
     17  C         16.9640  -22.2430   -5.1420 C.2     1  UNL1       -0.0450
     18  C         15.9320  -22.0970   -4.1890 C.2     1  UNL1        0.0080
     19  C         14.5890  -22.1730   -4.5520 C.2     1  UNL1        0.0010
     20  C         14.2490  -22.3980   -5.8760 C.2     1  UNL1        0.0010
     21  C         15.2560  -22.5580   -6.8270 C.2     1  UNL1        0.0140
     22  C         24.5580  -22.8550  -11.4960 C.2     1  UNL1        0.2510
     23  N         24.6520  -23.6750  -12.6000 N.am    1  UNL1       -0.3530
     24  H         23.7980  -24.0420  -12.9950 H       1  UNL1        0.1630
     25  O         25.4610  -22.1220  -11.1080 O.2     1  UNL1       -0.2680
     26  C         25.7890  -23.6050  -13.4910 C.3     1  UNL1        0.1620
     27  C         25.3800  -23.0390  -14.8320 C.2     1  UNL1       -0.0350
     28  C         24.9380  -23.9350  -15.8250 C.2     1  UNL1        0.0090
     29  C         24.5680  -23.4800  -17.0880 C.2     1  UNL1        0.0010
     30  C         24.6340  -22.1230  -17.3840 C.2     1  UNL1        0.0010
     31  C         25.0770  -21.2210  -16.4150 C.2     1  UNL1        0.0070
     32  C         25.4690  -21.6640  -15.1400 C.2     1  UNL1       -0.0540
     33  C         25.9230  -20.6450  -14.1300 C.3     1  UNL1        0.0490
@<TRIPOS>BOND
     1    30    29    2
     2    30    31    1
     3    29    28    1
     4    31    32    2
     5    28    27    2
     6    32    27    1
     7    32    33    1
     8    27    26    1
     9    26    23    1
    10    24    23    1
    11    23    22   am
    12    22    25    2
    13    22     1    1
    14     2     1    2
    15     2     3    1
    16     1     6    1
    17     3     4    2
    18    10     8    1
    19     6     5    2
    20     4     5    1
    21     4     7    1
    22     8     7   ar
    23     8     9   ar
    24     7    12   ar
    25     9    11   ar
    26    12    11   ar
    27    12    14    1
    28    11    13    1
    29    21    13    2
    30    21    20    1
    31    14    15    1
    32    13    17    1
    33    20    19    2
    34    15    16    1
    35    17    16    1
    36    17    18    2
    37    19    18    1
