@<TRIPOS>MOLECULE
20362_out_ligand_01.pdbqt
 31 34 0 0 0
SMALL
GASTEIGER

@<TRIPOS>ATOM
      1  C         19.4990  -22.4070  -10.1150 C.2     1  UNL1        0.0340
      2  C         18.7340  -21.4310  -10.7640 C.2     1  UNL1        0.0170
      3  C         19.2560  -20.7770  -11.8760 C.2     1  UNL1        0.0030
      4  C         20.5350  -21.0970  -12.3350 C.2     1  UNL1        0.0290
      5  C         21.3120  -22.0700  -11.6880 C.2     1  UNL1        0.0350
      6  C         20.7900  -22.7160  -10.5670 C.2     1  UNL1        0.0460
      7  C         18.9670  -23.1110   -8.9170 C.2     1  UNL1        0.2560
      8  O         19.5310  -24.1340   -8.5500 O.2     1  UNL1       -0.2670
      9  N         17.8490  -22.5130   -8.3630 N.am    1  UNL1       -0.3220
     10  H         17.4620  -21.7470   -8.8910 H       1  UNL1        0.1690
     11  C         17.1360  -22.8960   -7.1960 C.2     1  UNL1        0.0460
     12  C         16.0580  -23.7860   -7.2670 C.2     1  UNL1        0.0300
     13  C         15.3670  -24.1730   -6.1220 C.2     1  UNL1        0.0030
     14  C         15.7470  -23.6760   -4.8820 C.2     1  UNL1        0.0120
     15  C         16.8210  -22.7850   -4.7650 C.2     1  UNL1       -0.0240
     16  C         17.1770  -22.3050   -3.4930 C.2     1  UNL1        0.0120
     17  C         17.5390  -22.3750   -5.9210 C.2     1  UNL1        0.0010
     18  C         18.2360  -21.4170   -3.3290 C.2     1  UNL1        0.0010
     19  C         18.9530  -20.9970   -4.4380 C.2     1  UNL1        0.0010
     20  C         18.6110  -21.4660   -5.7110 C.2     1  UNL1        0.0140
     21  N         22.5920  -22.3220  -12.2230 N.am    1  UNL1       -0.3230
     22  C         23.7070  -22.7880  -11.5540 C.2     1  UNL1        0.2570
     23  O         23.7670  -23.1400  -10.3830 O.2     1  UNL1       -0.2670
     24  H         22.7040  -22.1300  -13.2110 H       1  UNL1        0.1690
     25  C         24.9250  -22.9530  -12.3920 C.2     1  UNL1        0.0490
     26  C         24.9480  -24.0740  -13.2380 C.2     1  UNL1        0.0180
     27  C         26.0380  -24.3130  -14.0760 C.2     1  UNL1        0.0010
     28  C         27.1210  -23.4380  -14.0690 C.2     1  UNL1        0.0010
     29  C         27.1180  -22.3300  -13.2180 C.2     1  UNL1        0.0200
     30  C         26.0270  -22.0850  -12.3740 C.2     1  UNL1        0.0260
     31 BR         26.1690  -20.5890  -11.2120 Br      1  UNL1       -0.0500
@<TRIPOS>BOND
     1    27    28    2
     2    27    26    1
     3    28    29    1
     4    26    25    2
     5    29    30    2
     6    24    21    1
     7    25    30    1
     8    25    22    1
     9    30    31    1
    10     4     3    2
    11     4     5    1
    12    21     5    1
    13    21    22   am
    14     3     2    1
    15     5     6    2
    16    22    23    2
    17     2     1    2
    18     6     1    1
    19     1     7    1
    20     7     8    2
    21     7     9   am
    22    10     9    1
    23     9    11    1
    24    12    11    2
    25    12    13    1
    26    11    17    1
    27    13    14    2
    28    17    20    1
    29    17    15    2
    30    20    19    2
    31    14    15    1
    32    15    16    1
    33    19    18    1
    34    16    18    2
