@<TRIPOS>MOLECULE
20374_out_ligand_01.pdbqt
 35 40 0 0 0
SMALL
GASTEIGER

@<TRIPOS>ATOM
      1  C         23.7740  -22.0830  -12.9330 C.2     1  UNL1        0.0320
      2  C         23.7550  -22.8410  -11.7570 C.2     1  UNL1        0.0180
      3  C         22.5970  -22.9060  -10.9750 C.2     1  UNL1        0.0150
      4  C         21.4360  -22.2200  -11.3570 C.2     1  UNL1       -0.0080
      5  C         21.4570  -21.4800  -12.5490 C.2     1  UNL1        0.0150
      6  C         22.6140  -21.4100  -13.3340 C.2     1  UNL1        0.0180
      7  C         20.2200  -22.2780  -10.5500 C.2     1  UNL1        0.0620
      8  C         19.9680  -22.8210   -9.3050 C.2     1  UNL1        0.0660
      9  C         18.5960  -22.5740   -9.0320 C.2     1  UNL1        0.0900
     10  N         18.0140  -21.9550  -10.0690 N.2     1  UNL1       -0.1740
     11  N         19.0070  -21.7790  -10.9520 N.pl3   1  UNL1       -0.2770
     12  H         18.7850  -21.3250  -11.8300 H       1  UNL1        0.1890
     13  C         17.8370  -22.9620   -7.8440 C.2     1  UNL1        0.0050
     14  C         16.8620  -23.9630   -8.0010 C.2     1  UNL1        0.0150
     15  C         16.1380  -24.4280   -6.9100 C.2     1  UNL1        0.0020
     16  C         16.3790  -23.8970   -5.6460 C.2     1  UNL1        0.0120
     17  C         17.3320  -22.8850   -5.4550 C.2     1  UNL1       -0.0250
     18  C         17.5420  -22.3570   -4.1710 C.2     1  UNL1        0.0120
     19  C         18.0730  -22.3890   -6.5600 C.2     1  UNL1       -0.0130
     20  C         18.4650  -21.3350   -3.9530 C.2     1  UNL1        0.0010
     21  C         19.1840  -20.8200   -5.0220 C.2     1  UNL1        0.0010
     22  C         18.9890  -21.3360   -6.3060 C.2     1  UNL1        0.0130
     23  C         25.0300  -22.0430  -13.7330 C.2     1  UNL1        0.2520
     24  O         25.9420  -22.8200  -13.4780 O.2     1  UNL1       -0.2680
     25  N         25.0950  -21.0790  -14.7180 N.am    1  UNL1       -0.3480
     26  H         24.4550  -20.3000  -14.6480 H       1  UNL1        0.1630
     27  C         26.3400  -20.8180  -15.4120 C.3     1  UNL1        0.1180
     28  C         26.3730  -21.4920  -16.7990 C.3     1  UNL1        0.0340
     29  C         25.7740  -20.4910  -17.7990 C.3     1  UNL1        0.0410
     30  C         26.1170  -19.1860  -17.1520 C.2     1  UNL1       -0.0500
     31  C         26.1030  -17.9230  -17.7180 C.2     1  UNL1        0.0070
     32  C         26.4350  -19.3690  -15.8010 C.2     1  UNL1       -0.0290
     33  C         26.4270  -16.8310  -16.9080 C.2     1  UNL1        0.0010
     34  C         26.7490  -17.0140  -15.5530 C.2     1  UNL1        0.0010
     35  C         26.7490  -18.2900  -14.9890 C.2     1  UNL1        0.0100
@<TRIPOS>BOND
     1    29    30    1
     2    29    28    1
     3    31    30    2
     4    31    33    1
     5    30    32    1
     6    33    34    2
     7    28    27    1
     8    32    27    1
     9    32    35    2
    10    34    35    1
    11    27    25    1
    12    25    26    1
    13    25    23   am
    14    23    24    2
    15    23     1    1
    16     6     1    2
    17     6     5    1
    18     1     2    1
    19     5     4    2
    20    12    11    1
    21     2     3    2
    22     4     3    1
    23     4     7    1
    24    11     7    1
    25    11    10    1
    26     7     8    2
    27    10     9    2
    28     8     9    1
    29     9    13    1
    30    14    13    2
    31    14    15    1
    32    13    19    1
    33    15    16    2
    34    19    22    1
    35    19    17    2
    36    22    21    2
    37    16    17    1
    38    17    18    1
    39    21    20    1
    40    18    20    2
