@<TRIPOS>MOLECULE
20372_out_ligand_01.pdbqt
 36 40 0 0 0
SMALL
GASTEIGER

@<TRIPOS>ATOM
      1  C         17.1210  -23.1870   -8.8000 C.2     1  UNL1        0.0980
      2  C         16.7540  -22.3990   -9.8250 C.2     1  UNL1        0.1090
      3  N         17.6050  -21.8490  -10.7490 N.pl3   1  UNL1       -0.3640
      4  C         18.9910  -21.9910  -10.6150 C.2     1  UNL1        0.0460
      5  C         19.8670  -21.3820  -11.5190 C.2     1  UNL1        0.0320
      6  C         21.2470  -21.5590  -11.3930 C.2     1  UNL1        0.0270
      7  C         21.7530  -22.3690  -10.3710 C.2     1  UNL1        0.0810
      8  C         20.8960  -22.9920   -9.4620 C.2     1  UNL1        0.0430
      9  C         19.5160  -22.8080   -9.5980 C.2     1  UNL1        0.0430
     10  C         18.5770  -23.4710   -8.6560 C.2     1  UNL1        0.2010
     11  O         19.0070  -24.2240   -7.7830 O.2     1  UNL1       -0.2860
     12  H         17.2380  -21.1390  -11.3740 H       1  UNL1        0.1650
     13  S         23.5110  -22.5830  -10.1940 S.O2    1  UNL1        0.2630
     14  O         24.1220  -21.2710  -10.1910 O.2     1  UNL1       -0.2000
     15  O         23.7230  -23.5130   -9.1060 O.2     1  UNL1       -0.2000
     16  N         23.9370  -23.4000  -11.6070 N.pl3   1  UNL1       -0.2810
     17  H         23.2020  -24.0310  -11.9240 H       1  UNL1        0.1790
     18  C         24.7260  -22.7460  -12.5930 C.2     1  UNL1        0.0450
     19  C         26.1160  -22.6840  -12.4800 C.2     1  UNL1        0.0330
     20  C         26.8650  -22.0080  -13.4450 C.2     1  UNL1        0.0420
     21  C         26.2240  -21.3950  -14.5180 C.2     1  UNL1        0.1020
     22  C         24.8350  -21.4860  -14.6460 C.2     1  UNL1        0.1040
     23  O         27.0190  -20.7300  -15.4140 O.2     1  UNL1       -0.3460
     24  C         24.0830  -22.1490  -13.6780 C.2     1  UNL1        0.0690
     25  O         24.1400  -20.9360  -15.6930 O.2     1  UNL1       -0.3460
     26  C         25.0140  -20.6000  -16.7780 C.3     1  UNL1        0.2020
     27  C         26.2480  -19.8760  -16.2670 C.3     1  UNL1        0.2020
     28  C         16.0630  -23.6920   -7.8780 C.2     1  UNL1        0.2570
     29  O         15.4470  -24.7280   -8.1100 O.2     1  UNL1       -0.2670
     30  N         15.8230  -22.9070   -6.7780 N.am    1  UNL1       -0.3520
     31  H         16.3100  -22.0100   -6.7230 H       1  UNL1        0.1630
     32  C         14.6960  -23.1380   -5.8910 C.3     1  UNL1        0.0840
     33  C         14.9660  -24.3000   -4.9390 C.3     1  UNL1        0.0250
     34  C         15.7410  -23.6920   -3.7680 C.3     1  UNL1        0.0020
     35  C         15.5400  -22.1810   -3.8550 C.3     1  UNL1        0.0020
     36  C         14.4860  -21.9670   -4.9350 C.3     1  UNL1        0.0250
@<TRIPOS>BOND
     1    26    27    1
     2    26    25    1
     3    27    23    1
     4    25    22    1
     5    23    21    1
     6    22    21    2
     7    22    24    1
     8    21    20    1
     9    24    18    2
    10    20    19    2
    11    18    19    1
    12    18    16    1
    13    17    16    1
    14    16    13    1
    15     5     6    1
    16     5     4    2
    17     6     7    2
    18    12     3    1
    19     3     4    1
    20     3     2    1
    21     4     9    1
    22     7    13    1
    23     7     8    1
    24    13    14    2
    25    13    15    2
    26     2     1    2
    27     9     8    2
    28     9    10    1
    29     1    10    1
    30     1    28    1
    31    10    11    2
    32    29    28    2
    33    28    30   am
    34    30    31    1
    35    30    32    1
    36    32    33    1
    37    32    36    1
    38    33    34    1
    39    36    35    1
    40    35    34    1
