@<TRIPOS>MOLECULE
20376_out_ligand_01.pdbqt
 32 35 0 0 0
SMALL
GASTEIGER

@<TRIPOS>ATOM
      1  C         22.3920  -22.1490  -10.5280 C.2     1  UNL1        0.7300
      2  N         22.0330  -21.6540  -11.7250 N.2     1  UNL1       -0.0740
      3  C         20.7110  -21.4480  -11.9230 C.2     1  UNL1        0.1530
      4  C         19.7540  -21.7270  -10.9760 C.2     1  UNL1        0.0530
      5  C         20.2130  -22.2430   -9.7820 C.2     1  UNL1        0.0690
      6  N         21.5300  -22.4540   -9.5460 N.2     1  UNL1       -0.0660
      7  C         19.2600  -22.5590   -8.6600 C.3     1  UNL1        0.0720
      8  C         17.8740  -22.9250   -9.2050 C.3     1  UNL1        0.0560
      9  C         17.3490  -21.8090  -10.1130 C.3     1  UNL1        0.0950
     10  C         18.3230  -21.4990  -11.2250 C.2     1  UNL1        0.1630
     11  O         17.9640  -21.0300  -12.3010 O.2     1  UNL1       -0.2920
     12  N         23.7200  -22.3860  -10.2390 N.am    1  UNL1       -0.1370
     13  C         24.6880  -22.9180  -11.0300 C.2     1  UNL1        0.3480
     14  N         24.3490  -23.2820  -12.3230 N.am    1  UNL1       -0.2310
     15  O         25.8140  -23.0720  -10.5710 O.2     1  UNL1       -0.2450
     16  H         23.3840  -23.1570  -12.6310 H       1  UNL1        0.1830
     17  H         24.0100  -22.1210   -9.3120 H       1  UNL1        0.1890
     18  S         25.3610  -23.9220  -13.4610 S.O2    1  UNL1        0.2660
     19  O         26.7030  -23.7440  -12.9420 O.2     1  UNL1       -0.2000
     20  O         24.8920  -25.2330  -13.8480 O.2     1  UNL1       -0.2000
     21  C         25.1750  -22.8100  -14.8320 C.2     1  UNL1        0.0800
     22  C         25.1050  -21.4340  -14.5990 C.2     1  UNL1        0.0260
     23  C         24.9890  -20.5580  -15.6790 C.2     1  UNL1        0.0080
     24  C         24.9400  -21.0490  -16.9910 C.2     1  UNL1       -0.0620
     25  C         24.8510  -20.1030  -18.1530 C.3     1  UNL1        0.0480
     26  C         25.0390  -22.4300  -17.2110 C.2     1  UNL1        0.0080
     27  C         25.1580  -23.3110  -16.1350 C.2     1  UNL1        0.0260
     28  C         16.9190  -23.2070   -8.0970 C.2     1  UNL1        0.0570
     29  C         16.5100  -24.3680   -7.4730 C.2     1  UNL1        0.0350
     30  C         15.5730  -23.9800   -6.4850 C.2     1  UNL1        0.0270
     31  C         15.4710  -22.6120   -6.5690 C.2     1  UNL1        0.1420
     32  O         16.2850  -22.1340   -7.5450 O.2     1  UNL1       -0.3270
@<TRIPOS>BOND
     1    25    24    1
     2    26    24    2
     3    26    27    1
     4    24    23    1
     5    27    21    2
     6    23    22    2
     7    21    22    1
     8    21    18    1
     9    20    18    2
    10    18    19    2
    11    18    14    1
    12    16    14    1
    13    14    13   am
    14    11    10    2
    15     3     2    1
    16     3     4    2
    17     2     1    2
    18    10     4    1
    19    10     9    1
    20    13    15    2
    21    13    12   am
    22     4     5    1
    23     1    12    1
    24     1     6    1
    25    12    17    1
    26     9     8    1
    27     5     6    2
    28     5     7    1
    29     8     7    1
    30     8    28    1
    31    28    32    1
    32    28    29    2
    33    32    31    1
    34    29    30    1
    35    31    30    2
