@<TRIPOS>MOLECULE
20385_out_ligand_01.pdbqt
 41 45 0 0 0
SMALL
GASTEIGER

@<TRIPOS>ATOM
      1  C         20.4310  -21.7530  -11.7040 C.ar    1  UNL1        0.1530
      2  N         21.3410  -21.4120  -12.6010 N.ar    1  UNL1       -0.1320
      3  N         22.5730  -21.6760  -12.0840 N.ar    1  UNL1       -0.1220
      4  C         22.4080  -22.1890  -10.8860 C.ar    1  UNL1        0.1960
      5  N         21.0580  -22.2810  -10.5780 N.ar    1  UNL1       -0.2740
      6  S         23.7090  -22.8260   -9.9280 S.3     1  UNL1       -0.0800
      7  C         25.1260  -21.9970  -10.7220 C.3     1  UNL1        0.1850
      8  C         26.0190  -23.0190  -11.4180 C.2     1  UNL1        0.2340
      9  O         26.6160  -23.8830  -10.7640 O.2     1  UNL1       -0.2720
     10  N         26.0780  -23.0000  -12.8150 N.am    1  UNL1       -0.3170
     11  C         26.4320  -24.2610  -13.4710 C.3     1  UNL1        0.1320
     12  C         25.9730  -21.8530  -13.6710 C.2     1  UNL1        0.0430
     13  C         25.5330  -24.5100  -14.6680 C.3     1  UNL1        0.0250
     14  C         25.7340  -23.4050  -15.6900 C.3     1  UNL1        0.0420
     15  C         25.7810  -22.0360  -15.0590 C.2     1  UNL1       -0.0310
     16  C         25.6880  -20.9210  -15.9140 C.2     1  UNL1        0.0090
     17  C         25.7930  -19.6290  -15.4100 C.2     1  UNL1        0.0010
     18  C         26.0210  -19.4410  -14.0520 C.2     1  UNL1        0.0020
     19  C         26.1270  -20.5430  -13.1960 C.2     1  UNL1        0.0300
     20  C         20.4460  -22.7770   -9.3930 C.2     1  UNL1        0.0440
     21  C         20.0910  -24.1280   -9.2940 C.2     1  UNL1        0.0300
     22  C         19.4910  -24.6090   -8.1300 C.2     1  UNL1        0.0030
     23  C         19.2440  -23.7490   -7.0600 C.2     1  UNL1        0.0160
     24  C         19.5860  -22.3930   -7.1420 C.2     1  UNL1        0.0500
     25  C         20.1910  -21.9140   -8.3170 C.2     1  UNL1        0.0460
     26  C         19.3200  -21.4570   -5.9820 C.3     1  UNL1        0.4170
     27  F         18.9510  -22.1140   -4.8520 F       1  UNL1       -0.1660
     28  F         18.3130  -20.5690   -6.2370 F       1  UNL1       -0.1660
     29  F         20.4040  -20.6990   -5.6550 F       1  UNL1       -0.1660
     30  C         18.9780  -21.4840  -11.8720 C.3     1  UNL1        0.2040
     31  N         18.2720  -22.1840  -10.8220 N.am    1  UNL1       -0.3500
     32  C         17.0580  -21.7600  -10.3350 C.2     1  UNL1        0.2520
     33  O         16.4990  -20.7480  -10.7430 O.2     1  UNL1       -0.2680
     34  H         18.7610  -22.9600  -10.3920 H       1  UNL1        0.1630
     35  C         16.4510  -22.5700   -9.2420 C.2     1  UNL1        0.0320
     36  C         16.1320  -23.9070   -9.5120 C.2     1  UNL1        0.0170
     37  C         15.5530  -24.7030   -8.5250 C.2     1  UNL1        0.0020
     38  C         15.3000  -24.1760   -7.2590 C.2     1  UNL1        0.0070
     39  C         15.6440  -22.8510   -6.9610 C.2     1  UNL1       -0.0610
     40  C         15.3680  -22.2820   -5.6000 C.3     1  UNL1        0.0480
     41  C         16.2100  -22.0470   -7.9620 C.2     1  UNL1        0.0230
@<TRIPOS>BOND
     1    16    17    2
     2    16    15    1
     3    14    15    1
     4    14    13    1
     5    17    18    1
     6    15    12    2
     7    13    11    1
     8    18    19    2
     9    12    19    1
    10    12    10    1
    11    11    10    1
    12    10     8   am
    13     2     3   ar
    14     2     1   ar
    15     3     4   ar
    16    30     1    1
    17    30    31    1
    18     1     5   ar
    19     8     9    2
    20     8     7    1
    21     4     5   ar
    22     4     6    1
    23    31    34    1
    24    31    32   am
    25    33    32    2
    26     7     6    1
    27     5    20    1
    28    32    35    1
    29    36    35    2
    30    36    37    1
    31    20    21    2
    32    20    25    1
    33    21    22    1
    34    35    41    1
    35    37    38    2
    36    25    24    2
    37    22    23    2
    38    41    39    2
    39    38    39    1
    40    24    23    1
    41    24    26    1
    42    39    40    1
    43    28    26    1
    44    26    29    1
    45    26    27    1
