@<TRIPOS>MOLECULE
20397_out_ligand_01.pdbqt
 31 33 0 0 0
SMALL
GASTEIGER

@<TRIPOS>ATOM
      1  N         18.1750  -22.1690  -10.2910 N.am    1  UNL1       -0.3570
      2  C         19.1050  -21.5490  -11.1010 C.2     1  UNL1        0.2510
      3  O         18.8040  -20.6510  -11.8830 O.2     1  UNL1       -0.2680
      4  H         18.4410  -22.9110   -9.6620 H       1  UNL1        0.1620
      5  C         16.7580  -21.8550  -10.3730 C.3     1  UNL1        0.1270
      6  C         15.8760  -22.9330   -9.7270 C.3     1  UNL1        0.0580
      7  C         16.0370  -23.1320   -8.2330 C.2     1  UNL1       -0.0570
      8  C         16.8110  -24.1770   -7.7070 C.2     1  UNL1        0.0090
      9  C         16.9460  -24.3440   -6.3270 C.2     1  UNL1        0.0250
     10  C         16.2800  -23.4740   -5.4630 C.2     1  UNL1        0.0740
     11  C         15.4930  -22.4360   -5.9660 C.2     1  UNL1        0.0250
     12  C         15.3690  -22.2740   -7.3470 C.2     1  UNL1        0.0090
     13  S         16.4530  -23.6630   -3.7100 S.O2    1  UNL1        0.2390
     14  O         17.8600  -23.7110   -3.3920 O.2     1  UNL1       -0.2060
     15  O         15.5170  -24.6650   -3.2540 O.2     1  UNL1       -0.2060
     16  N         15.8440  -22.1940   -3.1530 N.3     1  UNL1       -0.2250
     17  H         16.1980  -21.9360   -2.2310 H       1  UNL1        0.1360
     18  H         16.0370  -21.4750   -3.8520 H       1  UNL1        0.1360
     19  C         20.5270  -22.0110  -11.0210 C.2     1  UNL1        0.0340
     20  C         20.9080  -22.7440   -9.8850 C.2     1  UNL1        0.0170
     21  C         22.2200  -23.1890   -9.7320 C.2     1  UNL1        0.0030
     22  C         23.1620  -22.9150  -10.7210 C.2     1  UNL1        0.0300
     23  C         22.7940  -22.2170  -11.8750 C.2     1  UNL1        0.0450
     24  C         21.4850  -21.7430  -12.0090 C.2     1  UNL1        0.0470
     25  N         23.8280  -21.8900  -12.8050 N.pl3   1  UNL1       -0.2760
     26  C         23.4760  -21.2140  -14.0760 C.3     1  UNL1        0.1420
     27  C         24.5340  -21.6120  -15.1140 C.3     1  UNL1        0.0380
     28  C         25.8110  -21.9460  -14.3540 C.3     1  UNL1        0.1650
     29  S         25.2140  -22.8670  -12.9560 S.O2    1  UNL1        0.2330
     30  O         26.0720  -22.6700  -11.8120 O.2     1  UNL1       -0.2050
     31  O         24.8300  -24.1830  -13.4250 O.2     1  UNL1       -0.2050
@<TRIPOS>BOND
     1    27    28    1
     2    27    26    1
     3    28    29    1
     4    26    25    1
     5    31    29    2
     6    29    25    1
     7    29    30    2
     8    25    23    1
     9    24    23    1
    10    24    19    2
    11     3     2    2
    12    23    22    2
    13     2    19    1
    14     2     1   am
    15    19    20    1
    16    22    21    1
    17     5     1    1
    18     5     6    1
    19     1     4    1
    20    20    21    2
    21     6     7    1
    22     7     8    2
    23     7    12    1
    24     8     9    1
    25    12    11    2
    26     9    10    2
    27    11    10    1
    28    10    13    1
    29    18    16    1
    30    13    14    2
    31    13    15    2
    32    13    16    1
    33    16    17    1
