@<TRIPOS>MOLECULE
203_out_ligand_01.pdbqt
 34 37 0 0 0
SMALL
GASTEIGER

@<TRIPOS>ATOM
      1  C         21.4790  -23.3030   -9.4520 C.2     1  UNL1        0.0330
      2  C         22.7560  -23.6910   -8.9810 C.2     1  UNL1        0.0180
      3  C         23.9090  -23.3850   -9.7130 C.2     1  UNL1        0.0190
      4  C         23.7470  -22.7040  -10.9070 C.2     1  UNL1        0.0480
      5  C         22.5060  -22.3390  -11.3730 C.2     1  UNL1        0.0490
      6  C         21.3470  -22.6270  -10.6750 C.2     1  UNL1        0.0350
      7  C         22.6960  -21.6500  -12.6460 C.2     1  UNL1        0.2660
      8  O         21.7390  -21.2100  -13.2560 O.2     1  UNL1       -0.2670
      9  N         24.0540  -21.6330  -12.9070 N.am    1  UNL1       -0.2440
     10  C         24.7370  -22.2550  -11.8780 C.2     1  UNL1        0.2660
     11  O         25.9220  -22.4580  -11.6840 O.2     1  UNL1       -0.2670
     12  C         20.2400  -23.6350   -8.6940 C.2     1  UNL1        0.2560
     13  N         19.4560  -22.5490   -8.3520 N.am    1  UNL1       -0.3230
     14  H         19.7070  -21.6520   -8.7480 H       1  UNL1        0.1690
     15  O         20.0020  -24.8150   -8.4750 O.2     1  UNL1       -0.2670
     16  C         18.2660  -22.5660   -7.5930 C.2     1  UNL1        0.0360
     17  C         17.0540  -22.5920   -8.2990 C.2     1  UNL1        0.0290
     18  C         15.8300  -22.6090   -7.6250 C.2     1  UNL1        0.0040
     19  C         15.8000  -22.5980   -6.2350 C.2     1  UNL1        0.0250
     20  C         17.0040  -22.5670   -5.5290 C.2     1  UNL1        0.0760
     21  C         18.2350  -22.5460   -6.1990 C.2     1  UNL1        0.0540
     22  S         16.9950  -22.5280   -3.7630 S.O2    1  UNL1        0.2390
     23  O         15.6520  -22.2610   -3.3090 O.2     1  UNL1       -0.2060
     24  O         17.7770  -23.6350   -3.2590 O.2     1  UNL1       -0.2060
     25  N         17.9010  -21.1560   -3.4280 N.3     1  UNL1       -0.2250
     26  H         18.0500  -21.0720   -2.4230 H       1  UNL1        0.1360
     27  H         18.7580  -21.1580   -3.9800 H       1  UNL1        0.1360
     28  C         24.6610  -21.0490  -14.0640 C.2     1  UNL1        0.0460
     29  C         25.4210  -19.8690  -13.9840 C.2     1  UNL1        0.0320
     30  C         26.0160  -19.2950  -15.1170 C.2     1  UNL1        0.0260
     31  C         25.8620  -19.8920  -16.3600 C.2     1  UNL1        0.0340
     32 CL         26.5900  -19.1920  -17.7500 Cl      1  UNL1       -0.0840
     33  C         25.1180  -21.0570  -16.4760 C.2     1  UNL1        0.0260
     34  C         24.5250  -21.6270  -15.3400 C.2     1  UNL1        0.0320
@<TRIPOS>BOND
     1    32    31    1
     2    33    31    2
     3    33    34    1
     4    31    30    1
     5    34    28    2
     6    30    29    2
     7    28    29    1
     8    28     9    1
     9     8     7    2
    10     9     7   am
    11     9    10   am
    12     7     5    1
    13    10    11    2
    14    10     4    1
    15     5     4    2
    16     5     6    1
    17     4     3    1
    18     6     1    2
    19     3     2    2
    20     1     2    1
    21     1    12    1
    22    14    13    1
    23    12    15    2
    24    12    13   am
    25    13    16    1
    26    17    18    1
    27    17    16    2
    28    18    19    2
    29    16    21    1
    30    19    20    1
    31    21    20    2
    32    20    22    1
    33    27    25    1
    34    22    25    1
    35    22    23    2
    36    22    24    2
    37    25    26    1
