@<TRIPOS>MOLECULE
20407_out_ligand_01.pdbqt
 33 36 0 0 0
SMALL
GASTEIGER

@<TRIPOS>ATOM
      1  C         19.2650  -22.4400  -10.1810 C.2     1  UNL1        0.0340
      2  C         19.0980  -21.7100  -11.3670 C.2     1  UNL1        0.0180
      3  C         20.2060  -21.4290  -12.1730 C.2     1  UNL1        0.0200
      4  C         21.4740  -21.8890  -11.7980 C.ar    1  UNL1        0.0590
      5  C         22.6610  -21.6130  -12.6280 C.ar    1  UNL1        0.2640
      6  O         22.5290  -20.9410  -13.6500 O.2     1  UNL1       -0.2670
      7  N         23.8730  -22.1430  -12.1910 N.ar    1  UNL1       -0.2650
      8  C         24.0300  -22.8600  -11.0140 C.ar    1  UNL1        0.3290
      9  O         25.1040  -23.2840  -10.5920 O.2     1  UNL1       -0.2460
     10  N         22.9000  -23.0820  -10.2770 N.ar    1  UNL1       -0.3070
     11  C         21.6350  -22.6290  -10.6330 C.ar    1  UNL1        0.0530
     12  C         20.5360  -22.9120   -9.8220 C.2     1  UNL1        0.0470
     13  H         23.0390  -23.6250   -9.4320 H       1  UNL1        0.1700
     14  C         18.1150  -22.7700   -9.2920 C.2     1  UNL1        0.2560
     15  O         17.1210  -23.2710   -9.8030 O.2     1  UNL1       -0.2670
     16  N         18.3130  -22.5050   -7.9490 N.am    1  UNL1       -0.3230
     17  H         19.2410  -22.2180   -7.6670 H       1  UNL1        0.1690
     18  C         17.3830  -22.6840   -6.9010 C.2     1  UNL1        0.0380
     19  C         17.8100  -23.4300   -5.7900 C.2     1  UNL1        0.0320
     20  C         16.9550  -23.6500   -4.7060 C.2     1  UNL1        0.0480
     21  C         15.6720  -23.1210   -4.7300 C.2     1  UNL1        0.1540
     22  F         14.8540  -23.3320   -3.6900 F       1  UNL1       -0.2030
     23  C         15.2440  -22.3780   -5.8210 C.2     1  UNL1        0.1570
     24  F         14.0050  -21.8650   -5.8380 F       1  UNL1       -0.2030
     25  C         16.0890  -22.1550   -6.9060 C.2     1  UNL1        0.0750
     26  C         25.0470  -21.9400  -13.0370 C.3     1  UNL1        0.1420
     27  C         25.2900  -23.0910  -14.0290 C.3     1  UNL1        0.0590
     28  C         25.0590  -22.7200  -15.4750 C.2     1  UNL1       -0.0570
     29  C         25.3980  -21.4420  -15.9390 C.2     1  UNL1        0.0070
     30  C         25.1720  -21.0870  -17.2700 C.2     1  UNL1        0.0010
     31  C         24.6070  -22.0070  -18.1500 C.2     1  UNL1        0.0000
     32  C         24.2670  -23.2810  -17.7000 C.2     1  UNL1        0.0010
     33  C         24.4940  -23.6380  -16.3700 C.2     1  UNL1        0.0070
@<TRIPOS>BOND
     1    31    32    2
     2    31    30    1
     3    32    33    1
     4    30    29    2
     5    33    28    2
     6    29    28    1
     7    28    27    1
     8    27    26    1
     9     6     5    2
    10    26     7    1
    11     5     7   ar
    12     5     4   ar
    13     7     8   ar
    14     3     4    2
    15     3     2    1
    16     4    11   ar
    17     2     1    2
    18     8     9    2
    19     8    10   ar
    20    11    10   ar
    21    11    12    2
    22    10    13    1
    23     1    12    1
    24     1    14    1
    25    15    14    2
    26    14    16   am
    27    16    17    1
    28    16    18    1
    29    25    18    2
    30    25    23    1
    31    18    19    1
    32    24    23    1
    33    23    21    2
    34    19    20    2
    35    21    20    1
    36    21    22    1
