@<TRIPOS>MOLECULE
20411_out_ligand_01.pdbqt
 37 40 0 0 0
SMALL
GASTEIGER

@<TRIPOS>ATOM
      1  N         21.9430  -23.0080   -9.4350 N.3     1  UNL1        0.1040
      2  C         23.4080  -23.2150   -9.3480 C.3     1  UNL1        0.3590
      3  C         24.2790  -22.4880  -10.3340 C.2     1  UNL1        0.1740
      4  O         24.6530  -23.2020  -11.4420 O.2     1  UNL1       -0.3030
      5  C         25.4100  -22.3300  -12.1630 C.2     1  UNL1        0.1810
      6  C         25.4780  -21.1340  -11.4830 C.2     1  UNL1        0.1490
      7  N         24.7500  -21.2570  -10.3100 N.2     1  UNL1       -0.2190
      8  C         26.1600  -19.9000  -11.8730 C.2     1  UNL1        0.2720
      9  O         26.5380  -19.0720  -11.0480 O.2     1  UNL1       -0.2660
     10  N         26.3650  -19.7310  -13.2310 N.am    1  UNL1       -0.3510
     11  H         26.2070  -20.5050  -13.8560 H       1  UNL1        0.1630
     12  C         27.1210  -18.6090  -13.7410 C.3     1  UNL1        0.1630
     13  C         26.7630  -18.3140  -15.1680 C.2     1  UNL1       -0.0230
     14  C         26.7820  -17.0100  -15.6700 C.2     1  UNL1        0.0120
     15  C         26.4620  -16.7760  -17.0040 C.2     1  UNL1        0.0200
     16  C         26.1340  -17.8610  -17.7990 C.2     1  UNL1        0.1160
     17  N         26.1090  -19.1370  -17.3550 N.2     1  UNL1       -0.2730
     18  C         26.4220  -19.3330  -16.0530 C.2     1  UNL1        0.1240
     19  C         21.4920  -23.0000  -10.8370 C.3     1  UNL1        0.3120
     20  C         20.1810  -22.2630  -11.0280 C.2     1  UNL1       -0.0270
     21  C         20.1620  -20.9780  -11.5950 C.2     1  UNL1        0.0090
     22  C         18.9580  -20.2890  -11.7570 C.2     1  UNL1        0.0040
     23  C         17.7600  -20.8750  -11.3500 C.2     1  UNL1        0.0420
     24  C         17.7780  -22.1430  -10.7850 C.2     1  UNL1        0.1170
     25  F         16.6260  -22.7060  -10.3950 F       1  UNL1       -0.2060
     26  C         18.9710  -22.8380  -10.6180 C.2     1  UNL1        0.0510
     27  C         21.1690  -23.9770   -8.6360 C.3     1  UNL1        0.3110
     28  C         20.0820  -23.3320   -7.8000 C.2     1  UNL1       -0.0290
     29  C         20.3230  -22.1210   -7.1370 C.2     1  UNL1        0.0090
     30  C         19.3270  -21.5280   -6.3620 C.2     1  UNL1        0.0010
     31  C         18.0800  -22.1410   -6.2390 C.2     1  UNL1        0.0160
     32  C         17.8150  -23.3560   -6.8890 C.2     1  UNL1        0.0480
     33  C         18.8230  -23.9410   -7.6730 C.2     1  UNL1        0.0250
     34  C         16.4590  -24.0030   -6.7560 C.3     1  UNL1        0.4170
     35  F         16.2890  -25.0390   -7.6210 F       1  UNL1       -0.1660
     36  F         16.2150  -24.5080   -5.5140 F       1  UNL1       -0.1660
     37  F         15.4390  -23.1360   -7.0080 F       1  UNL1       -0.1660
@<TRIPOS>BOND
     1    16    17    2
     2    16    15    1
     3    17    18    1
     4    15    14    2
     5    18    13    2
     6    14    13    1
     7    13    12    1
     8    11    10    1
     9    12    10    1
    10    10     8   am
    11     5     6    2
    12     5     4    1
    13     8     6    1
    14     8     9    2
    15    22    21    1
    16    22    23    2
    17    21    20    2
    18     6     7    1
    19     4     3    1
    20    23    24    1
    21    20    19    1
    22    20    26    1
    23    19     1    1
    24    24    26    2
    25    24    25    1
    26     3     7    2
    27     3     2    1
    28     1     2    1
    29     1    27    1
    30    27    28    1
    31    28    33    2
    32    28    29    1
    33    33    32    1
    34    35    34    1
    35    29    30    2
    36    37    34    1
    37    32    34    1
    38    32    31    2
    39    34    36    1
    40    30    31    1
