@<TRIPOS>MOLECULE
20417_out_ligand_01.pdbqt
 30 33 0 0 0
SMALL
GASTEIGER

@<TRIPOS>ATOM
      1  C         22.5440  -23.0380   -8.9040 C.2     1  UNL1       -0.0580
      2  C         22.2950  -21.9590   -8.0510 C.2     1  UNL1        0.0090
      3  C         21.0660  -21.8470   -7.3940 C.2     1  UNL1        0.0300
      4  C         20.0660  -22.8100   -7.5750 C.2     1  UNL1        0.0350
      5  C         20.3140  -23.8810   -8.4320 C.2     1  UNL1        0.0300
      6  C         21.5420  -23.9960   -9.0930 C.2     1  UNL1        0.0090
      7  C         23.8920  -23.1890   -9.5750 C.3     1  UNL1        0.0460
      8  C         24.2620  -21.9920  -10.4570 C.3     1  UNL1        0.0830
      9  C         24.4300  -22.3700  -11.8910 C.ar    1  UNL1        0.1050
     10  N         24.9300  -23.5900  -12.2740 N.ar    1  UNL1       -0.3430
     11  C         24.9820  -23.6240  -13.6440 C.ar    1  UNL1        0.0620
     12  H         25.2460  -24.3190  -11.6490 H       1  UNL1        0.1670
     13  C         25.4080  -24.5990  -14.5450 C.2     1  UNL1        0.0320
     14  C         24.4850  -22.3860  -14.0330 C.ar    1  UNL1        0.0860
     15  C         25.3120  -24.2790  -15.9070 C.2     1  UNL1        0.0090
     16  C         24.8260  -23.0370  -16.3410 C.2     1  UNL1       -0.0600
     17  C         24.7060  -22.7450  -17.8090 C.3     1  UNL1        0.0480
     18  C         24.3960  -22.0840  -15.4000 C.2     1  UNL1        0.0400
     19  N         24.1480  -21.6260  -12.9400 N.ar    1  UNL1       -0.2330
     20  N         18.8610  -22.6240   -6.8680 N.am    1  UNL1       -0.3230
     21  C         17.9500  -23.5880   -6.4810 C.2     1  UNL1        0.2570
     22  O         18.0310  -24.7920   -6.6990 O.2     1  UNL1       -0.2670
     23  H         18.6650  -21.6720   -6.5820 H       1  UNL1        0.1690
     24  C         16.7320  -23.0910   -5.7740 C.2     1  UNL1        0.0540
     25  C         15.7020  -22.5920   -6.5930 C.2     1  UNL1        0.0190
     26  C         14.5230  -22.0960   -6.0360 C.2     1  UNL1        0.0010
     27  C         14.3520  -22.1000   -4.6560 C.2     1  UNL1        0.0020
     28  C         15.3590  -22.6070   -3.8330 C.2     1  UNL1        0.0250
     29  C         16.5460  -23.1070   -4.3850 C.2     1  UNL1        0.0490
     30 CL         17.7030  -23.7530   -3.2730 Cl      1  UNL1       -0.0830
@<TRIPOS>BOND
     1    17    16    1
     2    16    15    2
     3    16    18    1
     4    15    13    1
     5    18    14    2
     6    13    11    2
     7    14    11   ar
     8    14    19   ar
     9    11    10   ar
    10    19     9   ar
    11    10     9   ar
    12    10    12    1
    13     9     8    1
    14     8     7    1
    15     7     1    1
    16     6     1    2
    17     6     5    1
    18     1     2    1
    19     5     4    2
    20     2     3    2
    21     4     3    1
    22     4    20    1
    23    20    23    1
    24    20    21   am
    25    22    21    2
    26    25    26    1
    27    25    24    2
    28    21    24    1
    29    26    27    2
    30    24    29    1
    31    27    28    1
    32    29    28    2
    33    29    30    1
