@<TRIPOS>MOLECULE
20424_out_ligand_01.pdbqt
 29 31 0 0 0
SMALL
GASTEIGER

@<TRIPOS>ATOM
      1  C         19.1470  -23.1960   -7.2740 C.2     1  UNL1       -0.0050
      2  C         20.0810  -22.1540   -7.1530 C.2     1  UNL1        0.0150
      3  C         21.3170  -22.2170   -7.8040 C.2     1  UNL1        0.0180
      4  C         21.6440  -23.3240   -8.5960 C.2     1  UNL1        0.0320
      5  C         20.7080  -24.3520   -8.7580 C.2     1  UNL1        0.0180
      6  C         19.4740  -24.2850   -8.1000 C.2     1  UNL1        0.0150
      7  C         17.8400  -23.1420   -6.5930 C.2     1  UNL1        0.0930
      8  N         17.8490  -23.7340   -5.3680 N.2     1  UNL1       -0.2580
      9  C         16.6880  -23.7670   -4.6820 C.2     1  UNL1        0.1170
     10  C         15.5100  -23.2240   -5.1530 C.2     1  UNL1        0.0220
     11  C         15.5150  -22.6010   -6.3990 C.2     1  UNL1        0.0330
     12  C         16.6910  -22.5370   -7.1500 C.2     1  UNL1        0.0640
     13  N         16.7670  -21.8770   -8.4050 N.am    1  UNL1       -0.3250
     14  C         16.5210  -22.4040   -9.6610 C.2     1  UNL1        0.2210
     15  O         16.2050  -23.5600   -9.9170 O.2     1  UNL1       -0.2730
     16  H         17.0160  -20.8950   -8.3730 H       1  UNL1        0.1690
     17  C         16.6970  -21.3520  -10.7450 C.3     1  UNL1        0.0980
     18  C         18.0690  -21.4070  -11.3960 C.3     1  UNL1        0.0140
     19  C         22.9740  -23.3440   -9.2750 C.2     1  UNL1        0.2560
     20  O         23.8390  -24.0870   -8.8290 O.2     1  UNL1       -0.2670
     21  N         23.0750  -22.5340  -10.3930 N.am    1  UNL1       -0.3230
     22  H         22.2290  -22.0840  -10.7140 H       1  UNL1        0.1690
     23  C         24.2170  -22.3300  -11.1990 C.2     1  UNL1        0.0360
     24  C         25.2260  -21.4110  -10.9070 C.2     1  UNL1        0.0290
     25  C         26.3250  -21.2620  -11.7610 C.2     1  UNL1        0.0040
     26  C         26.4220  -22.0320  -12.9170 C.2     1  UNL1        0.0240
     27  C         25.4170  -22.9470  -13.2150 C.2     1  UNL1        0.0360
     28 CL         25.5280  -23.9010  -14.6440 Cl      1  UNL1       -0.0840
     29  C         24.3180  -23.0980  -12.3660 C.2     1  UNL1        0.0530
@<TRIPOS>BOND
     1    28    27    1
     2    27    26    2
     3    27    29    1
     4    26    25    1
     5    29    23    2
     6    25    24    2
     7    18    17    1
     8    23    24    1
     9    23    21    1
    10    17    14    1
    11    22    21    1
    12    21    19   am
    13    15    14    2
    14    14    13   am
    15    19    20    2
    16    19     4    1
    17     5     4    2
    18     5     6    1
    19     4     3    1
    20    13    16    1
    21    13    12    1
    22     6     1    2
    23     3     2    2
    24     1     2    1
    25     1     7    1
    26    12     7    2
    27    12    11    1
    28     7     8    1
    29    11    10    2
    30     8     9    2
    31    10     9    1
