@<TRIPOS>MOLECULE
20421_out_ligand_01.pdbqt
 32 34 0 0 0
SMALL
GASTEIGER

@<TRIPOS>ATOM
      1  C         20.4370  -22.4830   -7.4550 C.2     1  UNL1        0.0720
      2  C         19.2460  -23.1940   -7.2310 C.2     1  UNL1        0.0450
      3  C         18.3300  -22.7490   -6.2710 C.2     1  UNL1        0.0800
      4  C         18.6020  -21.6170   -5.4980 C.2     1  UNL1        0.0280
      5  C         19.7910  -20.9170   -5.7040 C.2     1  UNL1        0.0450
      6  C         20.6930  -21.3490   -6.6770 C.2     1  UNL1        0.1320
      7  F         21.8190  -20.6380   -6.8450 F       1  UNL1       -0.2050
      8  S         16.8260  -23.6600   -6.0130 S.O2    1  UNL1        0.2580
      9  O         16.2480  -23.2090   -4.7640 O.2     1  UNL1       -0.2010
     10  O         17.0970  -25.0550   -6.2700 O.2     1  UNL1       -0.2010
     11  N         15.8390  -23.0470   -7.2190 N.3     1  UNL1       -0.3150
     12  H         14.9280  -22.7390   -6.8740 H       1  UNL1        0.1720
     13  C         15.8620  -23.6490   -8.5630 C.3     1  UNL1        0.1370
     14  C         15.6100  -22.6070   -9.6600 C.3     1  UNL1        0.0580
     15  C         16.8770  -22.1730  -10.3640 C.2     1  UNL1       -0.0570
     16  C         16.9560  -20.9120  -10.9740 C.2     1  UNL1        0.0070
     17  C         18.1170  -20.5230  -11.6430 C.2     1  UNL1        0.0010
     18  C         19.2050  -21.3880  -11.7120 C.2     1  UNL1        0.0000
     19  C         19.1390  -22.6430  -11.1080 C.2     1  UNL1        0.0010
     20  C         17.9800  -23.0340  -10.4360 C.2     1  UNL1        0.0070
     21  C         21.3550  -22.9630   -8.5340 C.2     1  UNL1        0.2590
     22  N         22.0590  -21.9960   -9.2240 N.am    1  UNL1       -0.3230
     23  H         21.9250  -21.0330   -8.9360 H       1  UNL1        0.1690
     24  O         21.4080  -24.1740   -8.7330 O.2     1  UNL1       -0.2670
     25  C         22.9560  -22.1800  -10.3000 C.2     1  UNL1        0.0350
     26  C         24.1810  -22.7830  -10.0080 C.2     1  UNL1        0.0300
     27  C         25.1240  -23.0050  -11.0150 C.2     1  UNL1        0.0090
     28  C         24.8630  -22.6250  -12.3390 C.2     1  UNL1       -0.0560
     29  C         25.9010  -22.8790  -13.3960 C.3     1  UNL1        0.0490
     30  C         23.6420  -21.9930  -12.6400 C.2     1  UNL1       -0.0540
     31  C         22.6950  -21.7920  -11.6160 C.2     1  UNL1        0.0370
     32  C         23.3010  -21.5620  -14.0410 C.3     1  UNL1        0.0490
@<TRIPOS>BOND
     1    32    30    1
     2    29    28    1
     3    30    28    2
     4    30    31    1
     5    28    27    1
     6    18    17    2
     7    18    19    1
     8    17    16    1
     9    31    25    2
    10    19    20    2
    11    27    26    2
    12    16    15    2
    13    20    15    1
    14    15    14    1
    15    25    26    1
    16    25    22    1
    17    14    13    1
    18    22    23    1
    19    22    21   am
    20    24    21    2
    21    13    11    1
    22    21     1    1
    23     1     2    2
    24     1     6    1
    25     2     3    1
    26    11    12    1
    27    11     8    1
    28     7     6    1
    29     6     5    2
    30     3     8    1
    31     3     4    2
    32    10     8    2
    33     8     9    2
    34     5     4    1
