@<TRIPOS>MOLECULE
20449_out_ligand_01.pdbqt
 34 37 0 0 0
SMALL
GASTEIGER

@<TRIPOS>ATOM
      1  C         21.3310  -22.8840  -10.2850 C.2     1  UNL1        0.0340
      2  C         21.0230  -22.0820  -11.3940 C.2     1  UNL1        0.0310
      3  C         22.0010  -21.7620  -12.3410 C.2     1  UNL1        0.0270
      4  C         23.2960  -22.2530  -12.1810 C.2     1  UNL1        0.0800
      5  C         23.6220  -23.0400  -11.0750 C.2     1  UNL1        0.0270
      6  C         22.6370  -23.3560  -10.1320 C.2     1  UNL1        0.0310
      7  N         20.2820  -23.1510   -9.3820 N.am    1  UNL1       -0.3260
      8  C         20.2090  -22.8200   -8.0360 C.2     1  UNL1        0.2350
      9  O         21.0850  -22.2300   -7.4050 O.2     1  UNL1       -0.2720
     10  H         19.5070  -23.6820   -9.7610 H       1  UNL1        0.1690
     11  C         18.8790  -23.2050   -7.3430 C.3     1  UNL1        0.1440
     12  C         18.6860  -22.5270   -5.9830 C.2     1  UNL1       -0.0410
     13  C         18.0490  -23.2400   -4.9520 C.2     1  UNL1        0.0080
     14  C         17.8280  -22.6530   -3.7040 C.2     1  UNL1        0.0010
     15  C         18.2370  -21.3450   -3.4690 C.2     1  UNL1        0.0000
     16  C         18.8660  -20.6220   -4.4790 C.2     1  UNL1        0.0010
     17  C         19.0880  -21.2050   -5.7300 C.2     1  UNL1        0.0080
     18  C         17.6650  -23.1260   -8.2750 C.2     1  UNL1       -0.0410
     19  C         17.6040  -22.0920   -9.2270 C.2     1  UNL1        0.0080
     20  C         16.4980  -21.9580  -10.0680 C.2     1  UNL1        0.0010
     21  C         15.4350  -22.8520   -9.9690 C.2     1  UNL1        0.0000
     22  C         15.4760  -23.8800   -9.0310 C.2     1  UNL1        0.0010
     23  C         16.5800  -24.0170   -8.1870 C.2     1  UNL1        0.0080
     24  S         24.5620  -21.8320  -13.3530 S.O2    1  UNL1        0.2760
     25  O         25.3010  -20.6860  -12.8690 O.2     1  UNL1       -0.2000
     26  O         25.2590  -23.0660  -13.6610 O.2     1  UNL1       -0.2000
     27  N         23.7160  -21.4330  -14.7230 N.pl3   1  UNL1       -0.1090
     28  H         22.7320  -21.6690  -14.6830 H       1  UNL1        0.1980
     29  C         24.3040  -21.7170  -15.9480 C.cat   1  UNL1        0.7350
     30  N         25.3890  -20.9740  -16.1960 N.2     1  UNL1       -0.0740
     31  C         26.0770  -21.3100  -17.3020 C.2     1  UNL1        0.1380
     32  C         25.7380  -22.3660  -18.1170 C.2     1  UNL1        0.0400
     33  C         24.6320  -23.0850  -17.7250 C.2     1  UNL1        0.1380
     34  N         23.9090  -22.7930  -16.6280 N.2     1  UNL1       -0.0740
@<TRIPOS>BOND
     1    32    33    1
     2    32    31    2
     3    33    34    2
     4    31    30    1
     5    34    29    1
     6    30    29    2
     7    29    27    1
     8    27    28    1
     9    27    24    1
    10    26    24    2
    11    24    25    2
    12    24     4    1
    13     3     4    2
    14     3     2    1
    15     4     5    1
    16     2     1    2
    17     5     6    2
    18     1     6    1
    19     1     7    1
    20    20    21    2
    21    20    19    1
    22    21    22    1
    23    10     7    1
    24     7     8   am
    25    19    18    2
    26    22    23    2
    27    18    23    1
    28    18    11    1
    29     8     9    2
    30     8    11    1
    31    11    12    1
    32    12    17    2
    33    12    13    1
    34    17    16    1
    35    13    14    2
    36    16    15    2
    37    14    15    1
