@<TRIPOS>MOLECULE
20445_out_ligand_01.pdbqt
 30 33 0 0 0
SMALL
GASTEIGER

@<TRIPOS>ATOM
      1  C         19.1620  -22.1620  -10.1840 C.2     1  UNL1        0.0720
      2  C         18.6940  -23.0300   -9.1840 C.2     1  UNL1        0.0450
      3  C         17.3220  -23.1170   -8.9210 C.2     1  UNL1        0.0760
      4  C         16.4060  -22.3300   -9.6240 C.2     1  UNL1        0.0280
      5  C         16.8690  -21.4600  -10.6100 C.2     1  UNL1        0.0450
      6  C         18.2360  -21.3830  -10.8840 C.2     1  UNL1        0.1320
      7  F         18.6340  -20.5340  -11.8450 F       1  UNL1       -0.2050
      8  S         16.7240  -24.2040   -7.6360 S.O2    1  UNL1        0.2480
      9  O         17.8890  -24.8950   -7.1220 O.2     1  UNL1       -0.2050
     10  O         15.5980  -24.9390   -8.1750 O.2     1  UNL1       -0.2050
     11  N         16.1530  -23.0880   -6.4840 N.pl3   1  UNL1       -0.1710
     12  C         15.1240  -23.6050   -5.5170 C.3     1  UNL1        0.1180
     13  C         15.2800  -22.7710   -4.2350 C.3     1  UNL1        0.0560
     14  C         16.6580  -22.2210   -4.3880 C.2     1  UNL1       -0.0350
     15  C         17.4020  -21.5360   -3.4370 C.2     1  UNL1        0.0090
     16  C         17.1380  -22.4160   -5.6830 C.2     1  UNL1        0.0310
     17  C         18.6460  -21.0300   -3.8110 C.2     1  UNL1        0.0010
     18  C         19.1160  -21.1920   -5.1230 C.2     1  UNL1        0.0020
     19  C         18.3500  -21.8750   -6.0740 C.2     1  UNL1        0.0250
     20  C         20.6300  -22.1310  -10.4640 C.2     1  UNL1        0.2590
     21  O         21.3900  -22.0990   -9.5020 O.2     1  UNL1       -0.2670
     22  N         21.0090  -22.1460  -11.7930 N.am    1  UNL1       -0.3230
     23  H         20.2670  -22.1920  -12.4840 H       1  UNL1        0.1690
     24  C         22.3200  -22.1190  -12.3160 C.2     1  UNL1        0.0370
     25  C         22.5420  -21.2970  -13.4330 C.2     1  UNL1        0.0290
     26  C         23.8090  -21.2070  -14.0190 C.2     1  UNL1        0.0050
     27  C         24.8670  -21.9400  -13.4910 C.2     1  UNL1        0.0420
     28  C         24.6460  -22.7520  -12.3840 C.2     1  UNL1        0.1180
     29  F         25.6670  -23.4570  -11.8770 F       1  UNL1       -0.2060
     30  C         23.3880  -22.8470  -11.7940 C.2     1  UNL1        0.0710
@<TRIPOS>BOND
     1    26    27    2
     2    26    25    1
     3    27    28    1
     4    25    24    2
     5    23    22    1
     6    28    29    1
     7    28    30    2
     8    24    30    1
     9    24    22    1
    10     7     6    1
    11    22    20   am
    12     6     5    1
    13     6     1    2
    14     5     4    2
    15    20     1    1
    16    20    21    2
    17     1     2    1
    18     4     3    1
    19     2     3    2
    20     3     8    1
    21    10     8    2
    22     8     9    2
    23     8    11    1
    24    11    16    1
    25    11    12    1
    26    19    16    1
    27    19    18    2
    28    16    14    2
    29    12    13    1
    30    18    17    1
    31    14    13    1
    32    14    15    1
    33    17    15    2
