@<TRIPOS>MOLECULE
20454_out_ligand_01.pdbqt
 36 40 0 0 0
SMALL
GASTEIGER

@<TRIPOS>ATOM
      1  C         16.5230  -21.7790  -10.0780 C.3     1  UNL1        0.1210
      2  C         17.8810  -21.6810  -10.7330 C.2     1  UNL1       -0.0480
      3  C         18.3500  -20.4540  -11.2230 C.2     1  UNL1        0.0090
      4  C         19.6140  -20.3640  -11.8130 C.2     1  UNL1        0.0170
      5  C         20.4340  -21.4920  -11.9040 C.2     1  UNL1        0.0320
      6  C         19.9670  -22.7240  -11.4280 C.2     1  UNL1        0.0170
      7  C         18.7000  -22.8130  -10.8440 C.2     1  UNL1        0.0090
      8  C         21.7800  -21.3410  -12.5270 C.2     1  UNL1        0.2510
      9  O         21.9070  -20.7080  -13.5700 O.2     1  UNL1       -0.2680
     10  N         22.8390  -21.9080  -11.8500 N.am    1  UNL1       -0.3530
     11  H         22.7010  -22.2110  -10.8970 H       1  UNL1        0.1630
     12  C         24.2050  -21.7140  -12.2850 C.3     1  UNL1        0.1620
     13  C         24.5820  -22.7210  -13.3330 C.2     1  UNL1       -0.0230
     14  C         24.5970  -22.3870  -14.6910 C.2     1  UNL1        0.0120
     15  C         24.9770  -23.3400  -15.6320 C.2     1  UNL1        0.0200
     16  C         25.3290  -24.6020  -15.1810 C.2     1  UNL1        0.1160
     17  N         25.3210  -24.9640  -13.8810 N.2     1  UNL1       -0.2730
     18  C         24.9470  -24.0190  -12.9900 C.2     1  UNL1        0.1240
     19  S         16.1820  -23.4770   -9.5260 S.3     1  UNL1       -0.0870
     20  C         16.2210  -23.2640   -7.8080 C.ar    1  UNL1        0.1700
     21  N         15.3300  -22.5880   -7.1200 N.ar    1  UNL1       -0.2220
     22  C         15.7240  -22.6980   -5.8100 C.ar    1  UNL1        0.0890
     23  C         15.1320  -22.1770   -4.6620 C.2     1  UNL1        0.0530
     24  C         16.8820  -23.4620   -5.7010 C.ar    1  UNL1        0.0830
     25  C         15.7660  -22.4780   -3.4690 C.2     1  UNL1        0.1180
     26  N         16.8900  -23.2230   -3.3560 N.2     1  UNL1       -0.2710
     27  C         17.4670  -23.7270   -4.4700 C.2     1  UNL1        0.1480
     28  N         17.1930  -23.8030   -7.0010 N.ar    1  UNL1       -0.3190
     29  C         18.3130  -24.6410   -7.4050 C.3     1  UNL1        0.1700
     30  C         19.5600  -23.8410   -7.6950 C.2     1  UNL1       -0.0370
     31  C         19.6790  -22.5240   -7.2200 C.2     1  UNL1        0.0090
     32  C         20.8220  -21.7640   -7.4920 C.2     1  UNL1        0.0040
     33  C         21.8580  -22.3110   -8.2440 C.2     1  UNL1        0.0420
     34  C         21.7450  -23.6110   -8.7180 C.2     1  UNL1        0.1170
     35  F         22.7450  -24.1400   -9.4330 F       1  UNL1       -0.2060
     36  C         20.6120  -24.3760   -8.4570 C.2     1  UNL1        0.0510
@<TRIPOS>BOND
     1    15    16    2
     2    15    14    1
     3    16    17    1
     4    14    13    2
     5    17    18    2
     6     9     8    2
     7    13    18    1
     8    13    12    1
     9     8     5    1
    10     8    10   am
    11    12    10    1
    12     5     4    2
    13     5     6    1
    14    10    11    1
    15     4     3    1
    16     6     7    2
    17     3     2    2
    18     7     2    1
    19     2     1    1
    20     1    19    1
    21    19    20    1
    22    35    34    1
    23    34    36    1
    24    34    33    2
    25    36    30    2
    26    33    32    1
    27    20    21   ar
    28    20    28   ar
    29    30    29    1
    30    30    31    1
    31    32    31    2
    32    29    28    1
    33    21    22   ar
    34    28    24   ar
    35    22    24   ar
    36    22    23    1
    37    24    27    1
    38    23    25    2
    39    27    26    2
    40    25    26    1
