@<TRIPOS>MOLECULE
20450_out_ligand_01.pdbqt
 38 41 0 0 0
SMALL
GASTEIGER

@<TRIPOS>ATOM
      1  N         19.9930  -23.8360   -8.6870 N.3     1  UNL1        0.1030
      2  C         21.3850  -24.3400   -8.7200 C.3     1  UNL1        0.3400
      3  C         22.3520  -23.3660   -9.3550 C.2     1  UNL1        0.1040
      4  S         22.6440  -21.8360   -8.6230 S.3     1  UNL1       -0.0820
      5  C         23.7220  -21.4420   -9.8920 C.2     1  UNL1        0.0890
      6  C         23.8120  -22.4890  -10.7900 C.2     1  UNL1        0.1320
      7  N         23.0180  -23.5990  -10.4700 N.2     1  UNL1       -0.2380
      8  C         24.6650  -22.4800  -11.9880 C.2     1  UNL1        0.2750
      9  N         24.2240  -21.5460  -12.9040 N.am    1  UNL1       -0.3220
     10  H         23.4140  -21.0140  -12.5940 H       1  UNL1        0.1690
     11  O         25.6280  -23.2270  -12.0990 O.2     1  UNL1       -0.2660
     12  C         24.7530  -21.2500  -14.1720 C.2     1  UNL1        0.0350
     13  C         25.6090  -20.1810  -14.4270 C.2     1  UNL1        0.0300
     14  C         26.0970  -19.9580  -15.7200 C.2     1  UNL1        0.0090
     15  C         25.7350  -20.7950  -16.7820 C.2     1  UNL1       -0.0560
     16  C         26.2980  -20.5310  -18.1520 C.3     1  UNL1        0.0490
     17  C         24.8790  -21.8840  -16.5340 C.2     1  UNL1       -0.0540
     18  C         24.3950  -22.0940  -15.2290 C.2     1  UNL1        0.0370
     19  C         24.4580  -22.8160  -17.6350 C.3     1  UNL1        0.0490
     20  C         19.2160  -24.5370   -7.6460 C.3     1  UNL1        0.3110
     21  C         18.5390  -23.5900   -6.6710 C.2     1  UNL1       -0.0290
     22  C         19.0760  -22.3170   -6.4250 C.2     1  UNL1        0.0090
     23  C         18.4490  -21.4400   -5.5390 C.2     1  UNL1        0.0010
     24  C         17.2740  -21.8220   -4.8930 C.2     1  UNL1        0.0160
     25  C         16.7080  -23.0840   -5.1300 C.2     1  UNL1        0.0480
     26  C         17.3510  -23.9610   -6.0220 C.2     1  UNL1        0.0250
     27  C         15.4440  -23.5150   -4.4270 C.3     1  UNL1        0.4170
     28  F         14.5670  -24.1220   -5.2740 F       1  UNL1       -0.1660
     29  F         15.6560  -24.3980   -3.4110 F       1  UNL1       -0.1660
     30  F         14.7640  -22.4680   -3.8770 F       1  UNL1       -0.1660
     31  C         19.3480  -24.0010  -10.0060 C.3     1  UNL1        0.3150
     32  C         18.6510  -22.7430  -10.4710 C.2     1  UNL1        0.0090
     33  C         19.3290  -21.7940  -11.2530 C.2     1  UNL1        0.0120
     34  C         18.6770  -20.6390  -11.6950 C.2     1  UNL1        0.0010
     35  C         17.3410  -20.4180  -11.3610 C.2     1  UNL1        0.0030
     36  C         16.6560  -21.3550  -10.5880 C.2     1  UNL1        0.0430
     37  C         17.3100  -22.5060  -10.1530 C.2     1  UNL1        0.1240
     38  F         16.6320  -23.3920   -9.4090 F       1  UNL1       -0.2050
@<TRIPOS>BOND
     1    16    15    1
     2    19    17    1
     3    15    17    2
     4    15    14    1
     5    17    18    1
     6    14    13    2
     7    18    12    2
     8    13    12    1
     9    12     9    1
    10     9    10    1
    11     9     8   am
    12    11     8    2
    13     8     6    1
    14    34    35    2
    15    34    33    1
    16    35    36    1
    17    33    32    2
    18     6     7    1
    19     6     5    2
    20    36    37    2
    21    32    37    1
    22    32    31    1
    23     7     3    2
    24    37    38    1
    25    31     1    1
    26     5     4    1
    27     3     2    1
    28     3     4    1
    29     2     1    1
    30     1    20    1
    31    20    21    1
    32    21    22    2
    33    21    26    1
    34    22    23    1
    35    26    25    2
    36    23    24    2
    37    28    27    1
    38    25    24    1
    39    25    27    1
    40    27    30    1
    41    27    29    1
