@<TRIPOS>MOLECULE
20458_out_ligand_01.pdbqt
 30 34 0 0 0
SMALL
GASTEIGER

@<TRIPOS>ATOM
      1  C         19.4510  -22.9750   -9.6320 C.2     1  UNL1        0.0340
      2  C         18.6060  -22.0920  -10.3030 C.2     1  UNL1        0.0190
      3  C         19.0910  -21.3780  -11.4010 C.2     1  UNL1        0.0350
      4  C         20.3970  -21.5280  -11.8490 C.ar    1  UNL1        0.0880
      5  N         20.7870  -20.8000  -12.9090 N.ar    1  UNL1       -0.2270
      6  C         22.0680  -21.0410  -13.2470 C.ar    1  UNL1        0.1580
      7  N         22.7460  -20.4570  -14.2780 N.ar    1  UNL1       -0.3380
      8  C         24.0380  -20.9370  -14.3310 C.ar    1  UNL1        0.0460
      9  C         25.0820  -20.6280  -15.2100 C.2     1  UNL1        0.0300
     10  C         26.3030  -21.2840  -15.0210 C.2     1  UNL1        0.0020
     11  C         26.4720  -22.2100  -13.9930 C.2     1  UNL1        0.0010
     12  C         25.4190  -22.5090  -13.1220 C.2     1  UNL1        0.0160
     13  C         24.1790  -21.8630  -13.2900 C.ar    1  UNL1        0.0230
     14  C         22.9300  -21.9210  -12.6130 C.ar    1  UNL1        0.1160
     15  N         22.5300  -22.6530  -11.5410 N.ar    1  UNL1       -0.2420
     16  C         21.2550  -22.4430  -11.1730 C.ar    1  UNL1        0.0870
     17  C         20.7630  -23.1500  -10.0860 C.2     1  UNL1        0.0510
     18  H         22.3460  -19.7750  -14.9020 H       1  UNL1        0.1670
     19  C         18.9940  -23.7720   -8.4630 C.2     1  UNL1        0.2520
     20  O         19.6680  -24.7160   -8.0710 O.2     1  UNL1       -0.2680
     21  N         17.8190  -23.3630   -7.8690 N.am    1  UNL1       -0.3520
     22  H         17.3460  -22.5380   -8.2120 H       1  UNL1        0.1630
     23  C         17.2140  -24.0970   -6.7590 C.3     1  UNL1        0.0840
     24  C         17.9440  -23.7950   -5.4360 C.3     1  UNL1        0.0250
     25  C         17.8730  -22.3520   -4.9270 C.3     1  UNL1        0.0020
     26  C         16.8720  -22.1090   -3.7970 C.3     1  UNL1        0.0000
     27  C         15.4830  -22.7180   -3.9450 C.3     1  UNL1        0.0000
     28  C         14.6510  -22.2100   -5.1190 C.3     1  UNL1        0.0000
     29  C         15.1640  -22.5080   -6.5300 C.3     1  UNL1        0.0020
     30  C         15.6820  -23.9320   -6.7460 C.3     1  UNL1        0.0250
@<TRIPOS>BOND
     1     9    10    1
     2     9     8    2
     3    10    11    2
     4    18     7    1
     5     8     7   ar
     6     8    13   ar
     7     7     6   ar
     8    11    12    1
     9    13    12    2
    10    13    14   ar
    11     6     5   ar
    12     6    14   ar
    13     5     4   ar
    14    14    15   ar
    15     4     3    2
    16     4    16   ar
    17    15    16   ar
    18     3     2    1
    19    16    17    2
    20     2     1    2
    21    17     1    1
    22     1    19    1
    23    19    20    2
    24    19    21   am
    25    22    21    1
    26    21    23    1
    27    23    30    1
    28    23    24    1
    29    30    29    1
    30    29    28    1
    31    24    25    1
    32    28    27    1
    33    25    26    1
    34    27    26    1
