@<TRIPOS>MOLECULE
20465_out_ligand_01.pdbqt
 32 35 0 0 0
SMALL
GASTEIGER

@<TRIPOS>ATOM
      1  C         20.6560  -22.4800   -7.6060 C.2     1  UNL1        0.0320
      2  C         21.7740  -21.6400   -7.6740 C.2     1  UNL1        0.0190
      3  C         22.8070  -21.9240   -8.5710 C.2     1  UNL1        0.0310
      4  C         22.7300  -23.0430   -9.4070 C.2     1  UNL1        0.0420
      5  C         21.5990  -23.8610   -9.3640 C.2     1  UNL1        0.0310
      6  C         20.5620  -23.5820   -8.4680 C.2     1  UNL1        0.0190
      7  N         23.8010  -23.2740  -10.3070 N.pl3   1  UNL1       -0.2810
      8  H         24.4600  -24.0320  -10.1370 H       1  UNL1        0.1790
      9  S         23.7380  -22.8140  -11.9200 S.O2    1  UNL1        0.2650
     10  O         24.2290  -23.9260  -12.7080 O.2     1  UNL1       -0.2000
     11  O         22.4170  -22.2670  -12.1800 O.2     1  UNL1       -0.2000
     12  C         24.9080  -21.4940  -12.0700 C.2     1  UNL1        0.1090
     13  C         25.5450  -21.0380  -10.9000 C.2     1  UNL1        0.0280
     14  C         26.4670  -20.0040  -10.9760 C.2     1  UNL1        0.0030
     15  C         26.7470  -19.4310  -12.2130 C.2     1  UNL1        0.0140
     16  C         26.1040  -19.8870  -13.3790 C.2     1  UNL1       -0.0060
     17  C         26.3940  -19.2990  -14.6200 C.2     1  UNL1        0.0150
     18  C         25.1590  -20.9420  -13.3300 C.2     1  UNL1        0.0900
     19  C         25.7590  -19.7500  -15.7700 C.2     1  UNL1        0.0200
     20  C         24.8540  -20.7810  -15.6400 C.2     1  UNL1        0.1170
     21  N         24.5540  -21.3740  -14.4610 N.2     1  UNL1       -0.2590
     22  C         19.5710  -22.1530   -6.6400 C.2     1  UNL1        0.2560
     23  N         18.6860  -23.1900   -6.4020 N.am    1  UNL1       -0.3230
     24  H         18.9260  -24.0970   -6.7860 H       1  UNL1        0.1690
     25  O         19.5700  -21.0400   -6.1210 O.2     1  UNL1       -0.2670
     26  C         17.5290  -23.1590   -5.5950 C.2     1  UNL1        0.0350
     27  C         17.4660  -23.6820   -4.3030 C.2     1  UNL1        0.0290
     28  C         16.2840  -23.5910   -3.5610 C.2     1  UNL1        0.0030
     29  C         15.1560  -22.9770   -4.1060 C.2     1  UNL1        0.0070
     30  C         15.1950  -22.4590   -5.4040 C.2     1  UNL1       -0.0600
     31  C         13.9960  -21.7690   -5.9850 C.3     1  UNL1        0.0480
     32  C         16.3900  -22.5420   -6.1350 C.2     1  UNL1        0.0360
@<TRIPOS>BOND
     1    19    20    1
     2    19    17    2
     3    20    21    2
     4    17    16    1
     5    21    18    1
     6    16    18    1
     7    16    15    2
     8    18    12    2
     9    10     9    2
    10    15    14    1
    11    11     9    2
    12    12     9    1
    13    12    13    1
    14     9     7    1
    15    14    13    2
    16     7     8    1
    17     7     4    1
    18     4     5    2
    19     4     3    1
    20     5     6    1
    21     3     2    2
    22     6     1    2
    23     2     1    1
    24     1    22    1
    25    24    23    1
    26    22    23   am
    27    22    25    2
    28    23    26    1
    29    32    26    2
    30    32    30    1
    31    31    30    1
    32    26    27    1
    33    30    29    2
    34    27    28    2
    35    29    28    1
