@<TRIPOS>MOLECULE
20463_out_ligand_01.pdbqt
 39 42 0 0 0
SMALL
GASTEIGER

@<TRIPOS>ATOM
      1  N         21.4370  -22.9860   -9.2690 N.3     1  UNL1        0.1040
      2  C         22.8740  -23.3170   -9.1930 C.3     1  UNL1        0.3590
      3  C         23.7400  -22.6880  -10.2500 C.2     1  UNL1        0.1740
      4  O         24.1750  -21.4020  -10.0410 O.2     1  UNL1       -0.3030
      5  C         24.9510  -21.1310  -11.1240 C.2     1  UNL1        0.1810
      6  C         24.9740  -22.2450  -11.9320 C.2     1  UNL1        0.1490
      7  N         24.1870  -23.2410  -11.3660 N.2     1  UNL1       -0.2190
      8  C         25.7020  -22.3840  -13.1830 C.2     1  UNL1        0.2720
      9  O         26.3170  -23.4000  -13.4850 O.2     1  UNL1       -0.2660
     10  N         25.6360  -21.2530  -13.9690 N.am    1  UNL1       -0.3530
     11  H         24.9890  -20.5440  -13.6400 H       1  UNL1        0.1620
     12  C         26.0050  -21.2860  -15.3710 C.3     1  UNL1        0.1550
     13  C         24.7740  -21.2330  -16.2980 C.3     1  UNL1        0.1390
     14  C         25.1490  -21.1500  -17.7680 C.3     1  UNL1        0.0350
     15  C         25.2990  -22.6020  -18.1520 C.3     1  UNL1        0.0290
     16  C         24.2380  -23.2720  -17.3080 C.3     1  UNL1        0.1680
     17  O         23.9970  -22.4360  -16.1690 O.3     1  UNL1       -0.3840
     18  C         20.9640  -22.9690  -10.6620 C.3     1  UNL1        0.3110
     19  C         19.6260  -22.2750  -10.8260 C.2     1  UNL1       -0.0290
     20  C         19.5170  -21.1380  -11.6390 C.2     1  UNL1        0.0090
     21  C         18.2910  -20.4920  -11.7980 C.2     1  UNL1        0.0010
     22  C         17.1560  -20.9790  -11.1480 C.2     1  UNL1        0.0160
     23  C         17.2370  -22.1170  -10.3290 C.2     1  UNL1        0.0480
     24  C         18.4750  -22.7650  -10.1860 C.2     1  UNL1        0.0250
     25  C         16.0020  -22.6430   -9.6390 C.3     1  UNL1        0.4170
     26  F         15.9960  -24.0010   -9.5400 F       1  UNL1       -0.1660
     27  F         14.8470  -22.3080  -10.2830 F       1  UNL1       -0.1660
     28  F         15.8610  -22.1770   -8.3650 F       1  UNL1       -0.1660
     29  C         20.6420  -23.8870   -8.4210 C.3     1  UNL1        0.3110
     30  C         19.8320  -23.1170   -7.4000 C.2     1  UNL1       -0.0290
     31  C         20.2590  -21.8640   -6.9380 C.2     1  UNL1        0.0090
     32  C         19.4940  -21.1480   -6.0160 C.2     1  UNL1        0.0010
     33  C         18.2950  -21.6760   -5.5390 C.2     1  UNL1        0.0160
     34  C         17.8450  -22.9300   -5.9810 C.2     1  UNL1        0.0480
     35  C         18.6280  -23.6450   -6.9050 C.2     1  UNL1        0.0250
     36  C         16.5610  -23.5160   -5.4490 C.3     1  UNL1        0.4170
     37  F         15.5640  -22.5920   -5.3280 F       1  UNL1       -0.1660
     38  F         16.0510  -24.5030   -6.2420 F       1  UNL1       -0.1660
     39  F         16.7090  -24.0670   -4.2110 F       1  UNL1       -0.1660
@<TRIPOS>BOND
     1    15    14    1
     2    15    16    1
     3    14    13    1
     4    16    17    1
     5    13    17    1
     6    13    12    1
     7    12    10    1
     8    10    11    1
     9    10     8   am
    10     9     8    2
    11     8     6    1
    12     6     7    1
    13     6     5    2
    14    21    20    1
    15    21    22    2
    16    20    19    2
    17     7     3    2
    18    22    23    1
    19     5     4    1
    20    19    18    1
    21    19    24    1
    22    18     1    1
    23    23    24    2
    24    23    25    1
    25    27    25    1
    26     3     4    1
    27     3     2    1
    28    25    26    1
    29    25    28    1
    30     1     2    1
    31     1    29    1
    32    29    30    1
    33    30    31    2
    34    30    35    1
    35    31    32    1
    36    35    34    2
    37    38    36    1
    38    32    33    2
    39    34    33    1
    40    34    36    1
    41    36    37    1
    42    36    39    1
