@<TRIPOS>MOLECULE
20479_out_ligand_01.pdbqt
 32 36 0 0 0
SMALL
GASTEIGER

@<TRIPOS>ATOM
      1  S         21.0720  -22.8360   -8.7480 S.O2    1  UNL1        0.2460
      2  O         20.9540  -24.2800   -8.7490 O.2     1  UNL1       -0.2060
      3  O         21.9170  -22.1410   -7.8050 O.2     1  UNL1       -0.2060
      4  C         21.5610  -22.3370  -10.3850 C.2     1  UNL1        0.0860
      5  C         20.5700  -21.7960  -11.2520 C.2     1  UNL1        0.0280
      6  C         20.8930  -21.3740  -12.5510 C.2     1  UNL1        0.0320
      7  C         22.2030  -21.5080  -12.9490 C.2     1  UNL1        0.0470
      8  N         22.8070  -21.1800  -14.1580 N.am    1  UNL1       -0.3220
      9  C         23.1460  -22.0380  -12.1080 C.2     1  UNL1        0.0180
     10  C         24.1540  -21.5020  -14.0980 C.2     1  UNL1        0.2570
     11  H         22.3630  -20.7780  -14.9680 H       1  UNL1        0.1690
     12  O         24.9990  -21.3590  -14.9570 O.2     1  UNL1       -0.2670
     13  C         24.3610  -22.0650  -12.7460 C.2     1  UNL1        0.0450
     14  C         25.4840  -22.5580  -12.1170 C.2     1  UNL1        0.0180
     15  C         25.3300  -23.0300  -10.8070 C.2     1  UNL1        0.0020
     16  C         24.0720  -22.9970  -10.1580 C.2     1  UNL1        0.0140
     17  C         22.9140  -22.4830  -10.8090 C.2     1  UNL1        0.0000
     18  N         19.4810  -22.2220   -8.6810 N.pl3   1  UNL1       -0.1800
     19  H         18.8890  -22.7620   -9.3110 H       1  UNL1        0.1460
     20  C         18.9290  -22.1520   -7.3490 C.2     1  UNL1        0.0340
     21  C         19.6340  -21.3740   -6.4280 C.2     1  UNL1        0.0250
     22  C         19.1870  -21.2650   -5.1210 C.2     1  UNL1        0.0030
     23  C         18.0340  -21.9400   -4.7270 C.2     1  UNL1        0.0150
     24  C         17.2950  -22.7510   -5.6280 C.2     1  UNL1        0.0090
     25  C         16.1200  -23.4680   -5.2740 C.2     1  UNL1        0.1140
     26  C         17.7620  -22.8730   -6.9660 C.2     1  UNL1       -0.0010
     27  C         15.4270  -24.2930   -6.1670 C.2     1  UNL1        0.0370
     28  C         15.8950  -24.4150   -7.4640 C.2     1  UNL1        0.0030
     29  C         17.0400  -23.7140   -7.8540 C.2     1  UNL1        0.0140
     30  N         15.5700  -23.3730   -3.9320 N.pl3   1  UNL1       -0.1150
     31  O         14.8710  -22.3830   -3.6740 O.2     1  UNL1       -0.5320
     32  O         15.8200  -24.3030   -3.1540 O.2     1  UNL1       -0.5320
@<TRIPOS>BOND
     1    11     8    1
     2    12    10    2
     3     8    10   am
     4     8     7    1
     5    10    13    1
     6     7     6    2
     7     7     9    1
     8    13    14    1
     9    13     9    2
    10     6     5    1
    11    14    15    2
    12     9    17    1
    13     5     4    2
    14    17     4    1
    15    17    16    2
    16    15    16    1
    17     4     1    1
    18    19    18    1
    19     2     1    2
    20     1    18    1
    21     1     3    2
    22    18    20    1
    23    29    28    2
    24    29    26    1
    25    28    27    1
    26    20    26    2
    27    20    21    1
    28    26    24    1
    29    21    22    2
    30    27    25    2
    31    24    25    1
    32    24    23    2
    33    25    30    1
    34    22    23    1
    35    30    31    2
    36    30    32    2
