@<TRIPOS>MOLECULE
20473_out_ligand_01.pdbqt
 28 30 0 0 0
SMALL
GASTEIGER

@<TRIPOS>ATOM
      1  C         19.0290  -22.8460   -8.0490 C.2     1  UNL1       -0.0400
      2  C         18.9150  -22.0200   -9.1830 C.2     1  UNL1        0.0110
      3  C         19.8570  -22.0650  -10.2170 C.2     1  UNL1        0.0300
      4  C         20.9450  -22.9360  -10.1530 C.2     1  UNL1        0.0350
      5  C         21.0720  -23.7580   -9.0370 C.2     1  UNL1        0.0300
      6  C         20.1270  -23.7160   -8.0020 C.2     1  UNL1        0.0110
      7  C         17.9690  -22.7410   -6.9270 C.3     1  UNL1        0.0680
      8  C         16.6980  -22.0440   -7.4830 C.3     1  UNL1        0.0240
      9  C         15.9710  -22.8570   -8.5580 C.3     1  UNL1        0.0020
     10  C         16.0220  -24.3660   -8.3280 C.3     1  UNL1        0.0000
     11  C         16.2550  -24.7200   -6.8700 C.3     1  UNL1        0.0020
     12  C         17.5210  -24.0860   -6.2720 C.3     1  UNL1        0.0240
     13  C         18.5560  -21.8720   -5.7730 C.2     1  UNL1        0.2300
     14  N         17.9700  -22.0900   -4.5360 N.am    1  UNL1       -0.3640
     15  C         18.4820  -21.4360   -3.3600 C.3     1  UNL1        0.1490
     16  H         17.4550  -22.9520   -4.4110 H       1  UNL1        0.1610
     17  O         19.4600  -21.0550   -5.9340 O.2     1  UNL1       -0.2720
     18  N         21.8580  -22.9140  -11.2290 N.am    1  UNL1       -0.3230
     19  C         23.0730  -22.2550  -11.2830 C.2     1  UNL1        0.2560
     20  O         23.6110  -21.6290  -10.3780 O.2     1  UNL1       -0.2670
     21  H         21.6130  -23.4970  -12.0180 H       1  UNL1        0.1690
     22  C         23.7950  -22.3670  -12.5830 C.2     1  UNL1        0.0320
     23  C         23.4600  -21.4730  -13.6100 C.2     1  UNL1        0.0180
     24  C         24.1030  -21.5500  -14.8490 C.2     1  UNL1        0.0200
     25  C         25.0730  -22.5280  -15.0620 C.2     1  UNL1        0.0110
     26 BR         25.9400  -22.6380  -16.7390 Br      1  UNL1       -0.0510
     27  C         25.4020  -23.4330  -14.0530 C.2     1  UNL1        0.0200
     28  C         24.7590  -23.3580  -12.8140 C.2     1  UNL1        0.0180
@<TRIPOS>BOND
     1    26    25    1
     2    25    24    2
     3    25    27    1
     4    24    23    1
     5    27    28    2
     6    23    22    2
     7    28    22    1
     8    22    19    1
     9    21    18    1
    10    19    18   am
    11    19    20    2
    12    18     4    1
    13     3     4    2
    14     3     2    1
    15     4     5    1
    16     2     1    2
    17     5     6    2
    18     9    10    1
    19     9     8    1
    20    10    11    1
    21     1     6    1
    22     1     7    1
    23     8     7    1
    24     7    12    1
    25     7    13    1
    26    11    12    1
    27    17    13    2
    28    13    14   am
    29    14    16    1
    30    14    15    1
