@<TRIPOS>MOLECULE
20480_out_ligand_01.pdbqt
 31 34 0 0 0
SMALL
GASTEIGER

@<TRIPOS>ATOM
      1  C         19.7890  -23.0980   -9.6770 C.2     1  UNL1        0.0340
      2  C         19.1220  -22.2700  -10.5940 C.2     1  UNL1        0.0200
      3  C         17.7460  -22.0570  -10.4800 C.2     1  UNL1        0.0450
      4  C         17.0320  -22.6790   -9.4590 C.2     1  UNL1        0.1390
      5  F         15.7130  -22.4640   -9.3780 F       1  UNL1       -0.2040
      6  C         17.6860  -23.5160   -8.5640 C.2     1  UNL1        0.1190
      7  C         19.0660  -23.7350   -8.6620 C.2     1  UNL1        0.0450
      8  S         16.7460  -24.2930   -7.2830 S.O2    1  UNL1        0.2680
      9  O         17.6960  -25.0680   -6.5140 O.2     1  UNL1       -0.2000
     10  O         15.6280  -24.9520   -7.9330 O.2     1  UNL1       -0.2000
     11  N         16.1320  -22.9550   -6.3910 N.pl3   1  UNL1       -0.2710
     12  C         14.7860  -23.1480   -5.7840 C.3     1  UNL1        0.1420
     13  C         14.9010  -23.7140   -4.3770 C.3     1  UNL1        0.0260
     14  C         15.6840  -22.7610   -3.4870 C.3     1  UNL1        0.0420
     15  C         16.9150  -22.2120   -4.1570 C.2     1  UNL1       -0.0310
     16  C         17.8690  -21.5480   -3.3670 C.2     1  UNL1        0.0090
     17  C         17.0920  -22.2720   -5.5490 C.2     1  UNL1        0.0510
     18  C         18.9830  -20.9490   -3.9520 C.2     1  UNL1        0.0010
     19  C         19.1460  -20.9900   -5.3330 C.2     1  UNL1        0.0020
     20  C         18.2000  -21.6410   -6.1270 C.2     1  UNL1        0.0310
     21  C         21.2560  -23.3050   -9.8450 C.2     1  UNL1        0.2560
     22  N         21.8540  -22.5040  -10.8000 N.am    1  UNL1       -0.3230
     23  H         21.2520  -21.9280  -11.3710 H       1  UNL1        0.1690
     24  O         21.7900  -24.1650   -9.1560 O.2     1  UNL1       -0.2670
     25  C         23.2250  -22.4540  -11.1380 C.2     1  UNL1        0.0350
     26  C         24.0280  -21.5690  -10.4080 C.2     1  UNL1        0.0290
     27  C         25.3930  -21.4580  -10.6800 C.2     1  UNL1        0.0030
     28  C         25.9710  -22.2350  -11.6810 C.2     1  UNL1        0.0070
     29  C         25.1890  -23.1380  -12.4070 C.2     1  UNL1       -0.0600
     30  C         25.7970  -23.9560  -13.5090 C.3     1  UNL1        0.0480
     31  C         23.8140  -23.2330  -12.1360 C.2     1  UNL1        0.0360
@<TRIPOS>BOND
     1    30    29    1
     2    29    31    1
     3    29    28    2
     4    31    25    2
     5    28    27    1
     6    23    22    1
     7    25    22    1
     8    25    26    1
     9    22    21   am
    10    27    26    2
    11     2     3    1
    12     2     1    2
    13     3     4    2
    14    21     1    1
    15    21    24    2
    16     1     7    1
    17     4     5    1
    18     4     6    1
    19     7     6    2
    20     6     8    1
    21    10     8    2
    22     8     9    2
    23     8    11    1
    24    11    12    1
    25    11    17    1
    26    20    17    1
    27    20    19    2
    28    12    13    1
    29    17    15    2
    30    19    18    1
    31    13    14    1
    32    15    14    1
    33    15    16    1
    34    18    16    2
