@<TRIPOS>MOLECULE
20518_out_ligand_01.pdbqt
 33 36 0 0 0
SMALL
GASTEIGER

@<TRIPOS>ATOM
      1  C         19.2650  -22.6550  -10.3020 C.2     1  UNL1        0.0720
      2  C         18.6710  -23.3650   -9.2460 C.2     1  UNL1        0.0450
      3  C         17.3250  -23.1420   -8.9210 C.2     1  UNL1        0.0810
      4  C         16.5550  -22.2260   -9.6400 C.2     1  UNL1        0.0280
      5  C         17.1410  -21.5250  -10.6920 C.2     1  UNL1        0.0450
      6  C         18.4840  -21.7410  -11.0150 C.2     1  UNL1        0.1320
      7  F         18.9980  -21.0340  -12.0330 F       1  UNL1       -0.2050
      8  C         20.7080  -22.9090  -10.5980 C.2     1  UNL1        0.2590
      9  N         21.4100  -21.8750  -11.1790 N.am    1  UNL1       -0.3200
     10  H         20.9240  -21.0020  -11.3740 H       1  UNL1        0.1690
     11  O         21.1660  -24.0070  -10.3000 O.2     1  UNL1       -0.2670
     12  C         22.7720  -21.8410  -11.5620 C.2     1  UNL1        0.0680
     13  C         23.2320  -22.2300  -12.8210 C.2     1  UNL1        0.0320
     14  C         24.5940  -22.1640  -13.1230 C.2     1  UNL1        0.0020
     15  C         25.5010  -21.7080  -12.1710 C.2     1  UNL1        0.0030
     16  C         25.0540  -21.3170  -10.9080 C.2     1  UNL1        0.0390
     17  C         23.6950  -21.3850  -10.5920 C.2     1  UNL1        0.0950
     18  O         23.1420  -21.0220   -9.3860 O.2     1  UNL1       -0.3490
     19  C         23.0430  -21.9970   -8.3480 C.3     1  UNL1        0.1710
     20  C         21.7720  -21.7930   -7.5420 C.3     1  UNL1        0.0340
     21  S         16.6040  -24.0540   -7.5660 S.O2    1  UNL1        0.2650
     22  O         17.7130  -24.7410   -6.9410 O.2     1  UNL1       -0.2000
     23  O         15.4750  -24.7880   -8.1020 O.2     1  UNL1       -0.2000
     24  N         16.0010  -22.7880   -6.5630 N.pl3   1  UNL1       -0.2710
     25  C         14.6370  -23.0090   -6.0050 C.3     1  UNL1        0.1420
     26  C         14.7050  -23.7140   -4.6600 C.3     1  UNL1        0.0260
     27  C         15.4860  -22.8740   -3.6630 C.3     1  UNL1        0.0420
     28  C         16.7490  -22.2980   -4.2450 C.2     1  UNL1       -0.0310
     29  C         17.7000  -21.7480   -3.3700 C.2     1  UNL1        0.0090
     30  C         16.9590  -22.2220   -5.6330 C.2     1  UNL1        0.0510
     31  C         18.8460  -21.1290   -3.8660 C.2     1  UNL1        0.0010
     32  C         19.0430  -21.0340   -5.2380 C.2     1  UNL1        0.0020
     33  C         18.1000  -21.5720   -6.1160 C.2     1  UNL1        0.0310
@<TRIPOS>BOND
     1    14    13    1
     2    14    15    2
     3    13    12    2
     4    15    16    1
     5     7     6    1
     6    12     9    1
     7    12    17    1
     8    10     9    1
     9     9     8   am
    10     6     5    1
    11     6     1    2
    12    16    17    2
    13     5     4    2
    14     8     1    1
    15     8    11    2
    16    17    18    1
    17     1     2    1
    18     4     3    1
    19    18    19    1
    20     2     3    2
    21     3    21    1
    22    19    20    1
    23    23    21    2
    24    21    22    2
    25    21    24    1
    26    24    25    1
    27    24    30    1
    28    33    30    1
    29    33    32    2
    30    25    26    1
    31    30    28    2
    32    32    31    1
    33    26    27    1
    34    28    27    1
    35    28    29    1
    36    31    29    2
