@<TRIPOS>MOLECULE
20527_out_ligand_01.pdbqt
 33 37 0 0 0
SMALL
GASTEIGER

@<TRIPOS>ATOM
      1  C         23.0220  -22.1450  -11.7290 C.2     1  UNL1       -0.0400
      2  C         22.5950  -22.9120  -10.6290 C.2     1  UNL1        0.0100
      3  C         21.2470  -22.9450  -10.2720 C.2     1  UNL1        0.0260
      4  C         20.3180  -22.2220  -11.0270 C.2     1  UNL1        0.0790
      5  C         20.7240  -21.4580  -12.1240 C.2     1  UNL1        0.0260
      6  C         22.0760  -21.4130  -12.4680 C.2     1  UNL1        0.0100
      7  S         18.6040  -22.2550  -10.5710 S.O2    1  UNL1        0.2590
      8  O         18.1160  -23.6130  -10.6860 O.2     1  UNL1       -0.2010
      9  O         17.9660  -21.1560  -11.2580 O.2     1  UNL1       -0.2010
     10  N         18.6430  -21.8450   -8.9520 N.3     1  UNL1       -0.3060
     11  H         18.0440  -21.0610   -8.7040 H       1  UNL1        0.1730
     12  C         18.9300  -22.8480   -7.9250 C.3     1  UNL1        0.1260
     13  C         20.0600  -22.3080   -7.0360 C.3     1  UNL1        0.0310
     14  C         19.5580  -21.1950   -6.1220 C.3     1  UNL1        0.0070
     15  C         18.4820  -21.7150   -5.1770 C.3     1  UNL1        0.0390
     16  C         17.4520  -22.5770   -5.8590 C.2     1  UNL1       -0.0500
     17  C         16.2600  -22.8640   -5.1760 C.2     1  UNL1        0.0070
     18  C         17.6790  -23.1480   -7.1250 C.2     1  UNL1       -0.0290
     19  C         15.2910  -23.6870   -5.7490 C.2     1  UNL1        0.0010
     20  C         15.5050  -24.2430   -7.0050 C.2     1  UNL1        0.0010
     21  C         16.6900  -23.9750   -7.6890 C.2     1  UNL1        0.0100
     22  C         24.4900  -22.0610  -12.0840 C.3     1  UNL1        0.1740
     23  N         24.6890  -22.1200  -13.5170 N.am    1  UNL1       -0.2740
     24  C         24.8340  -23.2920  -14.2190 C.2     1  UNL1        0.2800
     25  C         24.9360  -22.8970  -15.6360 C.2     1  UNL1        0.1400
     26  O         24.8790  -24.4310  -13.7730 O.2     1  UNL1       -0.2650
     27  N         25.0880  -23.7210  -16.6880 N.2     1  UNL1       -0.2540
     28  C         24.8450  -21.5260  -15.6990 C.2     1  UNL1        0.0670
     29  C         25.1480  -23.0810  -17.8850 C.2     1  UNL1        0.1170
     30  C         25.0620  -21.6900  -18.0440 C.2     1  UNL1        0.0200
     31  C         24.9070  -20.8800  -16.9160 C.2     1  UNL1        0.0210
     32  C         24.6930  -21.0260  -14.3400 C.2     1  UNL1        0.2630
     33  O         24.5880  -19.8460  -14.0590 O.2     1  UNL1       -0.2670
@<TRIPOS>BOND
     1    30    29    2
     2    30    31    1
     3    29    27    1
     4    31    28    2
     5    27    25    2
     6    28    25    1
     7    28    32    1
     8    25    24    1
     9    32    33    2
    10    32    23   am
    11    24    26    2
    12    24    23   am
    13    23    22    1
    14     6     5    1
    15     6     1    2
    16     5     4    2
    17    22     1    1
    18     1     2    1
    19     9     7    2
    20     4     7    1
    21     4     3    1
    22     8     7    2
    23     2     3    2
    24     7    10    1
    25    10    11    1
    26    10    12    1
    27    12    18    1
    28    12    13    1
    29    21    18    1
    30    21    20    2
    31    18    16    2
    32    13    14    1
    33    20    19    1
    34    14    15    1
    35    16    15    1
    36    16    17    1
    37    19    17    2
