@<TRIPOS>MOLECULE
20520_out_ligand_01.pdbqt
 31 33 0 0 0
SMALL
GASTEIGER

@<TRIPOS>ATOM
      1  C         20.0440  -23.1930   -8.0450 C.2     1  UNL1       -0.0400
      2  C         20.4370  -24.1820   -8.9580 C.2     1  UNL1        0.0110
      3  C         21.7310  -24.1960   -9.4950 C.2     1  UNL1        0.0300
      4  C         22.6710  -23.2240   -9.1410 C.2     1  UNL1        0.0340
      5  C         22.2990  -22.2430   -8.2270 C.2     1  UNL1        0.0300
      6  C         21.0080  -22.2310   -7.6850 C.2     1  UNL1        0.0110
      7  C         18.6300  -23.1330   -7.4090 C.3     1  UNL1        0.0680
      8  C         18.3600  -24.4880   -6.6860 C.3     1  UNL1        0.0240
      9  C         17.0680  -24.5260   -5.8640 C.3     1  UNL1        0.0020
     10  C         16.9610  -23.3580   -4.8970 C.3     1  UNL1        0.0000
     11  C         17.1430  -22.0290   -5.6140 C.3     1  UNL1        0.0020
     12  C         18.4750  -21.9900   -6.3640 C.3     1  UNL1        0.0240
     13  C         17.5980  -22.9130   -8.5610 C.2     1  UNL1        0.2310
     14  N         17.8780  -21.8440   -9.3900 N.am    1  UNL1       -0.3570
     15  H         18.8370  -21.5210   -9.4130 H       1  UNL1        0.1620
     16  O         16.6160  -23.6330   -8.7310 O.2     1  UNL1       -0.2720
     17  C         17.0930  -21.6040  -10.5720 C.3     1  UNL1        0.1490
     18  C         17.9790  -21.3520  -11.7620 C.2     1  UNL1       -0.0180
     19  C         19.3100  -21.1820  -11.7830 C.2     1  UNL1        0.0080
     20  N         23.9440  -23.3030   -9.7420 N.am    1  UNL1       -0.3270
     21  C         24.6700  -22.2760  -10.3210 C.2     1  UNL1        0.2260
     22  O         24.3260  -21.1020  -10.4140 O.2     1  UNL1       -0.2730
     23  H         24.3820  -24.2160   -9.7320 H       1  UNL1        0.1690
     24  C         25.9830  -22.7390  -10.9370 C.3     1  UNL1        0.1410
     25  C         25.9690  -22.8490  -12.4460 C.2     1  UNL1       -0.0490
     26  C         26.4440  -21.7950  -13.2450 C.2     1  UNL1        0.0110
     27  C         26.4050  -21.8910  -14.6370 C.2     1  UNL1        0.0430
     28  C         25.8810  -23.0330  -15.2300 C.2     1  UNL1        0.1160
     29  F         25.8400  -23.1220  -16.5670 F       1  UNL1       -0.2060
     30  C         25.3940  -24.0810  -14.4590 C.2     1  UNL1        0.0430
     31  C         25.4360  -23.9900  -13.0670 C.2     1  UNL1        0.0110
@<TRIPOS>BOND
     1    29    28    1
     2    28    27    2
     3    28    30    1
     4    27    26    1
     5    30    31    2
     6    26    25    2
     7    31    25    1
     8    25    24    1
     9    19    18    2
    10    18    17    1
    11    24    21    1
    12    17    14    1
    13    22    21    2
    14    21    20   am
    15    20    23    1
    16    20     4    1
    17     3     4    2
    18     3     2    1
    19    15    14    1
    20    14    13   am
    21     4     5    1
    22     2     1    2
    23    16    13    2
    24    13     7    1
    25     5     6    2
    26     1     6    1
    27     1     7    1
    28     7     8    1
    29     7    12    1
    30     8     9    1
    31    12    11    1
    32     9    10    1
    33    11    10    1
