@<TRIPOS>MOLECULE
20531_out_ligand_01.pdbqt
 31 34 0 0 0
SMALL
GASTEIGER

@<TRIPOS>ATOM
      1  C         18.8660  -22.3750  -10.2690 C.2     1  UNL1        0.0400
      2  C         18.5510  -21.3720  -11.1920 C.2     1  UNL1        0.0180
      3  C         19.5420  -20.8530  -12.0350 C.2     1  UNL1        0.0030
      4  C         20.8570  -21.3280  -11.9660 C.2     1  UNL1        0.0300
      5  C         21.1600  -22.3250  -11.0500 C.2     1  UNL1        0.0460
      6  C         20.1800  -22.8270  -10.1840 C.2     1  UNL1       -0.0140
      7  C         20.7750  -23.8210   -9.2330 C.3     1  UNL1        0.0620
      8  C         22.2740  -23.6090   -9.4620 C.3     1  UNL1        0.1380
      9  N         22.4020  -22.9180  -10.7490 N.am    1  UNL1       -0.2990
     10  C         23.6460  -22.7750  -11.3430 C.2     1  UNL1        0.3270
     11  O         24.6720  -23.0360  -10.7170 O.2     1  UNL1       -0.2460
     12  N         23.6090  -22.4090  -12.6680 N.am    1  UNL1       -0.3090
     13  H         22.7410  -22.6280  -13.1310 H       1  UNL1        0.1700
     14  C         17.7950  -22.8780   -9.3820 C.2     1  UNL1        0.2520
     15  N         18.1300  -22.9740   -8.0510 N.am    1  UNL1       -0.3490
     16  H         19.0450  -22.6650   -7.7550 H       1  UNL1        0.1630
     17  O         16.7110  -23.1960   -9.8530 O.2     1  UNL1       -0.2680
     18  C         17.1260  -23.2070   -7.0250 C.3     1  UNL1        0.1150
     19  C         16.8960  -24.7100   -6.8540 C.3     1  UNL1        0.0370
     20  C         17.5390  -22.4850   -5.7600 C.2     1  UNL1       -0.0180
     21  C         18.5410  -21.5070   -5.8100 C.2     1  UNL1        0.0120
     22  C         18.9580  -20.8710   -4.6440 C.2     1  UNL1        0.0200
     23  C         18.3650  -21.2410   -3.4510 C.2     1  UNL1        0.1160
     24  N         17.4090  -22.1880   -3.3530 N.2     1  UNL1       -0.2730
     25  C         17.0190  -22.7840   -4.5040 C.2     1  UNL1        0.1250
     26  C         24.6940  -22.0650  -13.4970 C.2     1  UNL1        0.0360
     27  C         25.2930  -20.8040  -13.5050 C.2     1  UNL1        0.0290
     28  C         26.3560  -20.5310  -14.3720 C.2     1  UNL1        0.0020
     29  C         26.8230  -21.5140  -15.2420 C.2     1  UNL1        0.0000
     30  C         26.2250  -22.7710  -15.2490 C.2     1  UNL1        0.0020
     31  C         25.1630  -23.0450  -14.3830 C.2     1  UNL1        0.0290
@<TRIPOS>BOND
     1    30    29    2
     2    30    31    1
     3    29    28    1
     4    31    26    2
     5    28    27    2
     6    27    26    1
     7    26    12    1
     8    13    12    1
     9    12    10   am
    10     3     4    2
    11     3     2    1
    12     4     5    1
    13    10     9   am
    14    10    11    2
    15     2     1    2
    16     5     9    1
    17     5     6    2
    18     9     8    1
    19     1     6    1
    20     1    14    1
    21     6     7    1
    22    17    14    2
    23     8     7    1
    24    14    15   am
    25    15    16    1
    26    15    18    1
    27    18    19    1
    28    18    20    1
    29    21    20    2
    30    21    22    1
    31    20    25    1
    32    22    23    2
    33    25    24    2
    34    23    24    1
