@<TRIPOS>MOLECULE
20545_out_ligand_01.pdbqt
 26 28 0 0 0
SMALL
GASTEIGER

@<TRIPOS>ATOM
      1  C         17.1150  -20.4710  -11.0130 C.3     1  UNL1        0.0380
      2  C         18.2760  -21.4740  -11.0820 C.3     1  UNL1        0.0280
      3  C         17.8090  -22.7280  -11.8400 C.3     1  UNL1        0.0380
      4  C         19.4850  -20.8080  -11.7730 C.3     1  UNL1        0.0690
      5  C         20.7690  -21.5730  -11.5700 C.2     1  UNL1       -0.0420
      6  C         21.8130  -21.4630  -12.5000 C.2     1  UNL1        0.0080
      7  C         23.0160  -22.1390  -12.2900 C.2     1  UNL1        0.0010
      8  C         23.1930  -22.9170  -11.1470 C.2     1  UNL1        0.0010
      9  C         22.1660  -23.0210  -10.2080 C.2     1  UNL1        0.0160
     10  C         20.9550  -22.3490  -10.4130 C.2     1  UNL1        0.0160
     11  C         19.8400  -22.4530   -9.4090 C.2     1  UNL1        0.1350
     12  N         20.0780  -23.1200   -8.3170 N.2     1  UNL1       -0.2310
     13  N         18.6360  -21.8450   -9.7170 N.pl3   1  UNL1       -0.3650
     14  H         17.8610  -22.1230   -9.1260 H       1  UNL1        0.1620
     15  C         19.0950  -23.2440   -7.3310 C.2     1  UNL1        0.0590
     16  C         18.2430  -24.3540   -7.3160 C.2     1  UNL1        0.0330
     17  C         17.2420  -24.4650   -6.3490 C.2     1  UNL1        0.0270
     18  C         17.0950  -23.4550   -5.3940 C.2     1  UNL1        0.0740
     19  C         17.9240  -22.3300   -5.4110 C.2     1  UNL1        0.0270
     20  C         18.9220  -22.2300   -6.3840 C.2     1  UNL1        0.0330
     21  S         15.8110  -23.5900   -4.1800 S.O2    1  UNL1        0.2390
     22  O         14.5430  -23.7230   -4.8610 O.2     1  UNL1       -0.2060
     23  O         16.2430  -24.5060   -3.1530 O.2     1  UNL1       -0.2060
     24  N         15.8050  -22.0380   -3.5240 N.3     1  UNL1       -0.2250
     25  H         14.9190  -21.5500   -3.6480 H       1  UNL1        0.1360
     26  H         16.0790  -22.0960   -2.5420 H       1  UNL1        0.1360
@<TRIPOS>BOND
     1     6     7    1
     2     6     5    2
     3     7     8    2
     4     3     2    1
     5     4     5    1
     6     4     2    1
     7     5    10    1
     8     8     9    1
     9     2     1    1
    10     2    13    1
    11    10     9    2
    12    10    11    1
    13    13    11    1
    14    13    14    1
    15    11    12    2
    16    12    15    1
    17    15    16    2
    18    15    20    1
    19    16    17    1
    20    20    19    2
    21    17    18    2
    22    19    18    1
    23    18    21    1
    24    22    21    2
    25    21    24    1
    26    21    23    2
    27    25    24    1
    28    24    26    1
