@<TRIPOS>MOLECULE
20551_out_ligand_01.pdbqt
 34 38 0 0 0
SMALL
GASTEIGER

@<TRIPOS>ATOM
      1  N         17.0740  -23.7750   -6.9950 N.ar    1  UNL1       -0.3190
      2  C         16.0950  -23.2360   -7.7970 C.ar    1  UNL1        0.1700
      3  N         15.2010  -22.5610   -7.1080 N.ar    1  UNL1       -0.2220
      4  C         15.5890  -22.6920   -5.7990 C.ar    1  UNL1        0.0890
      5  C         14.9880  -22.1880   -4.6460 C.2     1  UNL1        0.0530
      6  C         15.6180  -22.5050   -3.4530 C.2     1  UNL1        0.1180
      7  N         16.7470  -23.2510   -3.3450 N.2     1  UNL1       -0.2710
      8  C         17.3340  -23.7340   -4.4640 C.2     1  UNL1        0.1480
      9  C         16.7510  -23.4560   -5.6940 C.ar    1  UNL1        0.0830
     10  S         16.0360  -23.4610   -9.5150 S.3     1  UNL1       -0.0870
     11  C         16.4160  -21.7770  -10.0830 C.3     1  UNL1        0.1210
     12  C         17.8000  -21.6680  -10.6810 C.2     1  UNL1       -0.0480
     13  C         18.2660  -20.4380  -11.1720 C.2     1  UNL1        0.0090
     14  C         19.5420  -20.3360  -11.7340 C.2     1  UNL1        0.0170
     15  C         20.3680  -21.4650  -11.8030 C.2     1  UNL1        0.0320
     16  C         19.9020  -22.7000  -11.3380 C.2     1  UNL1        0.0170
     17  C         18.6270  -22.8000  -10.7790 C.2     1  UNL1        0.0090
     18  C         21.7320  -21.3860  -12.3890 C.2     1  UNL1        0.2520
     19  O         21.8900  -21.0670  -13.5610 O.2     1  UNL1       -0.2680
     20  N         22.7650  -21.7280  -11.5360 N.am    1  UNL1       -0.3520
     21  H         22.5240  -22.2410  -10.6990 H       1  UNL1        0.1630
     22  C         24.1260  -21.8280  -12.0160 C.3     1  UNL1        0.0840
     23  C         24.5180  -23.2540  -12.4240 C.3     1  UNL1        0.0250
     24  C         25.9460  -23.4690  -11.9190 C.3     1  UNL1        0.0020
     25  C         26.4190  -22.1040  -11.4390 C.3     1  UNL1        0.0020
     26  C         25.1430  -21.4430  -10.9460 C.3     1  UNL1        0.0250
     27  C         18.2340  -24.5520   -7.4120 C.3     1  UNL1        0.1700
     28  C         19.4580  -23.6880   -7.6160 C.2     1  UNL1       -0.0390
     29  C         19.4810  -22.3780   -7.1190 C.2     1  UNL1        0.0090
     30  C         20.6120  -21.5810   -7.2700 C.2     1  UNL1        0.0010
     31  C         21.7310  -22.0830   -7.9280 C.2     1  UNL1        0.0070
     32  C         21.7160  -23.3710   -8.4710 C.2     1  UNL1       -0.0610
     33  C         22.9310  -23.9060   -9.1580 C.3     1  UNL1        0.0480
     34  C         20.5820  -24.1700   -8.3060 C.2     1  UNL1        0.0150
@<TRIPOS>BOND
     1    19    18    2
     2    23    22    1
     3    23    24    1
     4    18    15    1
     5    18    20   am
     6    22    20    1
     7    22    26    1
     8    24    25    1
     9    15    14    2
    10    15    16    1
    11    14    13    1
    12    20    21    1
    13    25    26    1
    14    16    17    2
    15    13    12    2
    16    17    12    1
    17    12    11    1
    18    11    10    1
    19    10     2    1
    20    33    32    1
    21    32    34    1
    22    32    31    2
    23    34    28    2
    24    31    30    1
    25     2     3   ar
    26     2     1   ar
    27    28    27    1
    28    28    29    1
    29    27     1    1
    30    30    29    2
    31     3     4   ar
    32     1     9   ar
    33     4     9   ar
    34     4     5    1
    35     9     8    1
    36     5     6    2
    37     8     7    2
    38     6     7    1
