@<TRIPOS>MOLECULE
20563_out_ligand_01.pdbqt
 34 37 0 0 0
SMALL
GASTEIGER

@<TRIPOS>ATOM
      1  C         18.0890  -23.0720   -8.0230 C.ar    1  UNL1        0.1800
      2  C         17.8410  -22.7320   -9.3470 C.ar    1  UNL1        0.0220
      3  C         16.4560  -22.4480   -9.3880 C.ar    1  UNL1        0.0620
      4  C         15.6360  -22.0450  -10.5590 C.3     1  UNL1        0.0730
      5  N         15.8810  -22.5880   -8.1950 N.ar    1  UNL1       -0.1700
      6  N         16.8890  -22.8730   -7.3310 N.ar    1  UNL1       -0.2100
      7  C         18.7990  -22.6670  -10.4930 C.3     1  UNL1        0.0540
      8  C         18.7140  -21.3460  -11.2520 C.3     1  UNL1        0.1080
      9  C         20.0980  -20.8490  -11.6280 C.2     1  UNL1        0.2220
     10  O         20.4370  -19.6860  -11.4310 O.2     1  UNL1       -0.2730
     11  N         20.8570  -21.8360  -12.2340 N.am    1  UNL1       -0.3270
     12  H         20.4310  -22.7510  -12.3060 H       1  UNL1        0.1690
     13  C         22.1870  -21.7410  -12.6930 C.2     1  UNL1        0.0340
     14  C         22.4120  -20.9480  -13.8280 C.2     1  UNL1        0.0320
     15  C         23.6990  -20.8090  -14.3550 C.2     1  UNL1        0.0440
     16  C         24.7610  -21.4620  -13.7440 C.2     1  UNL1        0.1160
     17  F         25.9940  -21.3320  -14.2480 F       1  UNL1       -0.2060
     18  C         24.5590  -22.2490  -12.6190 C.2     1  UNL1        0.0440
     19  C         23.2700  -22.3880  -12.0910 C.2     1  UNL1        0.0320
     20  O         19.1860  -23.5130   -7.3930 O.3     1  UNL1       -0.2910
     21  C         20.4360  -23.1980   -7.8710 C.2     1  UNL1        0.0830
     22  C         20.9750  -21.9630   -7.5010 C.2     1  UNL1        0.0380
     23  C         22.2410  -21.5920   -7.9490 C.2     1  UNL1        0.0030
     24  C         22.9800  -22.4660   -8.7420 C.2     1  UNL1        0.0010
     25  C         22.4590  -23.7180   -9.0790 C.2     1  UNL1        0.0090
     26  C         21.1870  -24.1090   -8.6320 C.2     1  UNL1       -0.0280
     27  C         20.6590  -25.4690   -8.9900 C.3     1  UNL1        0.0510
     28  C         16.6420  -22.9390   -5.9160 C.2     1  UNL1        0.0670
     29  C         15.6640  -23.8320   -5.4340 C.2     1  UNL1        0.0320
     30  C         15.4030  -23.9540   -4.0680 C.2     1  UNL1        0.0020
     31  C         16.1170  -23.1950   -3.1540 C.2     1  UNL1        0.0010
     32  C         17.0930  -22.3100   -3.6060 C.2     1  UNL1        0.0090
     33  C         17.3680  -22.1580   -4.9820 C.2     1  UNL1       -0.0330
     34  C         18.4200  -21.1440   -5.3520 C.3     1  UNL1        0.0500
@<TRIPOS>BOND
     1    15    14    1
     2    15    16    2
     3    17    16    1
     4    14    13    2
     5    16    18    1
     6    13    11    1
     7    13    19    1
     8    18    19    2
     9    12    11    1
    10    11     9   am
    11     9    10    2
    12     9     8    1
    13     8     7    1
    14     4     3    1
    15     7     2    1
    16     3     2   ar
    17     3     5   ar
    18     2     1   ar
    19    25    24    2
    20    25    26    1
    21    27    26    1
    22    24    23    1
    23    26    21    2
    24     5     6   ar
    25     1    20    1
    26     1     6   ar
    27    23    22    2
    28    21    22    1
    29    21    20    1
    30     6    28    1
    31    28    29    2
    32    28    33    1
    33    29    30    1
    34    34    33    1
    35    33    32    2
    36    30    31    2
    37    32    31    1
