@<TRIPOS>MOLECULE
20561_out_ligand_01.pdbqt
 39 43 0 0 0
SMALL
GASTEIGER

@<TRIPOS>ATOM
      1  C         23.1470  -22.6690  -11.4580 C.ar    1  UNL1        0.1050
      2  N         22.3010  -23.2350  -10.6220 N.ar    1  UNL1       -0.2330
      3  C         21.0970  -22.6110  -10.8340 C.ar    1  UNL1        0.0860
      4  C         19.8620  -22.8200  -10.2040 C.2     1  UNL1        0.0510
      5  C         18.7650  -22.0450  -10.6090 C.2     1  UNL1        0.0340
      6  C         18.9160  -21.0630  -11.6030 C.2     1  UNL1        0.0190
      7  C         20.1440  -20.8410  -12.2380 C.2     1  UNL1        0.0330
      8  C         21.2070  -21.6440  -11.8260 C.ar    1  UNL1        0.0620
      9  N         22.5200  -21.7050  -12.2120 N.ar    1  UNL1       -0.3430
     10  H         22.9660  -21.1130  -12.9000 H       1  UNL1        0.1670
     11  C         17.4190  -22.2150   -9.9910 C.2     1  UNL1        0.2510
     12  O         16.4850  -21.5060  -10.3500 O.2     1  UNL1       -0.2680
     13  N         17.2950  -23.2200   -9.0520 N.am    1  UNL1       -0.3570
     14  H         18.0090  -23.9360   -9.0370 H       1  UNL1        0.1620
     15  C         15.9880  -23.5760   -8.5220 C.3     1  UNL1        0.1270
     16  C         16.0990  -24.5260   -7.3300 C.3     1  UNL1        0.0600
     17  C         16.1960  -23.7970   -6.0280 C.2     1  UNL1       -0.0290
     18  C         15.3330  -23.9190   -4.9570 C.2     1  UNL1        0.0960
     19  N         15.7700  -23.0930   -3.9560 N.pl3   1  UNL1       -0.3650
     20  C         16.9040  -22.4240   -4.3520 C.2     1  UNL1        0.0420
     21  H         15.3280  -22.9870   -3.0540 H       1  UNL1        0.1650
     22  C         17.6860  -21.4890   -3.6620 C.2     1  UNL1        0.0300
     23  C         17.1970  -22.8450   -5.6500 C.2     1  UNL1       -0.0020
     24  C         18.8030  -20.9680   -4.3220 C.2     1  UNL1        0.0020
     25  C         19.1230  -21.3670   -5.6160 C.2     1  UNL1        0.0010
     26  C         18.3300  -22.3030   -6.2910 C.2     1  UNL1        0.0140
     27  C         24.5970  -22.9910  -11.6090 C.3     1  UNL1        0.0830
     28  C         24.9290  -23.5930  -12.9790 C.3     1  UNL1        0.0460
     29  C         25.3690  -22.5600  -13.9910 C.2     1  UNL1       -0.0580
     30  C         24.5920  -22.2940  -15.1230 C.2     1  UNL1        0.0090
     31  C         24.9920  -21.3190  -16.0430 C.2     1  UNL1        0.0300
     32  C         26.1700  -20.5860  -15.8450 C.2     1  UNL1        0.0340
     33  C         26.9420  -20.8510  -14.7140 C.2     1  UNL1        0.0300
     34  C         26.5490  -21.8330  -13.7980 C.2     1  UNL1        0.0090
     35  N         26.4990  -19.6210  -16.8200 N.am    1  UNL1       -0.3280
     36  C         26.5760  -18.2500  -16.6540 C.2     1  UNL1        0.2180
     37  C         27.0000  -17.5400  -17.9160 C.3     1  UNL1        0.1170
     38  O         26.3570  -17.6190  -15.6260 O.2     1  UNL1       -0.2740
     39  H         26.7030  -19.9790  -17.7450 H       1  UNL1        0.1690
@<TRIPOS>BOND
     1    37    36    1
     2    39    35    1
     3    35    36   am
     4    35    32    1
     5    36    38    2
     6    31    32    2
     7    31    30    1
     8    32    33    1
     9    30    29    2
    10    33    34    2
    11    29    34    1
    12    29    28    1
    13    28    27    1
    14    10     9    1
    15     7     8    1
    16     7     6    2
    17     9     8   ar
    18     9     1   ar
    19     8     3   ar
    20    27     1    1
    21     6     5    1
    22     1     2   ar
    23     3     2   ar
    24     3     4    1
    25     5     4    2
    26     5    11    1
    27    12    11    2
    28    11    13   am
    29    13    14    1
    30    13    15    1
    31    15    16    1
    32    16    17    1
    33    26    23    1
    34    26    25    2
    35    17    23    1
    36    17    18    2
    37    23    20    2
    38    25    24    1
    39    18    19    1
    40    20    19    1
    41    20    22    1
    42    24    22    2
    43    19    21    1
