@<TRIPOS>MOLECULE
20583_out_ligand_01.pdbqt
 38 42 0 0 0
SMALL
GASTEIGER

@<TRIPOS>ATOM
      1  C         19.9660  -22.5030  -10.0810 C.2     1  UNL1        0.0320
      2  C         20.3260  -23.4480   -9.1070 C.2     1  UNL1        0.0180
      3  C         19.3490  -24.0150   -8.2860 C.2     1  UNL1        0.0260
      4  C         18.0140  -23.6190   -8.4280 C.2     1  UNL1        0.0800
      5  C         17.6420  -22.6800   -9.3910 C.2     1  UNL1        0.0260
      6  C         18.6220  -22.1200  -10.2140 C.2     1  UNL1        0.0180
      7  C         20.9820  -21.8470  -10.9570 C.2     1  UNL1        0.2560
      8  N         22.0450  -22.6460  -11.3320 N.am    1  UNL1       -0.3160
      9  H         21.9290  -23.6500  -11.3290 H       1  UNL1        0.1690
     10  O         20.7810  -20.6990  -11.3360 O.2     1  UNL1       -0.2670
     11  C         23.1240  -22.1640  -12.0420 C.ar    1  UNL1        0.0940
     12  S         22.6670  -21.5460  -13.5620 S.2     1  UNL1       -0.0730
     13  C         24.2430  -20.9980  -13.8680 C.ar    1  UNL1        0.0200
     14  C         25.1230  -21.3210  -12.8510 C.ar    1  UNL1       -0.0220
     15  C         24.6060  -20.2410  -15.1150 C.3     1  UNL1        0.3190
     16  C         26.5760  -20.9550  -12.9800 C.3     1  UNL1        0.0710
     17  C         24.4850  -22.0890  -11.8030 C.ar    1  UNL1        0.0800
     18  C         26.8020  -19.9170  -14.1060 C.3     1  UNL1        0.2770
     19  N         26.0670  -20.2740  -15.3340 N.3     1  UNL1        0.0930
     20  C         26.4850  -19.5020  -16.5090 C.3     1  UNL1        0.2680
     21  C         26.5760  -17.9880  -16.3420 C.3     1  UNL1        0.0370
     22  C         25.1570  -22.7550  -10.6900 C.2     1  UNL1        0.2960
     23  O         24.5570  -23.3090   -9.7720 O.2     1  UNL1       -0.2590
     24  O         26.5160  -22.7430  -10.8180 O.3     1  UNL1       -0.3220
     25  C         27.1180  -24.0290  -10.6680 C.3     1  UNL1        0.2130
     26  S         16.7880  -24.3180   -7.3340 S.O2    1  UNL1        0.2650
     27  O         17.5330  -25.1520   -6.4120 O.2     1  UNL1       -0.2000
     28  O         15.7320  -24.8720   -8.1580 O.2     1  UNL1       -0.2000
     29  N         16.1780  -22.9100   -6.5380 N.pl3   1  UNL1       -0.2710
     30  C         14.7780  -23.0230   -6.0350 C.3     1  UNL1        0.1420
     31  C         14.7470  -23.5490   -4.6100 C.3     1  UNL1        0.0260
     32  C         15.4950  -22.6020   -3.6850 C.3     1  UNL1        0.0420
     33  C         16.8080  -22.1410   -4.2590 C.2     1  UNL1       -0.0310
     34  C         17.7250  -21.5030   -3.4070 C.2     1  UNL1        0.0090
     35  C         17.1040  -22.2610   -5.6280 C.2     1  UNL1        0.0510
     36  C         18.9220  -20.9910   -3.9050 C.2     1  UNL1        0.0010
     37  C         19.2070  -21.0960   -5.2620 C.2     1  UNL1        0.0020
     38  C         18.2970  -21.7190   -6.1190 C.2     1  UNL1        0.0310
@<TRIPOS>BOND
     1    20    21    1
     2    20    19    1
     3    19    15    1
     4    19    18    1
     5    15    13    1
     6    18    16    1
     7    13    12   ar
     8    13    14   ar
     9    12    11   ar
    10    16    14    1
    11    14    17   ar
    12    11    17   ar
    13    11     8    1
    14    17    22    1
    15    10     7    2
    16     8     9    1
    17     8     7   am
    18     7     1    1
    19    24    22    1
    20    24    25    1
    21    22    23    2
    22     6     1    2
    23     6     5    1
    24     1     2    1
    25     5     4    2
    26     2     3    2
    27     4     3    1
    28     4    26    1
    29    28    26    2
    30    26    29    1
    31    26    27    2
    32    29    30    1
    33    29    35    1
    34    38    35    1
    35    38    37    2
    36    30    31    1
    37    35    33    2
    38    37    36    1
    39    31    32    1
    40    33    32    1
    41    33    34    1
    42    36    34    2
