@<TRIPOS>MOLECULE
20585_out_ligand_01.pdbqt
 34 38 0 0 0
SMALL
GASTEIGER

@<TRIPOS>ATOM
      1  C         20.6070  -22.7100  -10.3380 C.2     1  UNL1        0.0350
      2  C         19.9540  -21.7590  -11.1360 C.2     1  UNL1        0.0170
      3  C         20.6170  -21.1850  -12.2230 C.2     1  UNL1        0.0040
      4  C         21.9340  -21.5470  -12.5070 C.2     1  UNL1        0.0370
      5  C         22.5950  -22.4610  -11.6850 C.2     1  UNL1        0.0790
      6  C         21.9350  -23.0560  -10.6100 C.2     1  UNL1        0.0540
      7  C         19.9310  -23.3600   -9.1800 C.2     1  UNL1        0.2560
      8  O         20.3380  -24.4540   -8.8120 O.2     1  UNL1       -0.2670
      9  N         18.8610  -22.6530   -8.6610 N.am    1  UNL1       -0.3230
     10  H         18.5680  -21.8280   -9.1670 H       1  UNL1        0.1690
     11  C         18.0580  -23.0040   -7.5540 C.2     1  UNL1        0.0370
     12  C         17.0580  -23.9620   -7.7720 C.2     1  UNL1        0.0320
     13  C         16.2190  -24.3710   -6.7310 C.2     1  UNL1        0.0420
     14  C         16.3760  -23.8240   -5.4620 C.2     1  UNL1        0.1020
     15  C         17.3490  -22.8450   -5.2420 C.2     1  UNL1        0.1040
     16  O         15.5360  -24.2870   -4.4820 O.2     1  UNL1       -0.3460
     17  C         18.1960  -22.4460   -6.2800 C.2     1  UNL1        0.0690
     18  O         17.5360  -22.2360   -4.0260 O.2     1  UNL1       -0.3460
     19  C         16.4230  -22.4580   -3.1540 C.3     1  UNL1        0.2020
     20  C         16.0040  -23.9180   -3.1800 C.3     1  UNL1        0.2020
     21  O         23.8780  -22.8630  -11.9610 O.2     1  UNL1       -0.2920
     22  C         24.8390  -21.8590  -12.0770 C.2     1  UNL1        0.1730
     23  C         25.5330  -21.5590  -10.9300 C.2     1  UNL1        0.0770
     24  C         26.4690  -20.5650  -11.0570 C.2     1  UNL1        0.1230
     25  N         26.7070  -19.9130  -12.2090 N.2     1  UNL1       -0.2410
     26  C         25.9660  -20.2730  -13.2760 C.2     1  UNL1        0.1620
     27  N         25.0290  -21.2350  -13.2540 N.2     1  UNL1       -0.2040
     28  C         26.2010  -19.5720  -14.5560 C.2     1  UNL1        0.0120
     29  C         26.7760  -18.2820  -14.5920 C.2     1  UNL1        0.0180
     30  C         26.9970  -17.6140  -15.8000 C.2     1  UNL1        0.0430
     31  C         26.6460  -18.2270  -16.9940 C.2     1  UNL1        0.1160
     32  F         26.8550  -17.5880  -18.1520 F       1  UNL1       -0.2060
     33  C         26.0810  -19.4940  -17.0030 C.2     1  UNL1        0.0430
     34  C         25.8610  -20.1600  -15.7920 C.2     1  UNL1        0.0180
@<TRIPOS>BOND
     1    32    31    1
     2    33    31    2
     3    33    34    1
     4    31    30    1
     5    30    29    2
     6    34    28    2
     7    29    28    1
     8    28    26    1
     9    26    27    1
    10    26    25    2
    11    27    22    2
    12     4     3    2
    13     4     5    1
    14     3     2    1
    15    25    24    1
    16    22    21    1
    17    22    23    1
    18    21     5    1
    19     5     6    2
    20     2     1    2
    21    24    23    2
    22     6     1    1
    23     1     7    1
    24     7     8    2
    25     7     9   am
    26    10     9    1
    27     9    11    1
    28    12    11    2
    29    12    13    1
    30    11    17    1
    31    13    14    2
    32    17    15    2
    33    14    15    1
    34    14    16    1
    35    15    18    1
    36    16    20    1
    37    18    19    1
    38    20    19    1
