@<TRIPOS>MOLECULE
20593_out_ligand_01.pdbqt
 32 35 0 0 0
SMALL
GASTEIGER

@<TRIPOS>ATOM
      1  C         20.5140  -22.7220   -7.7450 C.2     1  UNL1        0.0320
      2  C         20.5150  -23.7900   -8.6490 C.2     1  UNL1        0.0190
      3  C         21.6140  -23.9970   -9.4910 C.2     1  UNL1        0.0310
      4  C         22.7280  -23.1550   -9.4270 C.2     1  UNL1        0.0420
      5  C         22.6990  -22.0610   -8.5550 C.2     1  UNL1        0.0310
      6  C         21.6020  -21.8460   -7.7150 C.2     1  UNL1        0.0190
      7  N         23.8510  -23.2520  -10.2990 N.pl3   1  UNL1       -0.2810
      8  H         24.5460  -23.9780  -10.1260 H       1  UNL1        0.1790
      9  S         23.8330  -22.7990  -11.9260 S.O2    1  UNL1        0.2650
     10  O         22.4940  -22.3330  -12.2160 O.2     1  UNL1       -0.2000
     11  O         24.4260  -23.9270  -12.6140 O.2     1  UNL1       -0.2000
     12  C         24.9940  -21.4660  -12.0250 C.2     1  UNL1        0.1090
     13  C         25.6420  -21.0170  -10.8600 C.2     1  UNL1        0.0280
     14  C         26.5370  -19.9580  -10.9300 C.2     1  UNL1        0.0030
     15  C         26.7910  -19.3600  -12.1590 C.2     1  UNL1        0.0140
     16  C         26.1580  -19.8240  -13.3250 C.2     1  UNL1       -0.0060
     17  C         26.4320  -19.2260  -14.5630 C.2     1  UNL1        0.0150
     18  C         25.2410  -20.9010  -13.2780 C.2     1  UNL1        0.0900
     19  C         25.8150  -19.6930  -15.7140 C.2     1  UNL1        0.0200
     20  C         24.9420  -20.7510  -15.5880 C.2     1  UNL1        0.1170
     21  N         24.6570  -21.3480  -14.4100 N.2     1  UNL1       -0.2590
     22  C         19.3630  -22.4670   -6.8360 C.2     1  UNL1        0.2560
     23  N         18.5730  -23.5750   -6.5830 N.am    1  UNL1       -0.3220
     24  H         18.9160  -24.4560   -6.9370 H       1  UNL1        0.1690
     25  O         19.2350  -21.3400   -6.3760 O.2     1  UNL1       -0.2670
     26  C         17.3920  -23.6400   -5.8060 C.2     1  UNL1        0.0410
     27  C         17.4100  -23.5640   -4.4080 C.2     1  UNL1        0.0300
     28  C         16.2260  -23.6240   -3.6680 C.2     1  UNL1        0.0020
     29  C         15.0050  -23.7570   -4.3160 C.2     1  UNL1        0.0010
     30  C         14.9660  -23.8290   -5.7060 C.2     1  UNL1        0.0090
     31  C         16.1490  -23.7700   -6.4660 C.2     1  UNL1       -0.0350
     32  C         16.0340  -23.8550   -7.9650 C.3     1  UNL1        0.0500
@<TRIPOS>BOND
     1    19    20    1
     2    19    17    2
     3    20    21    2
     4    17    16    1
     5    21    18    1
     6    16    18    1
     7    16    15    2
     8    18    12    2
     9    11     9    2
    10    10     9    2
    11    15    14    1
    12    12     9    1
    13    12    13    1
    14     9     7    1
    15    14    13    2
    16     7     8    1
    17     7     4    1
    18     3     4    2
    19     3     2    1
    20     4     5    1
    21     2     1    2
    22     5     6    2
    23    32    31    1
    24     1     6    1
    25     1    22    1
    26    24    23    1
    27    22    23   am
    28    22    25    2
    29    23    26    1
    30    31    26    2
    31    31    30    1
    32    26    27    1
    33    30    29    2
    34    27    28    2
    35    29    28    1
