@<TRIPOS>MOLECULE
205_out_ligand_01.pdbqt
 32 35 0 0 0
SMALL
GASTEIGER

@<TRIPOS>ATOM
      1  C         20.3110  -23.1840  -10.5000 C.3     1  UNL1        0.1180
      2  N         21.4670  -22.9190  -11.1290 N.2     1  UNL1       -0.2160
      3  C         21.5020  -21.8570  -11.9510 C.2     1  UNL1        0.1630
      4  N         20.4600  -21.0440  -12.1890 N.pl3   1  UNL1       -0.2280
      5  C         19.3080  -21.3210  -11.5730 C.2     1  UNL1        0.0720
      6  C         18.2130  -20.5000  -11.8120 C.2     1  UNL1        0.0320
      7  C         16.9710  -20.7310  -11.2140 C.2     1  UNL1        0.0020
      8  C         16.8100  -21.8100  -10.3550 C.2     1  UNL1        0.0010
      9  C         17.8960  -22.6460  -10.1000 C.2     1  UNL1        0.0170
     10  C         19.1580  -22.4040  -10.6990 C.2     1  UNL1        0.0330
     11  N         20.2510  -24.2920   -9.6220 N.3     1  UNL1       -0.2760
     12  H         19.2710  -24.5390   -9.5020 H       1  UNL1        0.1290
     13  C         20.9200  -24.1290   -8.3270 C.3     1  UNL1        0.0980
     14  C         20.5770  -22.7780   -7.6880 C.3     1  UNL1        0.0530
     15  C         19.2840  -22.8380   -6.9080 C.2     1  UNL1       -0.0570
     16  C         18.5110  -24.0090   -6.9140 C.2     1  UNL1        0.0090
     17  C         17.3270  -24.0790   -6.1800 C.2     1  UNL1        0.0250
     18  C         16.9170  -22.9750   -5.4280 C.2     1  UNL1        0.0740
     19  C         17.6700  -21.7980   -5.4210 C.2     1  UNL1        0.0250
     20  C         18.8540  -21.7350   -6.1570 C.2     1  UNL1        0.0090
     21  S         15.4000  -23.0470   -4.5220 S.O2    1  UNL1        0.2390
     22  O         14.3880  -22.2970   -5.2270 O.2     1  UNL1       -0.2060
     23  O         15.1830  -24.3980   -4.0590 O.2     1  UNL1       -0.2060
     24  N         15.7720  -22.1480   -3.1530 N.3     1  UNL1       -0.2250
     25  H         16.7730  -22.2030   -2.9670 H       1  UNL1        0.1360
     26  H         15.1900  -22.4540   -2.3730 H       1  UNL1        0.1360
     27  C         22.7720  -21.5620  -12.6280 C.2     1  UNL1        0.0290
     28  C         22.8310  -21.0550  -13.9360 C.2     1  UNL1        0.0180
     29  C         24.0580  -20.7860  -14.5430 C.2     1  UNL1        0.0200
     30  C         25.2130  -21.0320  -13.8240 C.2     1  UNL1        0.1160
     31  N         25.2170  -21.5200  -12.5680 N.2     1  UNL1       -0.2720
     32  C         24.0040  -21.7700  -12.0070 C.2     1  UNL1        0.1310
@<TRIPOS>BOND
     1    29    28    1
     2    29    30    2
     3    28    27    2
     4    30    31    1
     5    27    32    1
     6    27     3    1
     7    31    32    2
     8     4     3    1
     9     4     5    1
    10     3     2    2
    11     6     5    2
    12     6     7    1
    13     5    10    1
    14     7     8    2
    15     2     1    1
    16    10     1    1
    17    10     9    2
    18     1    11    1
    19     8     9    1
    20    11    12    1
    21    11    13    1
    22    13    14    1
    23    14    15    1
    24    16    15    2
    25    16    17    1
    26    15    20    1
    27    17    18    2
    28    20    19    2
    29    18    19    1
    30    18    21    1
    31    22    21    2
    32    21    23    2
    33    21    24    1
    34    24    25    1
    35    24    26    1
