@<TRIPOS>MOLECULE
20606_out_ligand_01.pdbqt
 36 39 0 0 0
SMALL
GASTEIGER

@<TRIPOS>ATOM
      1  C         20.3200  -21.7170  -11.4430 C.2     1  UNL1        0.0320
      2  C         21.0320  -21.4370  -12.6110 C.2     1  UNL1        0.0190
      3  C         22.3930  -21.7590  -12.6950 C.2     1  UNL1        0.0300
      4  C         23.0730  -22.3700  -11.6260 C.2     1  UNL1        0.0340
      5  C         22.3380  -22.6590  -10.4720 C.2     1  UNL1        0.0300
      6  C         20.9760  -22.3410  -10.3790 C.2     1  UNL1        0.0190
      7  C         18.8770  -21.3830  -11.2890 C.2     1  UNL1        0.2510
      8  N         18.1920  -22.0600  -10.3010 N.am    1  UNL1       -0.3570
      9  H         18.6180  -22.8840   -9.8960 H       1  UNL1        0.1620
     10  O         18.3430  -20.5820  -12.0480 O.2     1  UNL1       -0.2680
     11  C         16.7480  -21.9550  -10.1870 C.3     1  UNL1        0.1270
     12  C         16.0930  -23.2410   -9.6680 C.3     1  UNL1        0.0580
     13  C         16.1330  -23.3460   -8.1590 C.2     1  UNL1       -0.0570
     14  C         15.2040  -22.6460   -7.3730 C.2     1  UNL1        0.0090
     15  C         15.2670  -22.7100   -5.9800 C.2     1  UNL1        0.0250
     16  C         16.2610  -23.4770   -5.3720 C.2     1  UNL1        0.0740
     17  C         17.1990  -24.1730   -6.1390 C.2     1  UNL1        0.0250
     18  C         17.1290  -24.1090   -7.5310 C.2     1  UNL1        0.0090
     19  S         16.3690  -23.5510   -3.6050 S.O2    1  UNL1        0.2390
     20  O         15.6110  -24.6940   -3.1530 O.2     1  UNL1       -0.2060
     21  O         17.7430  -23.3280   -3.2170 O.2     1  UNL1       -0.2060
     22  N         15.5400  -22.1570   -3.1530 N.3     1  UNL1       -0.2250
     23  H         14.5830  -22.3370   -2.8490 H       1  UNL1        0.1360
     24  H         15.5750  -21.4880   -3.9240 H       1  UNL1        0.1360
     25  N         24.4380  -22.6550  -11.7770 N.pl3   1  UNL1       -0.3360
     26  H         24.9100  -22.9800  -10.9430 H       1  UNL1        0.1680
     27  C         25.2290  -22.5670  -12.8800 C.3     1  UNL1        0.1630
     28  N         25.4220  -21.5900  -13.7000 N.3     1  UNL1       -0.2590
     29  C         26.4460  -21.9420  -14.7070 C.3     1  UNL1        0.1390
     30  C         26.1590  -21.2440  -16.0330 C.3     1  UNL1        0.1680
     31  C         26.4320  -23.4540  -14.9220 C.3     1  UNL1        0.0950
     32  S         25.4510  -22.4750  -17.1080 S.O2    1  UNL1        0.1470
     33  O         24.1260  -22.0670  -17.5190 O.2     1  UNL1       -0.2280
     34  O         26.4650  -22.8750  -18.0640 O.2     1  UNL1       -0.2280
     35  C         25.3130  -23.7680  -15.9000 C.3     1  UNL1        0.1580
     36  S         26.0730  -24.0660  -13.2620 S.3     1  UNL1       -0.0840
@<TRIPOS>BOND
     1    34    32    2
     2    33    32    2
     3    32    30    1
     4    32    35    1
     5    30    29    1
     6    35    31    1
     7    31    29    1
     8    31    36    1
     9    29    28    1
    10    28    27    1
    11    36    27    1
    12    27    25    1
    13     3     2    1
    14     3     4    2
    15     2     1    2
    16    10     7    2
    17    25     4    1
    18    25    26    1
    19     4     5    1
    20     1     7    1
    21     1     6    1
    22     7     8   am
    23     5     6    2
    24     8    11    1
    25     8     9    1
    26    11    12    1
    27    12    13    1
    28    13    18    2
    29    13    14    1
    30    18    17    1
    31    14    15    2
    32    17    16    2
    33    15    16    1
    34    16    19    1
    35    24    22    1
    36    19    21    2
    37    19    22    1
    38    19    20    2
    39    22    23    1
