@<TRIPOS>MOLECULE
20602_out_ligand_01.pdbqt
 30 32 0 0 0
SMALL
GASTEIGER

@<TRIPOS>ATOM
      1  C         19.3720  -23.2110   -7.6620 C.2     1  UNL1       -0.0050
      2  C         19.8710  -24.2400   -8.4800 C.2     1  UNL1        0.0150
      3  C         21.1800  -24.1970   -8.9680 C.2     1  UNL1        0.0180
      4  C         22.0210  -23.1340   -8.6260 C.2     1  UNL1        0.0320
      5  C         21.5410  -22.1030   -7.8120 C.2     1  UNL1        0.0180
      6  C         20.2290  -22.1490   -7.3300 C.2     1  UNL1        0.0150
      7  C         17.9880  -23.2400   -7.1560 C.2     1  UNL1        0.0930
      8  N         17.8540  -23.9420   -5.9980 N.2     1  UNL1       -0.2580
      9  C         16.6160  -24.0510   -5.4760 C.2     1  UNL1        0.1170
     10  C         15.4950  -23.4850   -6.0510 C.2     1  UNL1        0.0220
     11  C         15.6460  -22.7540   -7.2280 C.2     1  UNL1        0.0330
     12  C         16.9080  -22.6080   -7.8070 C.2     1  UNL1        0.0640
     13  N         17.1330  -21.8420   -8.9800 N.am    1  UNL1       -0.3250
     14  C         17.3010  -22.2990  -10.2770 C.2     1  UNL1        0.2210
     15  O         17.3080  -23.4690  -10.6400 O.2     1  UNL1       -0.2730
     16  H         17.1600  -20.8350   -8.8540 H       1  UNL1        0.1690
     17  C         17.4950  -21.1440  -11.2490 C.3     1  UNL1        0.0980
     18  C         18.9510  -20.9410  -11.6320 C.3     1  UNL1        0.0140
     19  C         23.4040  -23.1240   -9.1720 C.2     1  UNL1        0.2510
     20  O         24.1710  -24.0420   -8.9040 O.2     1  UNL1       -0.2680
     21  N         23.7420  -22.0430   -9.9530 N.am    1  UNL1       -0.3530
     22  H         23.0800  -21.2970  -10.1040 H       1  UNL1        0.1630
     23  C         25.0200  -21.9480  -10.6190 C.3     1  UNL1        0.1610
     24  C         24.8300  -21.5740  -12.0660 C.2     1  UNL1       -0.0400
     25  C         25.9140  -21.0780  -12.8110 C.2     1  UNL1        0.0120
     26  C         25.7550  -20.7500  -14.1580 C.2     1  UNL1        0.0430
     27  C         24.5140  -20.9200  -14.7610 C.2     1  UNL1        0.1160
     28  F         24.3610  -20.6070  -16.0550 F       1  UNL1       -0.2060
     29  C         23.4320  -21.4160  -14.0450 C.2     1  UNL1        0.0430
     30  C         23.5880  -21.7460  -12.6970 C.2     1  UNL1        0.0120
@<TRIPOS>BOND
     1    28    27    1
     2    27    26    2
     3    27    29    1
     4    26    25    1
     5    29    30    2
     6    25    24    2
     7    30    24    1
     8    24    23    1
     9    18    17    1
    10    17    14    1
    11    15    14    2
    12    23    21    1
    13    14    13   am
    14    22    21    1
    15    21    19   am
    16    19    20    2
    17    19     4    1
    18    13    16    1
    19    13    12    1
    20     3     4    2
    21     3     2    1
    22     4     5    1
    23     2     1    2
    24     5     6    2
    25    12    11    1
    26    12     7    2
    27     1     6    1
    28     1     7    1
    29    11    10    2
    30     7     8    1
    31    10     9    1
    32     8     9    2
