@<TRIPOS>MOLECULE
20635_out_ligand_01.pdbqt
 31 34 0 0 0
SMALL
GASTEIGER

@<TRIPOS>ATOM
      1  C         17.8420  -21.7350  -11.0200 C.ar    1  UNL1        0.1580
      2  N         17.6160  -20.6710  -11.7970 N.ar    1  UNL1       -0.1110
      3  O         18.8530  -20.4610  -12.4130 O.2     1  UNL1       -0.1890
      4  C         19.7000  -21.4310  -11.9420 C.ar    1  UNL1        0.2230
      5  C         21.0630  -21.5580  -12.3350 C.2     1  UNL1        0.0890
      6  C         21.8190  -20.8110  -13.2140 C.2     1  UNL1        0.0480
      7  C         23.1300  -21.3650  -13.2430 C.2     1  UNL1       -0.0070
      8  C         24.3140  -21.0440  -13.9330 C.2     1  UNL1        0.0200
      9  C         25.4700  -21.8200  -13.7370 C.2     1  UNL1       -0.0610
     10  C         26.7440  -21.4620  -14.4450 C.3     1  UNL1        0.0480
     11  C         25.4400  -22.8910  -12.8360 C.2     1  UNL1        0.0090
     12  C         24.2760  -23.2280  -12.1390 C.2     1  UNL1        0.0310
     13  C         23.1380  -22.4490  -12.3640 C.2     1  UNL1        0.0430
     14  N         21.8740  -22.5430  -11.8300 N.pl3   1  UNL1       -0.3520
     15  N         19.1140  -22.2420  -11.0830 N.ar    1  UNL1       -0.2030
     16  H         21.5750  -23.2360  -11.1560 H       1  UNL1        0.1660
     17  C         16.7890  -22.3340  -10.1690 C.3     1  UNL1        0.1030
     18  C         17.1050  -22.1590   -8.6840 C.3     1  UNL1        0.1330
     19  N         16.6910  -23.3150   -7.8780 N.am    1  UNL1       -0.3550
     20  C         17.4550  -23.8810   -6.8550 C.2     1  UNL1        0.2280
     21  O         17.1370  -24.9640   -6.3520 O.2     1  UNL1       -0.2730
     22  C         15.5400  -24.0610   -8.3660 C.3     1  UNL1        0.1520
     23  C         18.6920  -23.1090   -6.3430 C.3     1  UNL1        0.1100
     24  C         18.3760  -21.6170   -6.0990 C.3     1  UNL1        0.0140
     25  C         18.6630  -21.1880   -4.6650 C.3     1  UNL1        0.0060
     26  C         19.8660  -23.2180   -7.3110 C.2     1  UNL1       -0.0450
     27  C         20.8170  -22.1920   -7.4260 C.2     1  UNL1        0.0080
     28  C         21.8930  -22.3160   -8.3080 C.2     1  UNL1        0.0010
     29  C         22.0370  -23.4690   -9.0760 C.2     1  UNL1        0.0000
     30  C         21.1100  -24.5020   -8.9610 C.2     1  UNL1        0.0010
     31  C         20.0330  -24.3810   -8.0810 C.2     1  UNL1        0.0080
@<TRIPOS>BOND
     1    10     9    1
     2     8     9    1
     3     8     7    2
     4     9    11    2
     5     7     6    1
     6     7    13    1
     7     6     5    2
     8    11    12    1
     9     3     4   ar
    10     3     2   ar
    11    13    12    2
    12    13    14    1
    13     5     4    1
    14     5    14    1
    15     4    15   ar
    16    14    16    1
    17     2     1   ar
    18    15     1   ar
    19     1    17    1
    20    17    18    1
    21    29    30    2
    22    29    28    1
    23    30    31    1
    24    18    19    1
    25    22    19    1
    26    28    27    2
    27    31    26    2
    28    19    20   am
    29    27    26    1
    30    26    23    1
    31    20    21    2
    32    20    23    1
    33    23    24    1
    34    24    25    1
