@<TRIPOS>MOLECULE
20641_out_ligand_01.pdbqt
 36 39 0 0 0
SMALL
GASTEIGER

@<TRIPOS>ATOM
      1  C         22.6150  -22.8990  -10.5410 C.ar    1  UNL1        0.1920
      2  N         23.3370  -23.5770   -9.6790 N.ar    1  UNL1       -0.1230
      3  N         22.4880  -24.1930   -8.8090 N.ar    1  UNL1       -0.1340
      4  C         21.2530  -23.8720   -9.1400 C.ar    1  UNL1        0.1350
      5  N         21.2820  -23.0570  -10.2600 N.ar    1  UNL1       -0.3060
      6  S         23.2780  -21.9650  -11.8360 S.3     1  UNL1       -0.0810
      7  C         24.8530  -21.4260  -11.1000 C.3     1  UNL1        0.1850
      8  C         26.0000  -21.5380  -12.0910 C.2     1  UNL1        0.2350
      9  N         25.6890  -21.1230  -13.3670 N.am    1  UNL1       -0.2790
     10  C         25.8210  -21.9850  -14.4290 C.2     1  UNL1        0.3230
     11  H         24.8200  -20.6000  -13.4470 H       1  UNL1        0.1730
     12  N         25.3110  -21.4120  -15.5780 N.am    1  UNL1       -0.3350
     13  O         26.2950  -23.1100  -14.3720 O.2     1  UNL1       -0.2470
     14  H         25.3300  -20.4010  -15.5670 H       1  UNL1        0.1650
     15  O         27.1210  -21.9020  -11.7330 O.2     1  UNL1       -0.2720
     16  C         25.3570  -22.0380  -16.9090 C.3     1  UNL1        0.0230
     17  C         26.7970  -22.4260  -17.2840 C.3     1  UNL1        0.0370
     18  C         24.8440  -21.0010  -17.9320 C.3     1  UNL1        0.0370
     19  C         24.4360  -23.2680  -16.9810 C.3     1  UNL1        0.0370
     20  C         20.1230  -22.5160  -10.9590 C.3     1  UNL1        0.0930
     21  C         20.0350  -20.9840  -10.8680 C.3     1  UNL1        0.0260
     22  C         18.9100  -20.4470  -11.7510 C.3     1  UNL1        0.0020
     23  C         17.6130  -21.2580  -11.6630 C.3     1  UNL1        0.0000
     24  C         17.6140  -22.2630  -10.5180 C.3     1  UNL1        0.0020
     25  C         18.7970  -23.2290  -10.6240 C.3     1  UNL1        0.0260
     26  C         20.0270  -24.3120   -8.3990 C.3     1  UNL1        0.1200
     27  C         19.4950  -23.2650   -7.4300 C.2     1  UNL1       -0.0400
     28  C         20.3650  -22.2140   -7.0720 C.2     1  UNL1        0.0080
     29  C         19.9560  -21.2020   -6.2150 C.2     1  UNL1        0.0010
     30  C         18.6730  -21.2260   -5.6830 C.2     1  UNL1        0.0120
     31  C         17.7870  -22.2680   -5.9880 C.2     1  UNL1       -0.0250
     32  C         16.5020  -22.2680   -5.4210 C.2     1  UNL1        0.0120
     33  C         18.1870  -23.3180   -6.8580 C.2     1  UNL1       -0.0190
     34  C         15.5980  -23.2970   -5.6830 C.2     1  UNL1        0.0010
     35  C         15.9700  -24.3380   -6.5190 C.2     1  UNL1        0.0010
     36  C         17.2440  -24.3510   -7.0970 C.2     1  UNL1        0.0130
@<TRIPOS>BOND
     1    18    16    1
     2    17    16    1
     3    19    16    1
     4    16    12    1
     5    12    14    1
     6    12    10   am
     7    10    13    2
     8    10     9   am
     9    11     9    1
    10     9     8   am
    11     8    15    2
    12     8     7    1
    13     6     7    1
    14     6     1    1
    15    22    23    1
    16    22    21    1
    17    23    24    1
    18    20    21    1
    19    20    25    1
    20    20     5    1
    21    25    24    1
    22     1     5   ar
    23     1     2   ar
    24     5     4   ar
    25     2     3   ar
    26     4     3   ar
    27     4    26    1
    28    26    27    1
    29    27    28    2
    30    27    33    1
    31    36    33    1
    32    36    35    2
    33    28    29    1
    34    33    31    2
    35    35    34    1
    36    29    30    2
    37    31    30    1
    38    31    32    1
    39    34    32    2
