@<TRIPOS>MOLECULE
20656_out_ligand_01.pdbqt
 29 32 0 0 0
SMALL
GASTEIGER

@<TRIPOS>ATOM
      1  C         22.6150  -22.6830  -10.9370 C.ar    1  UNL1        0.1920
      2  N         23.4850  -23.2940  -10.1700 N.ar    1  UNL1       -0.1230
      3  N         22.7970  -23.9120   -9.1690 N.ar    1  UNL1       -0.1340
      4  C         21.5130  -23.6380   -9.3110 C.ar    1  UNL1        0.1350
      5  N         21.3440  -22.8480  -10.4360 N.ar    1  UNL1       -0.3060
      6  C         20.4420  -24.1460   -8.3930 C.3     1  UNL1        0.1200
      7  C         19.8360  -23.1200   -7.4420 C.2     1  UNL1       -0.0400
      8  C         20.5950  -22.0080   -7.0290 C.2     1  UNL1        0.0080
      9  C         20.0630  -21.0490   -6.1730 C.2     1  UNL1        0.0010
     10  C         18.7640  -21.1900   -5.6980 C.2     1  UNL1        0.0120
     11  C         17.9880  -22.3000   -6.0510 C.2     1  UNL1       -0.0250
     12  C         16.6870  -22.4280   -5.5370 C.2     1  UNL1        0.0120
     13  C         18.5160  -23.2940   -6.9180 C.2     1  UNL1       -0.0190
     14  C         15.8930  -23.5280   -5.8510 C.2     1  UNL1        0.0010
     15  C         16.3950  -24.5190   -6.6820 C.2     1  UNL1        0.0010
     16  C         17.6860  -24.4050   -7.2040 C.2     1  UNL1        0.0130
     17  C         20.1080  -22.3490  -11.0260 C.3     1  UNL1        0.0930
     18  C         18.8730  -23.1520  -10.5710 C.3     1  UNL1        0.0260
     19  C         17.5750  -22.3410  -10.6300 C.3     1  UNL1        0.0020
     20  C         17.5660  -21.3770  -11.8100 C.3     1  UNL1        0.0000
     21  C         18.7130  -20.3640  -11.7450 C.3     1  UNL1        0.0020
     22  C         19.8960  -20.8360  -10.8950 C.3     1  UNL1        0.0260
     23  S         23.0080  -21.8350  -12.3930 S.3     1  UNL1       -0.0810
     24  C         24.7720  -22.2320  -12.5640 C.3     1  UNL1        0.1840
     25  C         25.6260  -21.1400  -11.9470 C.2     1  UNL1        0.2250
     26  N         25.9780  -21.3310  -10.6400 N.am    1  UNL1       -0.3690
     27  H         26.6620  -20.6770  -10.2790 H       1  UNL1        0.1590
     28  H         26.0870  -22.2930  -10.3140 H       1  UNL1        0.1590
     29  O         25.9940  -20.1390  -12.5540 O.2     1  UNL1       -0.2730
@<TRIPOS>BOND
     1    24    23    1
     2    24    25    1
     3    29    25    2
     4    23     1    1
     5    25    26   am
     6    20    21    1
     7    20    19    1
     8    21    22    1
     9    17    22    1
    10    17    18    1
    11    17     5    1
    12     1     5   ar
    13     1     2   ar
    14    26    28    1
    15    26    27    1
    16    19    18    1
    17     5     4   ar
    18     2     3   ar
    19     4     3   ar
    20     4     6    1
    21     6     7    1
    22     7     8    2
    23     7    13    1
    24    16    13    1
    25    16    15    2
    26     8     9    1
    27    13    11    2
    28    15    14    1
    29     9    10    2
    30    11    10    1
    31    11    12    1
    32    14    12    2
