@<TRIPOS>MOLECULE
20650_out_ligand_01.pdbqt
 32 35 0 0 0
SMALL
GASTEIGER

@<TRIPOS>ATOM
      1  C         22.7090  -22.8830  -10.6070 C.ar    1  UNL1        0.1920
      2  N         23.4360  -23.5540   -9.7430 N.ar    1  UNL1       -0.1230
      3  N         22.5890  -24.1210   -8.8330 N.ar    1  UNL1       -0.1340
      4  C         21.3520  -23.7790   -9.1460 C.ar    1  UNL1        0.1350
      5  N         21.3780  -23.0050  -10.2960 N.ar    1  UNL1       -0.3060
      6  C         20.1270  -24.1910   -8.3800 C.3     1  UNL1        0.1200
      7  C         19.6600  -23.1550   -7.3660 C.2     1  UNL1       -0.0400
      8  C         20.5380  -22.0880   -7.0840 C.2     1  UNL1        0.0080
      9  C         20.1750  -21.0740   -6.2070 C.2     1  UNL1        0.0010
     10  C         18.9390  -21.1190   -5.5760 C.2     1  UNL1        0.0120
     11  C         18.0570  -22.1870   -5.7940 C.2     1  UNL1       -0.0250
     12  C         16.8290  -22.2130   -5.1210 C.2     1  UNL1        0.0120
     13  C         18.4050  -23.2320   -6.6870 C.2     1  UNL1       -0.0190
     14  C         15.9280  -23.2600   -5.3020 C.2     1  UNL1        0.0010
     15  C         16.2490  -24.2980   -6.1590 C.2     1  UNL1        0.0010
     16  C         17.4700  -24.2860   -6.8390 C.2     1  UNL1        0.0130
     17  C         20.2170  -22.4800  -11.0050 C.3     1  UNL1        0.0930
     18  C         18.8870  -22.8180  -10.3250 C.3     1  UNL1        0.0260
     19  C         17.6940  -22.4470  -11.2090 C.3     1  UNL1        0.0020
     20  C         17.9250  -21.2010  -12.0670 C.3     1  UNL1        0.0000
     21  C         18.9930  -20.2840  -11.4830 C.3     1  UNL1        0.0020
     22  C         20.3450  -20.9930  -11.3840 C.3     1  UNL1        0.0260
     23  S         23.3540  -22.0590  -11.9820 S.3     1  UNL1       -0.0810
     24  C         25.1250  -22.4250  -11.7690 C.3     1  UNL1        0.1850
     25  C         25.5790  -23.4260  -12.8230 C.2     1  UNL1        0.2280
     26  N         25.1210  -23.1490  -14.0980 N.am    1  UNL1       -0.3520
     27  H         24.8570  -22.1730  -14.2500 H       1  UNL1        0.1630
     28  O         26.3080  -24.3750  -12.5440 O.2     1  UNL1       -0.2730
     29  C         25.5310  -23.8750  -15.3120 C.3     1  UNL1        0.0220
     30  C         24.6720  -23.3630  -16.4800 C.3     1  UNL1        0.0370
     31  C         27.0100  -23.6050  -15.6270 C.3     1  UNL1        0.0370
     32  C         25.2920  -25.3890  -15.1740 C.3     1  UNL1        0.0370
@<TRIPOS>BOND
     1    30    29    1
     2    31    29    1
     3    29    32    1
     4    29    26    1
     5    27    26    1
     6    26    25   am
     7    25    28    2
     8    25    24    1
     9    20    21    1
    10    20    19    1
    11    23    24    1
    12    23     1    1
    13    21    22    1
    14    22    17    1
    15    19    18    1
    16    17    18    1
    17    17     5    1
    18     1     5   ar
    19     1     2   ar
    20     5     4   ar
    21     2     3   ar
    22     4     3   ar
    23     4     6    1
    24     6     7    1
    25     7     8    2
    26     7    13    1
    27     8     9    1
    28    16    13    1
    29    16    15    2
    30    13    11    2
    31     9    10    2
    32    15    14    1
    33    11    10    1
    34    11    12    1
    35    14    12    2
