@<TRIPOS>MOLECULE
2065_out_ligand_01.pdbqt
 31 34 0 0 0
SMALL
GASTEIGER

@<TRIPOS>ATOM
      1  C         20.8220  -22.3360   -7.6780 C.2     1  UNL1        0.0320
      2  C         20.7770  -23.5290   -8.4120 C.2     1  UNL1        0.0190
      3  C         21.8360  -23.8750   -9.2550 C.2     1  UNL1        0.0250
      4  C         22.9500  -23.0410   -9.3430 C.2     1  UNL1        0.0220
      5  C         23.0030  -21.8540   -8.6140 C.2     1  UNL1        0.0250
      6  C         21.9440  -21.5020   -7.7730 C.2     1  UNL1        0.0190
      7  N         24.0190  -23.3580  -10.2420 N.pl3   1  UNL1       -0.1810
      8  H         24.1800  -24.3650  -10.2800 H       1  UNL1        0.1460
      9  S         23.7500  -22.8460  -11.8500 S.O2    1  UNL1        0.2480
     10  O         22.4160  -22.3210  -12.0330 O.2     1  UNL1       -0.2050
     11  O         24.2220  -23.9570  -12.6590 O.2     1  UNL1       -0.2050
     12  C         24.9090  -21.5230  -12.0480 C.2     1  UNL1        0.1040
     13  C         25.5850  -21.0590  -10.9050 C.2     1  UNL1        0.0270
     14  C         26.5100  -20.0310  -11.0200 C.2     1  UNL1        0.0030
     15  C         26.7550  -19.4740  -12.2690 C.2     1  UNL1        0.0140
     16  C         26.0790  -19.9430  -13.4100 C.2     1  UNL1       -0.0060
     17  C         26.3380  -19.3750  -14.6650 C.2     1  UNL1        0.0150
     18  C         25.1310  -20.9900  -13.3200 C.2     1  UNL1        0.0890
     19  C         25.6730  -19.8360  -15.7900 C.2     1  UNL1        0.0200
     20  C         24.7620  -20.8560  -15.6220 C.2     1  UNL1        0.1170
     21  N         24.4860  -21.4240  -14.4280 N.2     1  UNL1       -0.2590
     22  C         19.6680  -21.9990   -6.8010 C.2     1  UNL1        0.2520
     23  O         19.7700  -21.1090   -5.9650 O.2     1  UNL1       -0.2680
     24  N         18.5320  -22.7660   -6.9730 N.am    1  UNL1       -0.3520
     25  H         18.6250  -23.6360   -7.4830 H       1  UNL1        0.1630
     26  C         17.3880  -22.6350   -6.0810 C.3     1  UNL1        0.0840
     27  C         16.0950  -22.5290   -6.8970 C.3     1  UNL1        0.0250
     28  C         14.8650  -22.4490   -5.9950 C.3     1  UNL1        0.0020
     29  C         14.8080  -23.6190   -5.0180 C.3     1  UNL1        0.0000
     30  C         16.0920  -23.7330   -4.2020 C.3     1  UNL1        0.0020
     31  C         17.3250  -23.8120   -5.0990 C.3     1  UNL1        0.0250
@<TRIPOS>BOND
     1    19    20    1
     2    19    17    2
     3    20    21    2
     4    17    16    1
     5    21    18    1
     6    16    18    1
     7    16    15    2
     8    18    12    2
     9    11     9    2
    10    15    14    1
    11    12     9    1
    12    12    13    1
    13    10     9    2
    14     9     7    1
    15    14    13    2
    16     8     7    1
    17     7     4    1
    18     4     3    2
    19     4     5    1
    20     3     2    1
    21     5     6    2
    22     2     1    2
    23     6     1    1
    24     1    22    1
    25    25    24    1
    26    24    22   am
    27    24    26    1
    28    27    26    1
    29    27    28    1
    30    22    23    2
    31    26    31    1
    32    28    29    1
    33    31    30    1
    34    29    30    1
