@<TRIPOS>MOLECULE
20669_out_ligand_01.pdbqt
 31 35 0 0 0
SMALL
GASTEIGER

@<TRIPOS>ATOM
      1  S         16.6490  -21.8060  -10.4230 S.3     1  UNL1       -0.0730
      2  C         15.8240  -23.1560   -9.5430 C.3     1  UNL1        0.1850
      3  C         16.0200  -23.0250   -8.0430 C.2     1  UNL1        0.2270
      4  O         15.4940  -22.1250   -7.3910 O.2     1  UNL1       -0.2730
      5  N         16.8350  -23.9780   -7.4770 N.am    1  UNL1       -0.3520
      6  H         17.1450  -24.7720   -8.0320 H       1  UNL1        0.1630
      7  C         17.2000  -23.9460   -6.0670 C.3     1  UNL1        0.1180
      8  C         15.9240  -24.0650   -5.2160 C.3     1  UNL1        0.0300
      9  C         16.1890  -23.7050   -3.7610 C.3     1  UNL1        0.0070
     10  C         16.6280  -22.2480   -3.6620 C.3     1  UNL1        0.0390
     11  C         17.7690  -21.9310   -4.5940 C.2     1  UNL1       -0.0500
     12  C         18.5640  -20.8020   -4.3280 C.2     1  UNL1        0.0070
     13  C         18.0280  -22.7120   -5.7390 C.2     1  UNL1       -0.0290
     14  C         19.6340  -20.4740   -5.1570 C.2     1  UNL1        0.0010
     15  C         19.9230  -21.2660   -6.2630 C.2     1  UNL1        0.0010
     16  C         19.1300  -22.3790   -6.5460 C.2     1  UNL1        0.0100
     17  C         18.2970  -22.3400  -10.3740 C.ar    1  UNL1        0.2310
     18  N         18.7170  -23.4490   -9.8020 N.ar    1  UNL1       -0.1140
     19  N         20.0790  -23.5010  -10.0000 N.ar    1  UNL1       -0.1200
     20  C         20.4170  -22.4130  -10.6690 C.ar    1  UNL1        0.2120
     21  O         19.3200  -21.6270  -10.9340 O.2     1  UNL1       -0.2630
     22  C         21.7550  -22.0860  -11.0740 C.ar    1  UNL1        0.0830
     23  S         22.1260  -21.8550  -12.7290 S.2     1  UNL1       -0.0830
     24  C         23.7770  -21.5070  -12.4040 C.ar    1  UNL1        0.0170
     25  C         24.7730  -21.1890  -13.3500 C.2     1  UNL1        0.0200
     26  C         24.0570  -21.5770  -11.0370 C.ar    1  UNL1        0.0040
     27  C         26.0740  -20.9410  -12.9070 C.2     1  UNL1        0.0010
     28  C         26.3830  -21.0100  -11.5580 C.2     1  UNL1        0.0010
     29  C         25.3920  -21.3240  -10.6240 C.2     1  UNL1        0.0140
     30  C         22.8720  -21.9090  -10.2830 C.ar    1  UNL1        0.0670
     31 CL         22.9200  -22.0740   -8.5680 Cl      1  UNL1       -0.0820
@<TRIPOS>BOND
     1    25    27    1
     2    25    24    2
     3    27    28    2
     4    23    24   ar
     5    23    22   ar
     6    24    26   ar
     7    28    29    1
     8    22    20    1
     9    22    30   ar
    10    26    29    2
    11    26    30   ar
    12    21    20   ar
    13    21    17   ar
    14    20    19   ar
    15     1    17    1
    16     1     2    1
    17    17    18   ar
    18    30    31    1
    19    19    18   ar
    20     2     3    1
    21     3     5   am
    22     3     4    2
    23     6     5    1
    24     5     7    1
    25    16    15    2
    26    16    13    1
    27    15    14    1
    28     7    13    1
    29     7     8    1
    30    13    11    2
    31     8     9    1
    32    14    12    2
    33    11    12    1
    34    11    10    1
    35     9    10    1
