@<TRIPOS>MOLECULE
20660_out_ligand_01.pdbqt
 39 42 0 0 0
SMALL
GASTEIGER

@<TRIPOS>ATOM
      1  N         20.7750  -22.0000  -12.4840 N.am    1  UNL1       -0.3260
      2  C         19.8370  -21.1220  -11.9710 C.2     1  UNL1        0.2310
      3  O         20.0760  -20.0260  -11.4640 O.2     1  UNL1       -0.2720
      4  H         20.4320  -22.9420  -12.6880 H       1  UNL1        0.1690
      5  C         18.4070  -21.6220  -12.1060 C.3     1  UNL1        0.1850
      6  S         17.2760  -20.7260  -10.9960 S.3     1  UNL1       -0.0810
      7  C         16.7800  -22.0050   -9.9360 C.ar    1  UNL1        0.1920
      8  N         15.5550  -22.4700   -9.8690 N.ar    1  UNL1       -0.1230
      9  N         15.5190  -23.4350   -8.9070 N.ar    1  UNL1       -0.1340
     10  C         16.7250  -23.5310   -8.3770 C.ar    1  UNL1        0.1360
     11  N         17.5810  -22.6710   -9.0450 N.ar    1  UNL1       -0.3060
     12  C         17.0800  -24.4330   -7.2360 C.3     1  UNL1        0.1260
     13  C         16.5010  -24.0100   -5.9100 C.2     1  UNL1       -0.0110
     14  C         15.1710  -23.7960   -5.5950 C.2     1  UNL1        0.0150
     15  C         14.9880  -23.4020   -4.2370 C.2     1  UNL1        0.0080
     16  C         16.1820  -23.3210   -3.5600 C.2     1  UNL1        0.0500
     17  S         17.5180  -23.6880   -4.5620 S.3     1  UNL1       -0.1060
     18  C         19.0140  -22.5410   -8.8190 C.3     1  UNL1        0.0930
     19  C         19.8420  -23.7080   -9.4030 C.3     1  UNL1        0.0260
     20  C         21.1610  -23.9330   -8.6570 C.3     1  UNL1        0.0020
     21  C         21.7730  -22.6160   -8.1970 C.3     1  UNL1        0.0000
     22  C         20.8640  -21.8610   -7.2210 C.3     1  UNL1        0.0020
     23  C         19.3800  -22.2200   -7.3600 C.3     1  UNL1        0.0260
     24  C         22.1610  -21.8030  -12.6300 C.2     1  UNL1        0.0360
     25  C         22.7420  -21.1150  -13.6970 C.2     1  UNL1        0.0460
     26  C         24.1340  -20.9690  -13.7730 C.2     1  UNL1        0.0350
     27  C         24.9510  -21.5390  -12.7930 C.2     1  UNL1        0.0340
     28  C         24.3780  -22.2460  -11.7310 C.2     1  UNL1        0.0350
     29  C         22.9850  -22.3660  -11.6460 C.2     1  UNL1        0.0460
     30  C         24.7120  -20.2380  -14.9340 C.2     1  UNL1        0.2490
     31  N         24.2450  -20.5610  -16.1780 N.am    1  UNL1       -0.3660
     32  H         23.7370  -21.4190  -16.3610 H       1  UNL1        0.1590
     33  H         24.7370  -20.1390  -16.9560 H       1  UNL1        0.1590
     34  O         25.5890  -19.3970  -14.7970 O.2     1  UNL1       -0.2680
     35  C         25.2840  -22.8330  -10.7170 C.2     1  UNL1        0.2490
     36  N         24.7310  -23.6380   -9.7640 N.am    1  UNL1       -0.3660
     37  H         23.8000  -24.0220   -9.8470 H       1  UNL1        0.1590
     38  H         25.3830  -24.1430   -9.1780 H       1  UNL1        0.1590
     39  O         26.4930  -22.6370  -10.7520 O.2     1  UNL1       -0.2680
@<TRIPOS>BOND
     1    33    31    1
     2    32    31    1
     3    31    30   am
     4    30    34    2
     5    30    26    1
     6    26    25    1
     7    26    27    2
     8    25    24    2
     9    27    28    1
    10     4     1    1
    11    24     1    1
    12    24    29    1
    13     1     2   am
    14     5     2    1
    15     5     6    1
    16     2     3    2
    17    28    29    2
    18    28    35    1
    19     6     7    1
    20    39    35    2
    21    35    36   am
    22     7     8   ar
    23     7    11   ar
    24     8     9   ar
    25    37    36    1
    26    36    38    1
    27    19    18    1
    28    19    20    1
    29    11    18    1
    30    11    10   ar
    31     9    10   ar
    32    18    23    1
    33    20    21    1
    34    10    12    1
    35    21    22    1
    36    23    22    1
    37    12    13    1
    38    13    14    2
    39    13    17    1
    40    14    15    1
    41    17    16    1
    42    15    16    2
