@<TRIPOS>MOLECULE
20665_out_ligand_01.pdbqt
 35 38 0 0 0
SMALL
GASTEIGER

@<TRIPOS>ATOM
      1  C         20.1140  -23.2800   -7.8210 C.2     1  UNL1        0.0320
      2  C         20.8550  -22.1380   -7.5030 C.2     1  UNL1        0.0190
      3  C         22.1230  -21.9480   -8.0640 C.2     1  UNL1        0.0300
      4  C         22.6720  -22.8960   -8.9380 C.2     1  UNL1        0.0340
      5  C         21.9350  -24.0430   -9.2380 C.2     1  UNL1        0.0300
      6  C         20.6660  -24.2370   -8.6790 C.2     1  UNL1        0.0190
      7  N         23.9510  -22.6220   -9.4590 N.am    1  UNL1       -0.3270
      8  C         24.2750  -22.1040  -10.7000 C.2     1  UNL1        0.2310
      9  O         23.4800  -21.7690  -11.5740 O.2     1  UNL1       -0.2720
     10  H         24.7470  -22.8910   -8.8800 H       1  UNL1        0.1690
     11  C         25.7710  -21.9160  -10.9070 C.3     1  UNL1        0.1840
     12  S         26.3320  -22.7140  -12.4470 S.3     1  UNL1       -0.1000
     13  C         26.1790  -21.3710  -13.5900 C.2     1  UNL1        0.1080
     14  N         26.5450  -20.1400  -13.1600 N.2     1  UNL1       -0.2340
     15  C         26.4240  -19.1160  -14.0170 C.2     1  UNL1        0.2350
     16  N         25.9970  -19.1660  -15.2740 N.2     1  UNL1       -0.2340
     17  C         25.6650  -20.4060  -15.6670 C.ar    1  UNL1        0.1130
     18  S         25.1060  -20.6600  -17.2490 S.2     1  UNL1       -0.0740
     19  C         25.7200  -21.5680  -14.9080 C.ar    1  UNL1        0.0420
     20  C         24.9170  -22.3350  -16.9890 C.ar    1  UNL1       -0.0120
     21  C         24.4160  -23.1920  -18.1080 C.3     1  UNL1        0.0570
     22  C         25.2730  -22.7130  -15.6990 C.ar    1  UNL1       -0.0330
     23  C         25.2000  -24.1270  -15.2070 C.3     1  UNL1        0.0500
     24  C         18.7610  -23.5330   -7.2460 C.2     1  UNL1        0.2560
     25  N         18.1740  -22.4410   -6.6420 N.am    1  UNL1       -0.3210
     26  H         18.6300  -21.5390   -6.7180 H       1  UNL1        0.1690
     27  O         18.2730  -24.6490   -7.3750 O.2     1  UNL1       -0.2670
     28  C         16.9270  -22.3740   -5.9810 C.2     1  UNL1        0.0680
     29  C         15.7010  -22.3030   -6.6470 C.2     1  UNL1        0.0320
     30  C         14.5090  -22.2420   -5.9230 C.2     1  UNL1        0.0020
     31  C         14.5340  -22.2550   -4.5300 C.2     1  UNL1        0.0030
     32  C         15.7530  -22.3300   -3.8520 C.2     1  UNL1        0.0390
     33  C         16.9520  -22.3880   -4.5690 C.2     1  UNL1        0.0950
     34  O         18.2050  -22.4660   -4.0010 O.2     1  UNL1       -0.3540
     35  C         18.5960  -21.3920   -3.1540 C.3     1  UNL1        0.2100
@<TRIPOS>BOND
     1    21    20    1
     2    18    20   ar
     3    18    17   ar
     4    20    22   ar
     5    22    23    1
     6    22    19   ar
     7    17    16    2
     8    17    19   ar
     9    16    15    1
    10    19    13    2
    11    15    14    2
    12    13    14    1
    13    13    12    1
    14    12    11    1
    15     9     8    2
    16    11     8    1
    17     8     7   am
    18     7     4    1
    19     7    10    1
    20     5     4    2
    21     5     6    1
    22     4     3    1
    23     6     1    2
    24     3     2    2
    25     1     2    1
    26     1    24    1
    27    27    24    2
    28    24    25   am
    29    26    25    1
    30    29    28    2
    31    29    30    1
    32    25    28    1
    33    28    33    1
    34    30    31    2
    35    33    34    1
    36    33    32    2
    37    31    32    1
    38    34    35    1
