@<TRIPOS>MOLECULE
20734_out_ligand_01.pdbqt
 35 38 0 0 0
SMALL
GASTEIGER

@<TRIPOS>ATOM
      1  C         22.4190  -22.6710  -10.9840 C.2     1  UNL1        0.0350
      2  C         21.7580  -22.0230  -12.0290 C.2     1  UNL1        0.0290
      3  C         20.4080  -21.6770  -11.9150 C.2     1  UNL1        0.0030
      4  C         19.6970  -21.9940  -10.7580 C.2     1  UNL1        0.0170
      5  C         20.3390  -22.6690   -9.7140 C.2     1  UNL1        0.0340
      6  C         21.7010  -22.9860   -9.8230 C.2     1  UNL1        0.0460
      7  N         23.7780  -23.0420  -11.0210 N.am    1  UNL1       -0.3270
      8  C         24.8800  -22.2680  -10.7080 C.2     1  UNL1        0.2310
      9  O         24.8540  -21.0850  -10.3700 O.2     1  UNL1       -0.2720
     10  H         23.9700  -24.0190  -11.2210 H       1  UNL1        0.1690
     11  C         26.2310  -22.9400  -10.9190 C.3     1  UNL1        0.1850
     12  S         27.1200  -22.4780  -12.4360 S.3     1  UNL1       -0.0810
     13  C         26.2500  -23.4230  -13.5960 C.ar    1  UNL1        0.1960
     14  N         25.9730  -24.6990  -13.4740 N.ar    1  UNL1       -0.1220
     15  N         25.2760  -25.0850  -14.5990 N.ar    1  UNL1       -0.1290
     16  C         25.1440  -24.0300  -15.3780 C.ar    1  UNL1        0.1580
     17  C         24.5200  -23.8360  -16.6410 C.2     1  UNL1        0.0530
     18  N         25.7570  -22.9310  -14.7860 N.ar    1  UNL1       -0.2830
     19  C         24.5590  -22.6220  -17.2230 C.2     1  UNL1        0.0050
     20  C         25.2210  -21.4930  -16.5860 C.2     1  UNL1        0.0180
     21  C         25.7990  -21.6690  -15.3850 C.2     1  UNL1        0.1010
     22  C         19.6250  -23.0470   -8.4610 C.2     1  UNL1        0.2560
     23  O         19.5660  -24.2330   -8.1620 O.2     1  UNL1       -0.2670
     24  N         19.0460  -21.9930   -7.7760 N.am    1  UNL1       -0.3230
     25  H         19.0630  -21.0880   -8.2310 H       1  UNL1        0.1690
     26  C         18.3530  -22.0480   -6.5490 C.2     1  UNL1        0.0350
     27  C         18.8260  -21.4960   -5.3580 C.2     1  UNL1        0.0290
     28  C         18.0730  -21.5870   -4.1830 C.2     1  UNL1        0.0030
     29  C         16.8370  -22.2300   -4.1870 C.2     1  UNL1        0.0160
     30  C         16.3440  -22.7960   -5.3710 C.2     1  UNL1        0.0500
     31  C         17.1080  -22.6900   -6.5470 C.2     1  UNL1        0.0450
     32  C         15.0030  -23.4890   -5.4020 C.3     1  UNL1        0.4170
     33  F         14.7690  -24.2770   -4.3150 F       1  UNL1       -0.1660
     34  F         14.8580  -24.3010   -6.4920 F       1  UNL1       -0.1660
     35  F         13.9660  -22.6050   -5.4580 F       1  UNL1       -0.1660
@<TRIPOS>BOND
     1    19    17    2
     2    19    20    1
     3    17    16    1
     4    20    21    2
     5    21    18    1
     6    16    18   ar
     7    16    15   ar
     8    18    13   ar
     9    15    14   ar
    10    13    14   ar
    11    13    12    1
    12    12    11    1
    13     2     3    1
    14     2     1    2
    15     3     4    2
    16    10     7    1
    17     7     1    1
    18     7     8   am
    19     1     6    1
    20    11     8    1
    21     4     5    1
    22     8     9    2
    23     6     5    2
    24     5    22    1
    25    22    23    2
    26    22    24   am
    27    25    24    1
    28    24    26    1
    29    26    31    2
    30    26    27    1
    31    31    30    1
    32    34    32    1
    33    35    32    1
    34    32    30    1
    35    32    33    1
    36    30    29    2
    37    27    28    2
    38    29    28    1
