@<TRIPOS>MOLECULE
20767_out_ligand_01.pdbqt
 29 32 0 0 0
SMALL
GASTEIGER

@<TRIPOS>ATOM
      1  C         20.8080  -22.4740   -7.5760 C.2     1  UNL1        0.0320
      2  C         20.8710  -23.6640   -8.3070 C.2     1  UNL1        0.0170
      3  C         21.9930  -23.9470   -9.0910 C.2     1  UNL1        0.0090
      4  C         23.0710  -23.0520   -9.1380 C.2     1  UNL1       -0.0480
      5  C         23.0060  -21.8660   -8.3910 C.2     1  UNL1        0.0090
      6  C         21.8850  -21.5800   -7.6080 C.2     1  UNL1        0.0170
      7  C         24.2790  -23.3530   -9.9950 C.3     1  UNL1        0.1210
      8  S         24.6190  -21.9920  -11.1480 S.3     1  UNL1       -0.0780
      9  C         23.0430  -21.7790  -11.8400 C.ar    1  UNL1        0.2310
     10  N         22.7960  -21.5610  -13.1160 N.ar    1  UNL1       -0.1140
     11  N         21.4280  -21.4480  -13.2430 N.ar    1  UNL1       -0.1200
     12  C         20.9280  -21.6050  -12.0340 C.ar    1  UNL1        0.2040
     13  O         21.8970  -21.8190  -11.0900 O.2     1  UNL1       -0.2630
     14  C         19.5500  -21.5820  -11.5840 C.2     1  UNL1        0.0360
     15  C         18.9740  -22.6200  -10.8420 C.2     1  UNL1        0.0190
     16  C         17.6410  -22.5350  -10.4420 C.2     1  UNL1        0.0200
     17  C         16.9180  -21.4080  -10.7950 C.2     1  UNL1        0.1160
     18  N         17.4340  -20.3860  -11.5080 N.2     1  UNL1       -0.2720
     19  C         18.7330  -20.4970  -11.8850 C.2     1  UNL1        0.1320
     20  C         19.5920  -22.2080   -6.7540 C.2     1  UNL1        0.2560
     21  O         19.5950  -21.2290   -6.0190 O.2     1  UNL1       -0.2670
     22  N         18.5850  -23.1450   -6.8930 N.am    1  UNL1       -0.3230
     23  H         18.7980  -23.9700   -7.4390 H       1  UNL1        0.1690
     24  C         17.3150  -23.1340   -6.2790 C.2     1  UNL1        0.0350
     25  C         17.0290  -23.7630   -5.0660 C.2     1  UNL1        0.0290
     26  C         15.7420  -23.6990   -4.5210 C.2     1  UNL1        0.0020
     27  C         14.7330  -23.0040   -5.1810 C.2     1  UNL1        0.0000
     28  C         15.0070  -22.3700   -6.3890 C.2     1  UNL1        0.0020
     29  C         16.2930  -22.4340   -6.9350 C.2     1  UNL1        0.0290
@<TRIPOS>BOND
     1    11    10   ar
     2    11    12   ar
     3    10     9   ar
     4    12    14    1
     5    12    13   ar
     6    19    14    2
     7    19    18    1
     8     9     8    1
     9     9    13   ar
    10    14    15    1
    11    18    17    2
    12     8     7    1
    13    15    16    2
    14    17    16    1
    15     7     4    1
    16     4     3    2
    17     4     5    1
    18     3     2    1
    19     5     6    2
    20     2     1    2
    21     6     1    1
    22     1    20    1
    23    23    22    1
    24    29    28    1
    25    29    24    2
    26    22    20   am
    27    22    24    1
    28    20    21    2
    29    28    27    2
    30    24    25    1
    31    27    26    1
    32    25    26    2
