@<TRIPOS>MOLECULE
20779_out_ligand_01.pdbqt
 32 36 0 0 0
SMALL
GASTEIGER

@<TRIPOS>ATOM
      1  C         20.3190  -21.5750  -11.7230 C.2     1  UNL1        0.0320
      2  C         19.5810  -20.3970  -11.5430 C.2     1  UNL1        0.0170
      3  C         18.2800  -20.4590  -11.0370 C.2     1  UNL1        0.0090
      4  C         17.6970  -21.6950  -10.7130 C.2     1  UNL1       -0.0480
      5  C         18.4340  -22.8720  -10.9220 C.2     1  UNL1        0.0090
      6  C         19.7330  -22.8120  -11.4300 C.2     1  UNL1        0.0170
      7  C         16.2990  -21.7630  -10.1480 C.3     1  UNL1        0.1210
      8  S         15.9200  -23.2980   -9.2640 S.3     1  UNL1       -0.0850
      9  C         16.2380  -22.8570   -7.6150 C.ar    1  UNL1        0.1960
     10  N         15.2830  -22.5020   -6.7850 N.ar    1  UNL1       -0.1220
     11  N         15.8380  -22.3680   -5.5430 N.ar    1  UNL1       -0.1330
     12  C         17.1240  -22.6400   -5.6350 C.ar    1  UNL1        0.1390
     13  N         17.4570  -22.9250   -6.9540 N.ar    1  UNL1       -0.2750
     14  C         18.0850  -22.4940   -4.4110 C.3     1  UNL1        0.0580
     15  C         17.5540  -21.8520   -3.1530 C.3     1  UNL1        0.0130
     16  C         18.5550  -21.1200   -4.0000 C.3     1  UNL1        0.0130
     17  C         18.7560  -23.1910   -7.4700 C.2     1  UNL1        0.0430
     18  C         19.7190  -22.1740   -7.5250 C.2     1  UNL1        0.0300
     19  C         20.9900  -22.4370   -8.0420 C.2     1  UNL1        0.0020
     20  C         21.3090  -23.7140   -8.5000 C.2     1  UNL1        0.0000
     21  C         20.3590  -24.7330   -8.4390 C.2     1  UNL1        0.0020
     22  C         19.0860  -24.4760   -7.9250 C.2     1  UNL1        0.0300
     23  C         21.7200  -21.5560  -12.2320 C.2     1  UNL1        0.2560
     24  O         21.9380  -21.0320  -13.3190 O.2     1  UNL1       -0.2670
     25  N         22.6370  -22.2030  -11.4220 N.am    1  UNL1       -0.3230
     26  H         22.2700  -22.7030  -10.6230 H       1  UNL1        0.1690
     27  C         24.0230  -22.3410  -11.6390 C.2     1  UNL1        0.0350
     28  C         24.5910  -23.3080  -12.4710 C.2     1  UNL1        0.0290
     29  C         25.9780  -23.3780  -12.6320 C.2     1  UNL1        0.0020
     30  C         26.8080  -22.4790  -11.9650 C.2     1  UNL1        0.0000
     31  C         26.2530  -21.5070  -11.1360 C.2     1  UNL1        0.0020
     32  C         24.8670  -21.4390  -10.9760 C.2     1  UNL1        0.0290
@<TRIPOS>BOND
     1    24    23    2
     2    29    28    1
     3    29    30    2
     4    28    27    2
     5    23     1    1
     6    23    25   am
     7    30    31    1
     8     1     2    2
     9     1     6    1
    10    27    25    1
    11    27    32    1
    12     2     3    1
    13     6     5    2
    14    25    26    1
    15    31    32    2
    16     3     4    2
    17     5     4    1
    18     4     7    1
    19     7     8    1
    20     8     9    1
    21    20    21    2
    22    20    19    1
    23    21    22    1
    24    19    18    2
    25    22    17    2
    26     9    13   ar
    27     9    10   ar
    28    18    17    1
    29    17    13    1
    30    13    12   ar
    31    10    11   ar
    32    12    11   ar
    33    12    14    1
    34    14    16    1
    35    14    15    1
    36    16    15    1
