@<TRIPOS>MOLECULE
20772_out_ligand_01.pdbqt
 30 33 0 0 0
SMALL
GASTEIGER

@<TRIPOS>ATOM
      1  C         20.4140  -22.2910   -7.2940 C.2     1  UNL1        0.0320
      2  C         21.5340  -21.4540   -7.3520 C.2     1  UNL1        0.0170
      3  C         22.6440  -21.8230   -8.1150 C.2     1  UNL1        0.0090
      4  C         22.6430  -23.0240   -8.8400 C.2     1  UNL1       -0.0480
      5  C         21.5100  -23.8500   -8.7880 C.2     1  UNL1        0.0090
      6  C         20.3970  -23.4840   -8.0250 C.2     1  UNL1        0.0170
      7  C         23.8500  -23.4270   -9.6550 C.3     1  UNL1        0.1210
      8  S         24.4310  -22.0550  -10.6910 S.3     1  UNL1       -0.0780
      9  C         22.9870  -21.7260  -11.5930 C.ar    1  UNL1        0.2310
     10  N         22.7750  -22.0850  -12.8440 N.ar    1  UNL1       -0.1140
     11  N         21.5180  -21.6280  -13.1830 N.ar    1  UNL1       -0.1260
     12  C         21.0460  -21.0250  -12.1120 C.ar    1  UNL1        0.1740
     13  O         21.9280  -21.0350  -11.0650 O.2     1  UNL1       -0.2680
     14  C         19.7460  -20.3410  -11.9060 C.3     1  UNL1        0.1270
     15  C         18.7110  -21.2330  -11.2610 C.2     1  UNL1       -0.0510
     16  C         19.0250  -22.5580  -10.9260 C.2     1  UNL1        0.0070
     17  C         18.0730  -23.3790  -10.3180 C.2     1  UNL1        0.0010
     18  C         16.8030  -22.8800  -10.0330 C.2     1  UNL1        0.0000
     19  C         16.4830  -21.5620  -10.3520 C.2     1  UNL1        0.0010
     20  C         17.4330  -20.7400  -10.9600 C.2     1  UNL1        0.0070
     21  C         19.2500  -21.8630   -6.4660 C.2     1  UNL1        0.2560
     22  O         19.3560  -20.8420   -5.7990 O.2     1  UNL1       -0.2670
     23  N         18.1620  -22.7160   -6.5220 N.am    1  UNL1       -0.3230
     24  H         18.2860  -23.5860   -7.0210 H       1  UNL1        0.1690
     25  C         16.9090  -22.5480   -5.8940 C.2     1  UNL1        0.0350
     26  C         15.7140  -22.3290   -6.5810 C.2     1  UNL1        0.0290
     27  C         14.5110  -22.1830   -5.8820 C.2     1  UNL1        0.0020
     28  C         14.4930  -22.2570   -4.4910 C.2     1  UNL1        0.0000
     29  C         15.6780  -22.4750   -3.7960 C.2     1  UNL1        0.0020
     30  C         16.8800  -22.6190   -4.4950 C.2     1  UNL1        0.0290
@<TRIPOS>BOND
     1    11    10   ar
     2    11    12   ar
     3    10     9   ar
     4    12    14    1
     5    12    13   ar
     6    14    15    1
     7     9    13   ar
     8     9     8    1
     9    15    20    2
    10    15    16    1
    11    20    19    1
    12    16    17    2
    13     8     7    1
    14    19    18    2
    15    17    18    1
    16     7     4    1
    17     4     5    2
    18     4     3    1
    19     5     6    1
    20     3     2    2
    21     6     1    2
    22     2     1    1
    23     1    21    1
    24    24    23    1
    25    26    25    2
    26    26    27    1
    27    23    21   am
    28    23    25    1
    29    21    22    2
    30    25    30    1
    31    27    28    2
    32    30    29    2
    33    28    29    1
