@<TRIPOS>MOLECULE
20809_out_ligand_01.pdbqt
 34 38 0 0 0
SMALL
GASTEIGER

@<TRIPOS>ATOM
      1  N         19.5780  -21.9230  -10.3010 N.ar    1  UNL1       -0.3060
      2  C         18.4670  -21.3450  -10.8480 C.ar    1  UNL1        0.1920
      3  N         18.7490  -20.8540  -12.0280 N.ar    1  UNL1       -0.1220
      4  N         20.0740  -21.0990  -12.2740 N.ar    1  UNL1       -0.1310
      5  C         20.5750  -21.7500  -11.2390 C.ar    1  UNL1        0.1630
      6  S         16.9390  -21.2320  -10.0500 S.3     1  UNL1       -0.0810
      7  C         16.3000  -22.9090  -10.3040 C.3     1  UNL1        0.1850
      8  C         16.0480  -23.6030   -8.9750 C.2     1  UNL1        0.2310
      9  O         15.5100  -24.7090   -8.9470 O.2     1  UNL1       -0.2720
     10  N         16.4610  -22.8450   -7.8890 N.am    1  UNL1       -0.3260
     11  H         17.0650  -22.0620   -8.1130 H       1  UNL1        0.1690
     12  C         16.1860  -23.0450   -6.5090 C.2     1  UNL1        0.0450
     13  C         15.0720  -23.7770   -6.0940 C.2     1  UNL1        0.0300
     14  C         14.7690  -23.9120   -4.7390 C.2     1  UNL1        0.0030
     15  C         15.5670  -23.3060   -3.7790 C.2     1  UNL1        0.0120
     16  C         16.6960  -22.5700   -4.1520 C.2     1  UNL1       -0.0240
     17  C         17.4800  -21.9540   -3.1540 C.2     1  UNL1        0.0120
     18  C         17.0400  -22.4380   -5.5250 C.2     1  UNL1        0.0010
     19  C         18.6180  -21.2210   -3.4780 C.2     1  UNL1        0.0010
     20  C         18.9880  -21.0940   -4.8080 C.2     1  UNL1        0.0010
     21  C         18.2180  -21.6900   -5.8110 C.2     1  UNL1        0.0140
     22  C         19.6970  -22.5500   -9.0010 C.3     1  UNL1        0.1590
     23  C         19.7070  -24.0440   -9.1200 C.2     1  UNL1       -0.0170
     24  C         20.7290  -24.8260   -8.7440 C.2     1  UNL1        0.0080
     25  C         21.9760  -22.2350  -11.0900 C.3     1  UNL1        0.2240
     26  C         22.7850  -21.4240  -10.0860 C.3     1  UNL1        0.2160
     27  O         24.0760  -22.0360   -9.9070 O.2     1  UNL1       -0.3450
     28  C         24.6450  -22.3460  -11.1200 C.2     1  UNL1        0.1020
     29  C         26.0030  -22.6630  -11.1090 C.2     1  UNL1        0.0390
     30  C         23.9270  -22.3690  -12.3260 C.2     1  UNL1        0.1030
     31  C         26.6510  -22.9610  -12.3130 C.2     1  UNL1        0.0030
     32  C         25.9440  -22.9330  -13.5190 C.2     1  UNL1        0.0030
     33  C         24.5800  -22.6350  -13.5280 C.2     1  UNL1        0.0400
     34  O         22.5780  -22.1430  -12.3890 O.2     1  UNL1       -0.3330
@<TRIPOS>BOND
     1    33    32    2
     2    33    30    1
     3    32    31    1
     4    34    30    1
     5    34    25    1
     6    30    28    2
     7    31    29    2
     8     4     3   ar
     9     4     5   ar
    10     3     2   ar
    11     5    25    1
    12     5     1   ar
    13    28    29    1
    14    28    27    1
    15    25    26    1
    16     2     1   ar
    17     2     6    1
    18     7     6    1
    19     7     8    1
    20     1    22    1
    21    26    27    1
    22    23    22    1
    23    23    24    2
    24     8     9    2
    25     8    10   am
    26    11    10    1
    27    10    12    1
    28    12    13    2
    29    12    18    1
    30    13    14    1
    31    21    18    1
    32    21    20    2
    33    18    16    2
    34    20    19    1
    35    14    15    2
    36    16    15    1
    37    16    17    1
    38    19    17    2
