@<TRIPOS>MOLECULE
20811_out_ligand_01.pdbqt
 28 30 0 0 0
SMALL
GASTEIGER

@<TRIPOS>ATOM
      1  N         19.6770  -22.8600   -8.9900 N.am    1  UNL1       -0.3090
      2  C         18.5020  -22.7410   -9.6950 C.2     1  UNL1        0.3230
      3  O         18.4170  -22.3000  -10.8390 O.2     1  UNL1       -0.2470
      4  N         17.3710  -23.1680   -9.0180 N.am    1  UNL1       -0.3250
      5  C         16.0970  -23.2120   -9.7230 C.3     1  UNL1        0.1280
      6  C         15.3400  -24.3580   -9.0740 C.3     1  UNL1        0.0220
      7  C         15.7980  -24.2800   -7.6260 C.3     1  UNL1        0.0320
      8  C         17.2790  -23.8900   -7.7440 C.3     1  UNL1        0.1220
      9  H         19.5820  -23.0300   -8.0030 H       1  UNL1        0.1700
     10  C         20.9860  -22.5780   -9.4300 C.2     1  UNL1        0.0360
     11  C         22.0040  -22.0940   -8.6030 C.2     1  UNL1        0.0310
     12  C         23.2780  -21.8330   -9.1190 C.2     1  UNL1        0.0270
     13  C         23.5300  -22.0440  -10.4760 C.2     1  UNL1        0.0740
     14  C         22.5290  -22.5320  -11.3150 C.2     1  UNL1        0.0270
     15  C         21.2600  -22.7930  -10.7900 C.2     1  UNL1        0.0310
     16  S         25.1460  -21.7050  -11.1200 S.O2    1  UNL1        0.2390
     17  O         25.5670  -20.4070  -10.6440 O.2     1  UNL1       -0.2060
     18  O         25.1690  -22.0680  -12.5160 O.2     1  UNL1       -0.2060
     19  N         26.0860  -22.8180  -10.2740 N.3     1  UNL1       -0.2250
     20  H         26.6220  -22.3990   -9.5150 H       1  UNL1        0.1360
     21  H         26.6830  -23.3160  -10.9370 H       1  UNL1        0.1360
     22  C         17.7200  -23.1040   -6.5250 C.2     1  UNL1       -0.0350
     23  C         17.3480  -23.5460   -5.2440 C.2     1  UNL1        0.0120
     24  C         17.7420  -22.8400   -4.1070 C.2     1  UNL1        0.0430
     25  C         18.5030  -21.6860   -4.2450 C.2     1  UNL1        0.1160
     26  F         18.8810  -21.0090   -3.1530 F       1  UNL1       -0.2060
     27  C         18.8750  -21.2220   -5.5000 C.2     1  UNL1        0.0430
     28  C         18.4810  -21.9260   -6.6390 C.2     1  UNL1        0.0120
@<TRIPOS>BOND
     1    18    16    2
     2    14    15    1
     3    14    13    2
     4    16    17    2
     5    16    13    1
     6    16    19    1
     7    21    19    1
     8     3     2    2
     9    15    10    2
    10    13    12    1
    11    19    20    1
    12     5     6    1
    13     5     4    1
    14     2     4   am
    15     2     1   am
    16    10     1    1
    17    10    11    1
    18    12    11    2
    19     6     7    1
    20     4     8    1
    21     1     9    1
    22     8     7    1
    23     8    22    1
    24    28    22    2
    25    28    27    1
    26    22    23    1
    27    27    25    2
    28    23    24    2
    29    25    24    1
    30    25    26    1
