@<TRIPOS>MOLECULE
20848_out_ligand_01.pdbqt
 34 38 0 0 0
SMALL
GASTEIGER

@<TRIPOS>ATOM
      1  C         22.7940  -22.6810  -10.9920 C.ar    1  UNL1        0.1920
      2  N         23.6760  -23.2660  -10.2170 N.ar    1  UNL1       -0.1230
      3  N         23.0050  -23.8340   -9.1750 N.ar    1  UNL1       -0.1340
      4  C         21.7150  -23.5920   -9.3230 C.ar    1  UNL1        0.1350
      5  N         21.5310  -22.8370  -10.4700 N.ar    1  UNL1       -0.3060
      6  S         23.1640  -21.8520  -12.4660 S.3     1  UNL1       -0.0810
      7  C         24.9710  -21.7180  -12.3600 C.3     1  UNL1        0.1850
      8  C         25.6320  -22.1580  -13.6510 C.2     1  UNL1        0.2270
      9  O         26.6680  -21.6350  -14.0600 O.2     1  UNL1       -0.2730
     10  N         24.9770  -23.1680  -14.3220 N.am    1  UNL1       -0.3580
     11  H         24.1240  -23.5490  -13.9110 H       1  UNL1        0.1620
     12  C         25.3270  -23.5410  -15.6790 C.3     1  UNL1        0.1540
     13  C         24.3850  -22.8980  -16.7180 C.3     1  UNL1        0.1390
     14  C         24.9910  -22.8870  -18.1120 C.3     1  UNL1        0.0350
     15  C         25.7810  -21.6010  -18.1130 C.3     1  UNL1        0.0290
     16  C         24.9290  -20.6870  -17.2590 C.3     1  UNL1        0.1680
     17  O         24.1400  -21.5150  -16.3960 O.3     1  UNL1       -0.3840
     18  C         20.2850  -22.3440  -11.0480 C.3     1  UNL1        0.0930
     19  C         19.0590  -23.1790  -10.6310 C.3     1  UNL1        0.0260
     20  C         17.7510  -22.3870  -10.6910 C.3     1  UNL1        0.0020
     21  C         17.7490  -21.3860  -11.8400 C.3     1  UNL1        0.0000
     22  C         18.8730  -20.3520  -11.7150 C.3     1  UNL1        0.0020
     23  C         20.0570  -20.8390  -10.8720 C.3     1  UNL1        0.0260
     24  C         20.6530  -24.1050   -8.3980 C.3     1  UNL1        0.1200
     25  C         20.0220  -23.0880   -7.4550 C.2     1  UNL1       -0.0400
     26  C         20.7450  -21.9510   -7.0440 C.2     1  UNL1        0.0080
     27  C         20.1710  -21.0000   -6.2060 C.2     1  UNL1        0.0010
     28  C         18.8700  -21.1730   -5.7460 C.2     1  UNL1        0.0120
     29  C         18.1280  -22.3080   -6.1010 C.2     1  UNL1       -0.0250
     30  C         16.8210  -22.4650   -5.6110 C.2     1  UNL1        0.0120
     31  C         18.6980  -23.2910   -6.9510 C.2     1  UNL1       -0.0190
     32  C         16.0600  -23.5850   -5.9370 C.2     1  UNL1        0.0010
     33  C         16.6030  -24.5690   -6.7490 C.2     1  UNL1        0.0010
     34  C         17.9020  -24.4270   -7.2440 C.2     1  UNL1        0.0130
@<TRIPOS>BOND
     1    15    14    1
     2    15    16    1
     3    14    13    1
     4    16    17    1
     5    13    17    1
     6    13    12    1
     7    12    10    1
     8    10    11    1
     9    10     8   am
    10     9     8    2
    11     8     7    1
    12     6     7    1
    13     6     1    1
    14    21    22    1
    15    21    20    1
    16    22    23    1
    17    18    23    1
    18    18    19    1
    19    18     5    1
    20     1     5   ar
    21     1     2   ar
    22    20    19    1
    23     5     4   ar
    24     2     3   ar
    25     4     3   ar
    26     4    24    1
    27    24    25    1
    28    25    26    2
    29    25    31    1
    30    34    31    1
    31    34    33    2
    32    26    27    1
    33    31    29    2
    34    33    32    1
    35    27    28    2
    36    29    28    1
    37    29    30    1
    38    32    30    2
