@<TRIPOS>MOLECULE
20844_out_ligand_01.pdbqt
 35 39 0 0 0
SMALL
GASTEIGER

@<TRIPOS>ATOM
      1  C         22.2460  -22.8870  -10.6940 C.ar    1  UNL1        0.1920
      2  N         22.9760  -23.3410   -9.7060 N.ar    1  UNL1       -0.1230
      3  N         22.1410  -23.8690   -8.7760 N.ar    1  UNL1       -0.1340
      4  C         20.8970  -23.7410   -9.2030 C.ar    1  UNL1        0.1350
      5  N         20.9060  -23.1360  -10.4490 N.ar    1  UNL1       -0.3060
      6  S         22.8680  -22.0790  -12.0910 S.3     1  UNL1       -0.0760
      7  C         24.6640  -22.4100  -12.0570 C.3     1  UNL1        0.1430
      8  C         25.1460  -23.3970  -13.1160 C.3     1  UNL1        0.0310
      9  C         25.4800  -21.1170  -11.9800 C.2     1  UNL1        0.2310
     10  O         25.6720  -20.5460  -10.9050 O.2     1  UNL1       -0.2720
     11  N         25.9990  -20.6470  -13.1650 N.am    1  UNL1       -0.3580
     12  H         25.5240  -20.9530  -14.0190 H       1  UNL1        0.1620
     13  C         26.6760  -19.3650  -13.2420 C.3     1  UNL1        0.1540
     14  C         27.1160  -18.9660  -14.6520 C.3     1  UNL1        0.1390
     15  C         26.3320  -19.6510  -15.7620 C.3     1  UNL1        0.0350
     16  C         26.5050  -18.6760  -16.8990 C.3     1  UNL1        0.0290
     17  C         26.4340  -17.3420  -16.1880 C.3     1  UNL1        0.1680
     18  O         26.9040  -17.5510  -14.8480 O.3     1  UNL1       -0.3840
     19  C         19.8040  -22.7460  -11.3330 C.3     1  UNL1        0.0930
     20  C         18.3670  -23.0570  -10.8640 C.3     1  UNL1        0.0260
     21  C         17.5080  -21.8740  -10.4240 C.3     1  UNL1        0.0020
     22  C         17.7030  -20.6380  -11.2880 C.3     1  UNL1        0.0000
     23  C         19.1700  -20.2430  -11.3550 C.3     1  UNL1        0.0020
     24  C         20.0120  -21.3560  -11.9630 C.3     1  UNL1        0.0260
     25  C         19.7190  -24.1570   -8.3880 C.3     1  UNL1        0.1200
     26  C         19.2150  -23.1660   -7.3440 C.2     1  UNL1       -0.0400
     27  C         20.0240  -22.0980   -6.9110 C.2     1  UNL1        0.0080
     28  C         19.5750  -21.2010   -5.9440 C.2     1  UNL1        0.0010
     29  C         18.3030  -21.3450   -5.4000 C.2     1  UNL1        0.0120
     30  C         17.4530  -22.3730   -5.8270 C.2     1  UNL1       -0.0250
     31  C         16.1650  -22.4870   -5.2760 C.2     1  UNL1        0.0120
     32  C         17.8920  -23.2910   -6.8170 C.2     1  UNL1       -0.0190
     33  C         15.2910  -23.4880   -5.6930 C.2     1  UNL1        0.0010
     34  C         15.6920  -24.3860   -6.6720 C.2     1  UNL1        0.0010
     35  C         16.9710  -24.2880   -7.2250 C.2     1  UNL1        0.0130
@<TRIPOS>BOND
     1    16    17    1
     2    16    15    1
     3    17    18    1
     4    15    14    1
     5    18    14    1
     6    14    13    1
     7    12    11    1
     8    13    11    1
     9    11     9   am
    10     8     7    1
    11     6     7    1
    12     6     1    1
    13     7     9    1
    14     9    10    2
    15    24    23    1
    16    24    19    1
    17    23    22    1
    18    19    20    1
    19    19     5    1
    20    22    21    1
    21    20    21    1
    22     1     5   ar
    23     1     2   ar
    24     5     4   ar
    25     2     3   ar
    26     4     3   ar
    27     4    25    1
    28    25    26    1
    29    26    27    2
    30    26    32    1
    31    35    32    1
    32    35    34    2
    33    27    28    1
    34    32    30    2
    35    34    33    1
    36    28    29    2
    37    30    29    1
    38    30    31    1
    39    33    31    2
