@<TRIPOS>MOLECULE
20866_out_ligand_01.pdbqt
 34 37 0 0 0
SMALL
GASTEIGER

@<TRIPOS>ATOM
      1  C         22.3540  -22.1420  -10.2820 C.2     1  UNL1        0.0350
      2  C         22.2020  -22.3570  -11.6600 C.2     1  UNL1        0.0310
      3  C         23.2710  -22.1570  -12.5380 C.2     1  UNL1        0.0270
      4  C         24.5040  -21.7440  -12.0340 C.2     1  UNL1        0.0750
      5  C         24.6670  -21.5080  -10.6690 C.2     1  UNL1        0.0270
      6  C         23.5930  -21.7130   -9.7950 C.2     1  UNL1        0.0310
      7  N         21.2280  -22.3720   -9.4720 N.am    1  UNL1       -0.3210
      8  C         20.8880  -23.5150   -8.7680 C.2     1  UNL1        0.2800
      9  O         21.5400  -24.5540   -8.7450 O.2     1  UNL1       -0.2650
     10  H         20.5620  -21.6130   -9.3810 H       1  UNL1        0.1690
     11  C         19.6390  -23.3640   -8.0370 C.ar    1  UNL1        0.1500
     12  O         18.6080  -24.2260   -8.3180 O.2     1  UNL1       -0.3040
     13  C         17.5650  -23.8860   -7.5170 C.ar    1  UNL1        0.0870
     14  C         16.3270  -24.5200   -7.4990 C.2     1  UNL1        0.0390
     15  C         17.9040  -22.8080   -6.7110 C.ar    1  UNL1        0.0070
     16  C         15.3800  -24.0190   -6.5990 C.2     1  UNL1        0.0100
     17  C         15.6700  -22.9360   -5.7560 C.2     1  UNL1       -0.0580
     18  C         16.9350  -22.3200   -5.8120 C.2     1  UNL1        0.0220
     19  C         19.2500  -22.4680   -7.0490 C.ar    1  UNL1       -0.0090
     20  C         20.0800  -21.3790   -6.4700 C.3     1  UNL1        0.0520
     21  C         14.6180  -22.4100   -4.8090 C.3     1  UNL1        0.0340
     22  C         13.6310  -21.4930   -5.5150 C.3     1  UNL1        0.0100
     23  S         25.8530  -21.4650  -13.1560 S.O2    1  UNL1        0.2480
     24  O         26.6410  -20.3890  -12.5840 O.2     1  UNL1       -0.2050
     25  O         26.4820  -22.7280  -13.4800 O.2     1  UNL1       -0.2050
     26  N         25.1260  -20.8250  -14.5060 N.pl3   1  UNL1       -0.1480
     27  H         25.2740  -19.8290  -14.6120 H       1  UNL1        0.1490
     28  C         25.2660  -21.5270  -15.6950 C.cat   1  UNL1        0.2150
     29  N         26.3160  -21.1340  -16.4220 N.2     1  UNL1       -0.2300
     30  C         26.4050  -21.6870  -17.6440 C.2     1  UNL1        0.1220
     31  C         25.4730  -22.5640  -18.1530 C.2     1  UNL1        0.0460
     32  C         24.4000  -22.8520  -17.3320 C.2     1  UNL1        0.0350
     33  C         23.3160  -23.7790  -17.7960 C.3     1  UNL1        0.0700
     34  N         24.2730  -22.3190  -16.1010 N.2     1  UNL1       -0.2230
@<TRIPOS>BOND
     1    31    30    2
     2    31    32    1
     3    33    32    1
     4    30    29    1
     5    32    34    2
     6    29    28    2
     7    34    28    1
     8    28    26    1
     9    27    26    1
    10    26    23    1
    11    25    23    2
    12    23    24    2
    13    23     4    1
    14     3     4    2
    15     3     2    1
    16     4     5    1
    17     2     1    2
    18     5     6    2
    19     1     6    1
    20     1     7    1
    21     7    10    1
    22     7     8   am
    23     8     9    2
    24     8    11    1
    25    12    11   ar
    26    12    13   ar
    27    11    19   ar
    28    13    14    2
    29    13    15   ar
    30    14    16    1
    31    19    15   ar
    32    19    20    1
    33    15    18    2
    34    16    17    2
    35    18    17    1
    36    17    21    1
    37    22    21    1
