@<TRIPOS>MOLECULE
20868_out_ligand_01.pdbqt
 34 37 0 0 0
SMALL
GASTEIGER

@<TRIPOS>ATOM
      1  C         23.8020  -21.7430  -11.8930 C.2     1  UNL1        0.0800
      2  C         22.5050  -21.7960  -12.4070 C.2     1  UNL1        0.0270
      3  C         21.4220  -21.9860  -11.5410 C.2     1  UNL1        0.0310
      4  C         21.6300  -22.1160  -10.1650 C.2     1  UNL1        0.0350
      5  C         22.9380  -22.0480   -9.6630 C.2     1  UNL1        0.0310
      6  C         24.0250  -21.8580  -10.5210 C.2     1  UNL1        0.0270
      7  N         20.5970  -22.3090   -9.2280 N.am    1  UNL1       -0.3210
      8  C         20.2370  -23.4700   -8.5680 C.2     1  UNL1        0.2800
      9  O         20.7870  -24.5600   -8.6950 O.2     1  UNL1       -0.2650
     10  H         20.0320  -21.5000   -8.9930 H       1  UNL1        0.1690
     11  C         19.1050  -23.2720   -7.6740 C.ar    1  UNL1        0.1500
     12  O         17.9960  -24.0630   -7.8360 O.2     1  UNL1       -0.3040
     13  C         17.0900  -23.6910   -6.8950 C.ar    1  UNL1        0.0870
     14  C         15.8270  -24.2570   -6.7250 C.2     1  UNL1        0.0410
     15  C         17.5980  -22.6570   -6.1150 C.ar    1  UNL1        0.0090
     16  C         15.0410  -23.7310   -5.6960 C.2     1  UNL1        0.0450
     17  C         15.5200  -22.6950   -4.8970 C.2     1  UNL1        0.1170
     18  F         14.7400  -22.2150   -3.9190 F       1  UNL1       -0.2060
     19  C         16.7890  -22.1430   -5.0840 C.2     1  UNL1        0.0570
     20  C         18.9060  -22.3860   -6.6210 C.ar    1  UNL1       -0.0090
     21  C         19.8710  -21.3670   -6.1320 C.3     1  UNL1        0.0520
     22  S         25.1660  -21.4740  -12.9990 S.O2    1  UNL1        0.2760
     23  O         25.7500  -22.7490  -13.3590 O.2     1  UNL1       -0.2000
     24  O         25.9890  -20.4480  -12.3880 O.2     1  UNL1       -0.2000
     25  N         24.4680  -20.7670  -14.3280 N.pl3   1  UNL1       -0.1090
     26  H         24.4300  -19.7550  -14.2840 H       1  UNL1        0.1980
     27  C         24.8330  -21.2510  -15.5770 C.cat   1  UNL1        0.7360
     28  N         25.7590  -20.5010  -16.1810 N.2     1  UNL1       -0.0670
     29  C         26.0490  -20.8370  -17.4540 C.2     1  UNL1        0.0510
     30  C         25.4000  -21.8640  -18.1140 C.2     1  UNL1        0.0540
     31  C         27.1110  -20.0420  -18.1530 C.3     1  UNL1        0.0710
     32  C         24.4200  -22.5360  -17.4060 C.2     1  UNL1        0.0510
     33  C         23.6490  -23.6490  -18.0480 C.3     1  UNL1        0.0710
     34  N         24.1100  -22.2210  -16.1340 N.2     1  UNL1       -0.0670
@<TRIPOS>BOND
     1    31    29    1
     2    30    29    2
     3    30    32    1
     4    33    32    1
     5    29    28    1
     6    32    34    2
     7    28    27    2
     8    34    27    1
     9    27    25    1
    10    25    26    1
    11    25    22    1
    12    23    22    2
    13    22    24    2
    14    22     1    1
    15     2     1    2
    16     2     3    1
    17     1     6    1
    18     3     4    2
    19     6     5    2
    20     4     5    1
    21     4     7    1
    22     7    10    1
    23     7     8   am
    24     9     8    2
    25     8    11    1
    26    12    11   ar
    27    12    13   ar
    28    11    20   ar
    29    13    14    2
    30    13    15   ar
    31    14    16    1
    32    20    21    1
    33    20    15   ar
    34    15    19    2
    35    16    17    2
    36    19    17    1
    37    17    18    1
