@<TRIPOS>MOLECULE
20864_out_ligand_01.pdbqt
 27 29 0 0 0
SMALL
GASTEIGER

@<TRIPOS>ATOM
      1  C         20.0910  -23.2420   -9.3160 C.2     1  UNL1        0.2800
      2  O         20.0320  -24.4160   -8.9670 O.2     1  UNL1       -0.2650
      3  N         19.3910  -22.2070   -8.7120 N.am    1  UNL1       -0.3210
      4  H         19.6560  -21.2720   -8.9860 H       1  UNL1        0.1690
      5  C         18.4310  -22.2960   -7.6830 C.2     1  UNL1        0.0350
      6  C         17.1100  -22.5710   -8.0670 C.2     1  UNL1        0.0310
      7  C         16.0950  -22.6840   -7.1120 C.2     1  UNL1        0.0270
      8  C         16.4000  -22.5170   -5.7620 C.2     1  UNL1        0.0740
      9  C         17.7130  -22.2610   -5.3620 C.2     1  UNL1        0.0270
     10  C         18.7230  -22.1480   -6.3240 C.2     1  UNL1        0.0310
     11  S         15.1330  -22.6890   -4.5410 S.O2    1  UNL1        0.2390
     12  O         14.0890  -21.7250   -4.8020 O.2     1  UNL1       -0.2060
     13  O         14.8570  -24.0920   -4.3370 O.2     1  UNL1       -0.2060
     14  N         15.9120  -22.1580   -3.1530 N.3     1  UNL1       -0.2250
     15  H         15.4920  -21.2850   -2.8320 H       1  UNL1        0.1360
     16  H         16.9170  -22.0950   -3.3220 H       1  UNL1        0.1360
     17  C         20.9590  -22.8000  -10.4000 C.ar    1  UNL1        0.1500
     18  C         20.7780  -21.9580  -11.4980 C.ar    1  UNL1       -0.0090
     19  C         19.5360  -21.2600  -11.9210 C.3     1  UNL1        0.0520
     20  C         22.0380  -21.9190  -12.1790 C.ar    1  UNL1        0.0080
     21  C         22.5420  -21.2730  -13.3240 C.2     1  UNL1        0.0380
     22  C         22.8850  -22.7570  -11.4700 C.ar    1  UNL1        0.0870
     23  C         23.8760  -21.5040  -13.6900 C.2     1  UNL1        0.0350
     24  C         24.6990  -22.3540  -12.9490 C.2     1  UNL1        0.0260
     25 CL         24.5110  -20.7180  -15.0860 Cl      1  UNL1       -0.0840
     26  C         24.2140  -23.0060  -11.8110 C.2     1  UNL1        0.0400
     27  O         22.2370  -23.2940  -10.4090 O.2     1  UNL1       -0.3040
@<TRIPOS>BOND
     1    25    23    1
     2    23    21    1
     3    23    24    2
     4    21    20    2
     5    24    26    1
     6    20    18   ar
     7    20    22   ar
     8    19    18    1
     9    26    22    2
    10    18    17   ar
    11    22    27   ar
    12    27    17   ar
    13    17     1    1
    14     1     2    2
    15     1     3   am
    16     4     3    1
    17     3     5    1
    18     6     5    2
    19     6     7    1
    20     5    10    1
    21     7     8    2
    22    10     9    2
    23     8     9    1
    24     8    11    1
    25    12    11    2
    26    11    13    2
    27    11    14    1
    28    16    14    1
    29    14    15    1
