@<TRIPOS>MOLECULE
20872_out_ligand_01.pdbqt
 33 36 0 0 0
SMALL
GASTEIGER

@<TRIPOS>ATOM
      1  C         22.2890  -21.9930  -10.3610 C.2     1  UNL1        0.0350
      2  C         23.5210  -21.6730   -9.7720 C.2     1  UNL1        0.0310
      3  C         24.6440  -21.4070  -10.5590 C.2     1  UNL1        0.0270
      4  C         24.5390  -21.4700  -11.9500 C.2     1  UNL1        0.0800
      5  C         23.3160  -21.7710  -12.5520 C.2     1  UNL1        0.0270
      6  C         22.1970  -22.0380  -11.7550 C.2     1  UNL1        0.0310
      7  N         21.2120  -22.2440   -9.4930 N.am    1  UNL1       -0.3210
      8  C         20.9220  -23.3980   -8.7860 C.2     1  UNL1        0.2800
      9  O         21.5940  -24.4240   -8.7980 O.2     1  UNL1       -0.2650
     10  H         20.5440  -21.4920   -9.3550 H       1  UNL1        0.1690
     11  C         19.7050  -23.2730   -7.9970 C.ar    1  UNL1        0.1500
     12  O         18.6680  -24.1350   -8.2500 O.2     1  UNL1       -0.3040
     13  C         17.6620  -23.8220   -7.3930 C.ar    1  UNL1        0.0870
     14  C         16.4340  -24.4730   -7.3250 C.2     1  UNL1        0.0390
     15  C         18.0300  -22.7590   -6.5810 C.ar    1  UNL1        0.0070
     16  C         15.5270  -24.0010   -6.3690 C.2     1  UNL1        0.0090
     17  C         15.8410  -22.9200   -5.5330 C.2     1  UNL1       -0.0610
     18  C         14.8560  -22.4600   -4.4950 C.3     1  UNL1        0.0480
     19  C         17.1020  -22.3000   -5.6250 C.2     1  UNL1        0.0210
     20  C         19.3570  -22.4010   -6.9720 C.ar    1  UNL1       -0.0090
     21  C         20.2070  -21.3230   -6.4050 C.3     1  UNL1        0.0520
     22  S         25.9510  -21.0960  -12.9590 S.O2    1  UNL1        0.2640
     23  O         27.1170  -21.1130  -12.0960 O.2     1  UNL1       -0.2000
     24  O         25.6570  -19.9410  -13.7740 O.2     1  UNL1       -0.2000
     25  N         26.0850  -22.4780  -13.9050 N.pl3   1  UNL1       -0.2580
     26  H         27.0090  -22.8980  -13.8450 H       1  UNL1        0.1810
     27  C         25.4270  -22.4420  -15.1970 C.ar    1  UNL1        0.1900
     28  O         25.1890  -21.3180  -15.9230 O.2     1  UNL1       -0.1940
     29  N         24.5120  -21.6440  -17.0800 N.ar    1  UNL1       -0.1310
     30  C         24.3460  -22.9700  -17.0400 C.ar    1  UNL1        0.0680
     31  C         23.6540  -23.6630  -18.1530 C.3     1  UNL1        0.0730
     32  C         24.8970  -23.5310  -15.8530 C.ar    1  UNL1        0.0180
     33  C         24.9080  -24.9510  -15.4370 C.3     1  UNL1        0.0550
@<TRIPOS>BOND
     1    31    30    1
     2    29    30   ar
     3    29    28   ar
     4    30    32   ar
     5    28    27   ar
     6    32    33    1
     7    32    27   ar
     8    27    25    1
     9    25    26    1
    10    25    22    1
    11    24    22    2
    12    22    23    2
    13    22     4    1
    14     5     4    2
    15     5     6    1
    16     4     3    1
    17     6     1    2
    18     3     2    2
    19     1     2    1
    20     1     7    1
    21     7    10    1
    22     7     8   am
    23     9     8    2
    24     8    11    1
    25    12    11   ar
    26    12    13   ar
    27    11    20   ar
    28    13    14    2
    29    13    15   ar
    30    14    16    1
    31    20    15   ar
    32    20    21    1
    33    15    19    2
    34    16    17    2
    35    19    17    1
    36    17    18    1
