@<TRIPOS>MOLECULE
20870_out_ligand_01.pdbqt
 33 36 0 0 0
SMALL
GASTEIGER

@<TRIPOS>ATOM
      1  C         23.9320  -21.7850  -11.8650 C.2     1  UNL1        0.0800
      2  C         22.6480  -22.0220  -12.3590 C.2     1  UNL1        0.0270
      3  C         21.5800  -22.1840  -11.4690 C.2     1  UNL1        0.0310
      4  C         21.7880  -22.1050  -10.0890 C.2     1  UNL1        0.0350
      5  C         23.0820  -21.8500   -9.6090 C.2     1  UNL1        0.0310
      6  C         24.1540  -21.6900  -10.4910 C.2     1  UNL1        0.0270
      7  N         20.7660  -22.2450   -9.1270 N.am    1  UNL1       -0.3210
      8  C         20.3460  -23.4050   -8.4920 C.2     1  UNL1        0.2800
      9  O         20.8850  -24.5000   -8.6190 O.2     1  UNL1       -0.2650
     10  H         20.3430  -21.3860   -8.8080 H       1  UNL1        0.1690
     11  C         19.2070  -23.2020   -7.6060 C.ar    1  UNL1        0.1500
     12  O         18.1350  -24.0360   -7.7760 O.2     1  UNL1       -0.3040
     13  C         17.1970  -23.7060   -6.8550 C.ar    1  UNL1        0.0870
     14  C         15.9640  -24.3370   -6.7010 C.2     1  UNL1        0.0410
     15  C         17.6390  -22.6430   -6.0790 C.ar    1  UNL1        0.0090
     16  C         15.1360  -23.8450   -5.6890 C.2     1  UNL1        0.0450
     17  C         15.5470  -22.7780   -4.8940 C.2     1  UNL1        0.1170
     18  F         14.7290  -22.3290   -3.9320 F       1  UNL1       -0.2060
     19  C         16.7890  -22.1590   -5.0680 C.2     1  UNL1        0.0570
     20  C         18.9380  -22.3000   -6.5760 C.ar    1  UNL1       -0.0090
     21  C         19.7870  -21.1790   -6.0950 C.3     1  UNL1        0.0520
     22  S         25.2740  -21.5510  -13.0050 S.O2    1  UNL1        0.2760
     23  O         25.8120  -22.8420  -13.3800 O.2     1  UNL1       -0.2000
     24  O         26.1410  -20.5510  -12.4110 O.2     1  UNL1       -0.2000
     25  N         24.5620  -20.8230  -14.3120 N.pl3   1  UNL1       -0.1090
     26  H         24.4430  -19.8220  -14.2150 H       1  UNL1        0.1980
     27  C         24.9880  -21.2070  -15.5770 C.cat   1  UNL1        0.7360
     28  N         26.2210  -20.8900  -15.9730 N.2     1  UNL1       -0.0740
     29  C         26.6080  -21.4350  -17.1400 C.2     1  UNL1        0.1380
     30  C         25.8230  -22.2970  -17.8730 C.2     1  UNL1        0.0470
     31  C         24.5850  -22.5960  -17.3390 C.2     1  UNL1        0.0510
     32  C         23.6630  -23.5400  -18.0490 C.3     1  UNL1        0.0710
     33  N         24.1580  -22.0710  -16.1710 N.2     1  UNL1       -0.0670
@<TRIPOS>BOND
     1    32    31    1
     2    30    31    1
     3    30    29    2
     4    31    33    2
     5    29    28    1
     6    33    27    1
     7    28    27    2
     8    27    25    1
     9    25    26    1
    10    25    22    1
    11    23    22    2
    12    22    24    2
    13    22     1    1
    14     2     1    2
    15     2     3    1
    16     1     6    1
    17     3     4    2
    18     6     5    2
    19     4     5    1
    20     4     7    1
    21     7    10    1
    22     7     8   am
    23     9     8    2
    24     8    11    1
    25    12    11   ar
    26    12    13   ar
    27    11    20   ar
    28    13    14    2
    29    13    15   ar
    30    14    16    1
    31    20    21    1
    32    20    15   ar
    33    15    19    2
    34    16    17    2
    35    19    17    1
    36    17    18    1
