@<TRIPOS>MOLECULE
20878_out_ligand_01.pdbqt
 35 38 0 0 0
SMALL
GASTEIGER

@<TRIPOS>ATOM
      1  C         22.4930  -22.3210  -11.4770 C.2     1  UNL1        0.0750
      2  C         22.0480  -23.0080  -10.3460 C.2     1  UNL1        0.0270
      3  C         20.6930  -22.9620  -10.0030 C.2     1  UNL1        0.0310
      4  C         19.7780  -22.2370  -10.7810 C.2     1  UNL1        0.0340
      5  C         20.2390  -21.5610  -11.9140 C.2     1  UNL1        0.0310
      6  C         21.5920  -21.6080  -12.2690 C.2     1  UNL1        0.0270
      7  N         18.4320  -22.2530  -10.3640 N.am    1  UNL1       -0.3270
      8  C         17.3820  -21.4960  -10.8560 C.2     1  UNL1        0.2260
      9  O         17.4520  -20.6610  -11.7570 O.2     1  UNL1       -0.2730
     10  H         18.2270  -22.8480   -9.5690 H       1  UNL1        0.1690
     11  C         16.0370  -21.8190  -10.2150 C.3     1  UNL1        0.1440
     12  C         16.1090  -22.9130   -9.2020 C.2     1  UNL1       -0.0140
     13  C         15.6400  -24.2050   -9.3420 C.2     1  UNL1        0.1510
     14  O         15.8920  -24.9380   -8.2280 O.2     1  UNL1       -0.3210
     15  C         16.5170  -24.1150   -7.3430 C.2     1  UNL1        0.0850
     16  C         16.9460  -24.4770   -6.0710 C.2     1  UNL1        0.0390
     17  C         16.6730  -22.8490   -7.8910 C.2     1  UNL1        0.0070
     18  C         17.5710  -23.4770   -5.3170 C.2     1  UNL1        0.0100
     19  C         17.7560  -22.1760   -5.8150 C.2     1  UNL1       -0.0540
     20  C         17.3050  -21.8590   -7.1150 C.2     1  UNL1        0.0220
     21  C         18.4250  -21.0950   -4.9800 C.3     1  UNL1        0.0100
     22  C         19.7970  -20.7170   -5.5420 C.3     1  UNL1        0.0150
     23  C         18.5320  -21.5070   -3.5110 C.3     1  UNL1        0.0150
     24  S         24.1960  -22.4080  -11.9620 S.O2    1  UNL1        0.2470
     25  O         24.4250  -23.6860  -12.5950 O.2     1  UNL1       -0.2050
     26  O         25.0020  -21.9840  -10.8340 O.2     1  UNL1       -0.2050
     27  N         24.3090  -21.1420  -13.0750 N.pl3   1  UNL1       -0.1580
     28  H         24.9600  -20.4410  -12.7250 H       1  UNL1        0.1480
     29  C         24.5250  -21.5850  -14.4410 C.ar    1  UNL1        0.1700
     30  O         23.5270  -21.9490  -15.2900 O.2     1  UNL1       -0.2000
     31  N         24.0600  -22.2850  -16.5180 N.ar    1  UNL1       -0.1310
     32  C         25.3830  -22.1330  -16.3910 C.ar    1  UNL1        0.0680
     33  C         26.2760  -22.4290  -17.5360 C.3     1  UNL1        0.0730
     34  C         25.7360  -21.6780  -15.0880 C.ar    1  UNL1        0.0130
     35  C         27.0950  -21.3920  -14.5720 C.3     1  UNL1        0.0540
@<TRIPOS>BOND
     1    33    32    1
     2    31    32   ar
     3    31    30   ar
     4    32    34   ar
     5    30    29   ar
     6    34    35    1
     7    34    29   ar
     8    29    27    1
     9    27    28    1
    10    27    24    1
    11    25    24    2
    12     6     5    1
    13     6     1    2
    14    24     1    1
    15    24    26    2
    16     5     4    2
    17     9     8    2
    18     1     2    1
    19     8     7   am
    20     8    11    1
    21     4     7    1
    22     4     3    1
    23     7    10    1
    24     2     3    2
    25    11    12    1
    26    13    12    2
    27    13    14    1
    28    12    17    1
    29    14    15    1
    30    17    15    2
    31    17    20    1
    32    15    16    1
    33    20    19    2
    34    16    18    2
    35    19    18    1
    36    19    21    1
    37    22    21    1
    38    21    23    1
