@<TRIPOS>MOLECULE
20874_out_ligand_01.pdbqt
 34 37 0 0 0
SMALL
GASTEIGER

@<TRIPOS>ATOM
      1  C         23.8090  -21.8340  -11.7240 C.2     1  UNL1        0.0800
      2  C         22.5160  -22.1020  -12.1730 C.2     1  UNL1        0.0270
      3  C         21.4800  -22.2380  -11.2450 C.2     1  UNL1        0.0310
      4  C         21.7270  -22.1180   -9.8680 C.2     1  UNL1        0.0350
      5  C         23.0310  -21.8580   -9.4360 C.2     1  UNL1        0.0310
      6  C         24.0740  -21.7220  -10.3590 C.2     1  UNL1        0.0270
      7  N         20.6210  -22.2610   -9.0060 N.am    1  UNL1       -0.3210
      8  C         20.2200  -23.3930   -8.3100 C.2     1  UNL1        0.2800
      9  O         20.7550  -24.4930   -8.4070 O.2     1  UNL1       -0.2650
     10  H         20.0060  -21.4620   -8.9460 H       1  UNL1        0.1690
     11  C         19.0580  -23.1710   -7.4590 C.ar    1  UNL1        0.1500
     12  O         18.0030  -24.0300   -7.6180 O.2     1  UNL1       -0.3040
     13  C         17.0230  -23.6530   -6.7640 C.ar    1  UNL1        0.0870
     14  C         15.7810  -24.2750   -6.6390 C.2     1  UNL1        0.0410
     15  C         17.4300  -22.5530   -6.0210 C.ar    1  UNL1        0.0090
     16  C         14.9070  -23.7320   -5.6930 C.2     1  UNL1        0.0450
     17  C         15.2830  -22.6310   -4.9290 C.2     1  UNL1        0.1170
     18  F         14.4220  -22.1360   -4.0300 F       1  UNL1       -0.2060
     19  C         16.5350  -22.0240   -5.0700 C.2     1  UNL1        0.0570
     20  C         18.7600  -22.2480   -6.4560 C.ar    1  UNL1       -0.0090
     21  C         19.6330  -21.1800   -5.9040 C.3     1  UNL1        0.0520
     22  S         25.1410  -21.6840  -12.8870 S.O2    1  UNL1        0.2640
     23  O         26.1190  -20.7980  -12.2860 O.2     1  UNL1       -0.2000
     24  O         25.5360  -22.9990  -13.3460 O.2     1  UNL1       -0.2000
     25  N         24.4860  -20.8200  -14.1570 N.pl3   1  UNL1       -0.2640
     26  H         24.1920  -19.8860  -13.8930 H       1  UNL1        0.1800
     27  C         24.9070  -21.0790  -15.4760 C.2     1  UNL1        0.1410
     28  C         25.7920  -20.2170  -16.0790 C.2     1  UNL1        0.0770
     29  C         26.0830  -20.4800  -17.4010 C.2     1  UNL1        0.0360
     30  C         27.0470  -19.6120  -18.1530 C.3     1  UNL1        0.0700
     31  N         25.5190  -21.5040  -18.0700 N.2     1  UNL1       -0.2390
     32  C         24.6490  -22.2740  -17.3920 C.2     1  UNL1        0.1240
     33  N         24.2980  -22.0830  -16.1110 N.2     1  UNL1       -0.2160
     34  C         23.9850  -23.3930  -18.1320 C.3     1  UNL1        0.0930
@<TRIPOS>BOND
     1    30    29    1
     2    34    32    1
     3    31    29    1
     4    31    32    2
     5    29    28    2
     6    32    33    1
     7    33    27    2
     8    28    27    1
     9    27    25    1
    10    25    26    1
    11    25    22    1
    12    24    22    2
    13    22    23    2
    14    22     1    1
    15     2     1    2
    16     2     3    1
    17     1     6    1
    18     3     4    2
    19     6     5    2
    20     4     5    1
    21     4     7    1
    22     7    10    1
    23     7     8   am
    24     9     8    2
    25     8    11    1
    26    12    11   ar
    27    12    13   ar
    28    11    20   ar
    29    13    14    2
    30    13    15   ar
    31    14    16    1
    32    20    15   ar
    33    20    21    1
    34    15    19    2
    35    16    17    2
    36    19    17    1
    37    17    18    1
