@<TRIPOS>MOLECULE
20871_out_ligand_01.pdbqt
 34 37 0 0 0
SMALL
GASTEIGER

@<TRIPOS>ATOM
      1  C         19.9570  -22.1660  -10.7560 C.2     1  UNL1        0.0340
      2  C         20.2670  -21.4080  -11.8950 C.2     1  UNL1        0.0310
      3  C         21.5590  -21.4140  -12.4260 C.2     1  UNL1        0.0270
      4  C         22.5500  -22.1820  -11.8120 C.2     1  UNL1        0.0750
      5  C         22.2550  -22.9520  -10.6870 C.2     1  UNL1        0.0270
      6  C         20.9590  -22.9380  -10.1600 C.2     1  UNL1        0.0310
      7  N         18.6270  -22.1060  -10.2930 N.am    1  UNL1       -0.3270
      8  C         17.5150  -21.6230  -10.9640 C.2     1  UNL1        0.2260
      9  O         17.5020  -21.1650  -12.1050 O.2     1  UNL1       -0.2730
     10  H         18.4620  -22.5210   -9.3840 H       1  UNL1        0.1690
     11  C         16.2400  -21.6310  -10.1280 C.3     1  UNL1        0.1440
     12  C         16.2000  -22.7400   -9.1310 C.2     1  UNL1       -0.0140
     13  C         15.6960  -24.0120   -9.3300 C.2     1  UNL1        0.1510
     14  O         15.8440  -24.7720   -8.2160 O.2     1  UNL1       -0.3210
     15  C         16.4450  -23.9920   -7.2770 C.2     1  UNL1        0.0850
     16  C         16.7860  -24.3960   -5.9910 C.2     1  UNL1        0.0390
     17  C         16.6810  -22.7220   -7.7840 C.2     1  UNL1        0.0070
     18  C         17.4090  -23.4400   -5.1790 C.2     1  UNL1        0.0100
     19  C         17.6710  -22.1360   -5.6350 C.2     1  UNL1       -0.0540
     20  C         17.3030  -21.7740   -6.9480 C.2     1  UNL1        0.0220
     21  C         18.3510  -21.1080   -4.7430 C.3     1  UNL1        0.0100
     22  C         19.6700  -20.6280   -5.3520 C.3     1  UNL1        0.0150
     23  C         18.5650  -21.6410   -3.3240 C.3     1  UNL1        0.0150
     24  S         24.1910  -22.1970  -12.5090 S.O2    1  UNL1        0.2480
     25  O         25.0260  -21.3760  -11.6550 O.2     1  UNL1       -0.2050
     26  O         24.5040  -23.5830  -12.7750 O.2     1  UNL1       -0.2050
     27  N         23.9080  -21.3390  -13.9240 N.pl3   1  UNL1       -0.1480
     28  H         24.2470  -20.3860  -13.8140 H       1  UNL1        0.1490
     29  C         24.6300  -21.8490  -15.0060 C.cat   1  UNL1        0.2150
     30  N         23.9820  -22.4760  -15.9870 N.2     1  UNL1       -0.2300
     31  C         24.7380  -22.8380  -17.0390 C.2     1  UNL1        0.1210
     32  C         26.0810  -22.5600  -17.1370 C.2     1  UNL1        0.0390
     33  C         26.6240  -21.8670  -16.0790 C.2     1  UNL1        0.1210
     34  N         25.9140  -21.4810  -15.0020 N.2     1  UNL1       -0.2300
@<TRIPOS>BOND
     1    32    31    2
     2    32    33    1
     3    31    30    1
     4    33    34    2
     5    30    29    2
     6    29    34    1
     7    29    27    1
     8    27    28    1
     9    27    24    1
    10    26    24    2
    11    24     4    1
    12    24    25    2
    13     3     2    1
    14     3     4    2
    15     9     8    2
    16     2     1    2
    17     4     5    1
    18     8     7   am
    19     8    11    1
    20     1     7    1
    21     1     6    1
    22     5     6    2
    23     7    10    1
    24    11    12    1
    25    13    12    2
    26    13    14    1
    27    12    17    1
    28    14    15    1
    29    17    15    2
    30    17    20    1
    31    15    16    1
    32    20    19    2
    33    16    18    2
    34    19    18    1
    35    19    21    1
    36    22    21    1
    37    21    23    1
