@<TRIPOS>MOLECULE
20885_out_ligand_01.pdbqt
 35 38 0 0 0
SMALL
GASTEIGER

@<TRIPOS>ATOM
      1  C         24.4020  -21.7160  -12.1220 C.2     1  UNL1        0.0800
      2  C         24.5770  -21.6650  -10.7380 C.2     1  UNL1        0.0270
      3  C         23.4740  -21.8190   -9.8920 C.2     1  UNL1        0.0310
      4  C         22.1950  -22.0120  -10.4220 C.2     1  UNL1        0.0350
      5  C         22.0330  -22.0470  -11.8150 C.2     1  UNL1        0.0310
      6  C         23.1300  -21.8960  -12.6670 C.2     1  UNL1        0.0270
      7  N         21.0360  -22.1740   -9.6410 N.am    1  UNL1       -0.3210
      8  C         20.5460  -23.3250   -9.0500 C.2     1  UNL1        0.2800
      9  O         21.0630  -24.4350   -9.1220 O.2     1  UNL1       -0.2650
     10  H         20.4710  -21.3470   -9.4790 H       1  UNL1        0.1690
     11  C         19.3140  -23.0860   -8.3110 C.ar    1  UNL1        0.1500
     12  O         19.3580  -23.1060   -6.9400 O.2     1  UNL1       -0.3040
     13  C         18.1000  -22.8600   -6.4900 C.ar    1  UNL1        0.0870
     14  C         17.7250  -22.7960   -5.1500 C.2     1  UNL1        0.0450
     15  C         17.2320  -22.6780   -7.5540 C.ar    1  UNL1        0.0070
     16  C         16.3720  -22.5280   -4.8700 C.2     1  UNL1       -0.0530
     17  C         15.9360  -22.4540   -3.4300 C.3     1  UNL1        0.0490
     18  C         15.4500  -22.3390   -5.9240 C.2     1  UNL1       -0.0550
     19  C         13.9980  -22.0520   -5.6440 C.3     1  UNL1        0.0490
     20  C         15.8800  -22.4120   -7.2670 C.2     1  UNL1        0.0220
     21  C         18.0180  -22.8240   -8.7390 C.ar    1  UNL1       -0.0090
     22  C         17.5580  -22.7200  -10.1470 C.3     1  UNL1        0.0520
     23  S         25.8060  -21.4950  -13.1870 S.O2    1  UNL1        0.2760
     24  O         26.9790  -21.5900  -12.3410 O.2     1  UNL1       -0.2000
     25  O         25.6020  -20.3220  -14.0110 O.2     1  UNL1       -0.2000
     26  N         25.8110  -22.8610  -14.1300 N.pl3   1  UNL1       -0.1090
     27  H         26.5140  -23.5400  -13.8660 H       1  UNL1        0.1980
     28  C         25.6940  -22.6930  -15.5030 C.cat   1  UNL1        0.7360
     29  N         26.4890  -21.8200  -16.1210 N.2     1  UNL1       -0.0670
     30  C         26.2210  -21.5920  -17.4210 C.2     1  UNL1        0.0510
     31  C         25.1550  -22.1900  -18.0700 C.2     1  UNL1        0.0540
     32  C         27.1190  -20.6430  -18.1530 C.3     1  UNL1        0.0710
     33  C         24.3650  -23.0370  -17.3160 C.2     1  UNL1        0.0510
     34  C         23.1780  -23.7130  -17.9350 C.3     1  UNL1        0.0710
     35  N         24.6100  -23.2840  -16.0140 N.2     1  UNL1       -0.0670
@<TRIPOS>BOND
     1    32    30    1
     2    31    30    2
     3    31    33    1
     4    34    33    1
     5    30    29    1
     6    33    35    2
     7    29    28    2
     8    35    28    1
     9    28    26    1
    10    26    27    1
    11    26    23    1
    12    25    23    2
    13    23    24    2
    14    23     1    1
    15     6     1    2
    16     6     5    1
    17     1     2    1
    18     5     4    2
    19     2     3    2
    20     4     3    1
    21     4     7    1
    22    22    21    1
    23     7    10    1
    24     7     8   am
    25     9     8    2
    26     8    11    1
    27    21    11   ar
    28    21    15   ar
    29    11    12   ar
    30    15    20    1
    31    15    13   ar
    32    20    18    2
    33    12    13   ar
    34    13    14    1
    35    18    19    1
    36    18    16    1
    37    14    16    2
    38    16    17    1
