@<TRIPOS>MOLECULE
20887_out_ligand_01.pdbqt
 34 37 0 0 0
SMALL
GASTEIGER

@<TRIPOS>ATOM
      1  C         24.3120  -21.6690  -12.2500 C.2     1  UNL1        0.0800
      2  C         23.0340  -21.7690  -12.7990 C.2     1  UNL1        0.0270
      3  C         21.9320  -21.9150  -11.9510 C.2     1  UNL1        0.0310
      4  C         22.0980  -21.9710  -10.5590 C.2     1  UNL1        0.0350
      5  C         23.3870  -21.8760  -10.0260 C.2     1  UNL1        0.0310
      6  C         24.4960  -21.7320  -10.8680 C.2     1  UNL1        0.0270
      7  N         20.9290  -22.1120   -9.7830 N.am    1  UNL1       -0.3210
      8  C         20.4740  -23.2410   -9.1180 C.2     1  UNL1        0.2800
      9  O         21.0120  -24.3420   -9.1710 O.2     1  UNL1       -0.2650
     10  H         20.3120  -21.3120   -9.7700 H       1  UNL1        0.1690
     11  C         19.2510  -23.0140   -8.3590 C.ar    1  UNL1        0.1500
     12  O         19.3590  -23.0370   -6.9940 O.2     1  UNL1       -0.3040
     13  C         18.1230  -22.8320   -6.4750 C.ar    1  UNL1        0.0870
     14  C         17.8160  -22.8000   -5.1180 C.2     1  UNL1        0.0450
     15  C         17.1990  -22.6540   -7.4900 C.ar    1  UNL1        0.0070
     16  C         16.4730  -22.5710   -4.7640 C.2     1  UNL1       -0.0530
     17  C         16.1100  -22.5310   -3.3030 C.3     1  UNL1        0.0490
     18  C         15.4950  -22.3830   -5.7660 C.2     1  UNL1       -0.0550
     19  C         14.0520  -22.1340   -5.4080 C.3     1  UNL1        0.0490
     20  C         15.8570  -22.4230   -7.1310 C.2     1  UNL1        0.0220
     21  C         17.9290  -22.7520   -8.7180 C.ar    1  UNL1       -0.0090
     22  C         17.3680  -22.5710  -10.0820 C.3     1  UNL1        0.0520
     23  S         25.7300  -21.5170  -13.3100 S.O2    1  UNL1        0.2760
     24  O         26.6560  -20.6330  -12.6290 O.2     1  UNL1       -0.2000
     25  O         26.1600  -22.8370  -13.7240 O.2     1  UNL1       -0.2000
     26  N         25.1590  -20.6650  -14.6140 N.pl3   1  UNL1       -0.1090
     27  H         25.3230  -19.6670  -14.5540 H       1  UNL1        0.1980
     28  C         25.3980  -21.1870  -15.8780 C.cat   1  UNL1        0.7360
     29  N         26.5950  -21.0150  -16.4380 N.2     1  UNL1       -0.0740
     30  C         26.7910  -21.6800  -17.5890 C.2     1  UNL1        0.1380
     31  C         25.8570  -22.5210  -18.1500 C.2     1  UNL1        0.0470
     32  C         24.6730  -22.6650  -17.4520 C.2     1  UNL1        0.0510
     33  C         23.5970  -23.5740  -17.9680 C.3     1  UNL1        0.0710
     34  N         24.4350  -22.0170  -16.2940 N.2     1  UNL1       -0.0670
@<TRIPOS>BOND
     1    31    30    2
     2    31    32    1
     3    33    32    1
     4    30    29    1
     5    32    34    2
     6    29    28    2
     7    34    28    1
     8    28    26    1
     9    26    27    1
    10    26    23    1
    11    25    23    2
    12    23    24    2
    13    23     1    1
    14     2     1    2
    15     2     3    1
    16     1     6    1
    17     3     4    2
    18     6     5    2
    19     4     5    1
    20     4     7    1
    21    22    21    1
    22     7    10    1
    23     7     8   am
    24     9     8    2
    25     8    11    1
    26    21    11   ar
    27    21    15   ar
    28    11    12   ar
    29    15    20    1
    30    15    13   ar
    31    20    18    2
    32    12    13   ar
    33    13    14    1
    34    18    19    1
    35    18    16    1
    36    14    16    2
    37    16    17    1
