@<TRIPOS>MOLECULE
20884_out_ligand_01.pdbqt
 34 37 0 0 0
SMALL
GASTEIGER

@<TRIPOS>ATOM
      1  C         22.1390  -21.9470  -10.5210 C.2     1  UNL1        0.0350
      2  C         22.1310  -21.8970  -11.9180 C.2     1  UNL1        0.0310
      3  C         23.3210  -21.7090  -12.6290 C.2     1  UNL1        0.0270
      4  C         24.5270  -21.5830  -11.9380 C.2     1  UNL1        0.0750
      5  C         24.5500  -21.6070  -10.5430 C.2     1  UNL1        0.0270
      6  C         23.3560  -21.7960   -9.8420 C.2     1  UNL1        0.0310
      7  N         20.9880  -22.1370   -9.7340 N.am    1  UNL1       -0.3210
      8  C         20.4690  -23.3200   -9.2360 C.2     1  UNL1        0.2800
      9  O         20.9500  -24.4350   -9.4110 O.2     1  UNL1       -0.2650
     10  H         20.4580  -21.3100   -9.4830 H       1  UNL1        0.1690
     11  C         19.2570  -23.1080   -8.4580 C.ar    1  UNL1        0.1500
     12  O         19.3380  -23.1700   -7.0890 O.2     1  UNL1       -0.3040
     13  C         18.0930  -22.9420   -6.5990 C.ar    1  UNL1        0.0870
     14  C         17.7530  -22.9210   -5.2480 C.2     1  UNL1        0.0450
     15  C         17.1960  -22.7290   -7.6330 C.ar    1  UNL1        0.0070
     16  C         16.4080  -22.6650   -4.9240 C.2     1  UNL1       -0.0530
     17  C         16.0090  -22.6370   -3.4720 C.3     1  UNL1        0.0490
     18  C         15.4580  -22.4430   -5.9460 C.2     1  UNL1       -0.0550
     19  C         15.8510  -22.4740   -7.3010 C.2     1  UNL1        0.0220
     20  C         14.0130  -22.1670   -5.6190 C.3     1  UNL1        0.0490
     21  C         17.9490  -22.8380   -8.8420 C.ar    1  UNL1       -0.0090
     22  C         17.4500  -22.6920  -10.2340 C.3     1  UNL1        0.0520
     23  S         26.0440  -21.3370  -12.8360 S.O2    1  UNL1        0.2470
     24  O         25.8830  -20.1790  -13.6880 O.2     1  UNL1       -0.2050
     25  O         27.1210  -21.4130  -11.8700 O.2     1  UNL1       -0.2050
     26  N         26.2040  -22.7050  -13.8160 N.pl3   1  UNL1       -0.1580
     27  H         26.0330  -23.5440  -13.2620 H       1  UNL1        0.1480
     28  C         25.4650  -22.6680  -15.0640 C.ar    1  UNL1        0.1700
     29  O         25.1820  -21.5150  -15.7240 O.2     1  UNL1       -0.2000
     30  N         24.4780  -21.7990  -16.8750 N.ar    1  UNL1       -0.1310
     31  C         24.3160  -23.1270  -16.8810 C.ar    1  UNL1        0.0680
     32  C         23.5880  -23.7830  -17.9930 C.3     1  UNL1        0.0730
     33  C         24.9080  -23.7340  -15.7360 C.ar    1  UNL1        0.0130
     34  C         24.9170  -25.1680  -15.3720 C.3     1  UNL1        0.0540
@<TRIPOS>BOND
     1    32    31    1
     2    31    30   ar
     3    31    33   ar
     4    30    29   ar
     5    33    34    1
     6    33    28   ar
     7    29    28   ar
     8    28    26    1
     9    26    27    1
    10    26    23    1
    11    24    23    2
    12    23     4    1
    13    23    25    2
    14     3     4    2
    15     3     2    1
    16     4     5    1
    17     2     1    2
    18     5     6    2
    19     1     6    1
    20     1     7    1
    21    22    21    1
    22     7    10    1
    23     7     8   am
    24     9     8    2
    25     8    11    1
    26    21    11   ar
    27    21    15   ar
    28    11    12   ar
    29    15    19    1
    30    15    13   ar
    31    19    18    2
    32    12    13   ar
    33    13    14    1
    34    18    20    1
    35    18    16    1
    36    14    16    2
    37    16    17    1
