@<TRIPOS>MOLECULE
2089_out_ligand_01.pdbqt
 33 36 0 0 0
SMALL
GASTEIGER

@<TRIPOS>ATOM
      1  C         20.0780  -22.0370  -11.0390 C.2     1  UNL1        0.0320
      2  C         20.5950  -22.8250  -10.0070 C.2     1  UNL1        0.0190
      3  C         21.9490  -23.1900  -10.0060 C.2     1  UNL1        0.0310
      4  C         22.8020  -22.7590  -11.0230 C.2     1  UNL1        0.0420
      5  C         22.2710  -22.0080  -12.0770 C.2     1  UNL1        0.0310
      6  C         20.9200  -21.6440  -12.0850 C.2     1  UNL1        0.0190
      7  N         24.1680  -23.1510  -11.1390 N.pl3   1  UNL1       -0.2810
      8  H         24.3930  -24.0060  -11.6490 H       1  UNL1        0.1790
      9  S         25.4660  -22.0720  -11.1580 S.O2    1  UNL1        0.2650
     10  O         26.6510  -22.8320  -10.8270 O.2     1  UNL1       -0.2000
     11  O         25.0100  -20.9580  -10.3500 O.2     1  UNL1       -0.2000
     12  C         25.5370  -21.4960  -12.8320 C.2     1  UNL1        0.1090
     13  C         25.6660  -20.1210  -13.0930 C.2     1  UNL1        0.0280
     14  C         25.7050  -19.6660  -14.4050 C.2     1  UNL1        0.0030
     15  C         25.6230  -20.5820  -15.4470 C.2     1  UNL1        0.0140
     16  C         25.5120  -21.9580  -15.1830 C.2     1  UNL1       -0.0060
     17  C         25.4460  -22.8770  -16.2410 C.2     1  UNL1        0.0150
     18  C         25.4730  -22.4450  -13.8560 C.2     1  UNL1        0.0900
     19  C         25.3480  -24.2350  -15.9780 C.2     1  UNL1        0.0200
     20  C         25.3240  -24.6320  -14.6590 C.2     1  UNL1        0.1170
     21  N         25.3860  -23.7710  -13.6190 N.2     1  UNL1       -0.2590
     22  C         18.6490  -21.6220  -11.0840 C.2     1  UNL1        0.2510
     23  O         18.3210  -20.6170  -11.7030 O.2     1  UNL1       -0.2680
     24  N         17.7620  -22.3970  -10.3670 N.am    1  UNL1       -0.3570
     25  H         18.1300  -23.0290   -9.6670 H       1  UNL1        0.1620
     26  C         16.3800  -21.9870  -10.1940 C.3     1  UNL1        0.1270
     27  C         15.6180  -22.8650   -9.1950 C.3     1  UNL1        0.0580
     28  C         16.4020  -23.1080   -7.9250 C.2     1  UNL1       -0.0570
     29  C         16.7890  -22.0300   -7.1160 C.2     1  UNL1        0.0070
     30  C         17.5390  -22.2490   -5.9600 C.2     1  UNL1        0.0010
     31  C         17.9100  -23.5450   -5.6030 C.2     1  UNL1        0.0000
     32  C         17.5300  -24.6220   -6.4010 C.2     1  UNL1        0.0010
     33  C         16.7800  -24.4060   -7.5580 C.2     1  UNL1        0.0070
@<TRIPOS>BOND
     1    17    19    2
     2    17    16    1
     3    19    20    1
     4    15    16    2
     5    15    14    1
     6    16    18    1
     7    20    21    2
     8    14    13    2
     9    18    21    1
    10    18    12    2
    11    13    12    1
    12    12     9    1
    13     6     5    1
    14     6     1    2
    15     5     4    2
    16    23    22    2
    17     8     7    1
    18     9     7    1
    19     9    10    2
    20     9    11    2
    21     7     4    1
    22    22     1    1
    23    22    24   am
    24     1     2    1
    25     4     3    1
    26    24    26    1
    27    24    25    1
    28    26    27    1
    29     2     3    2
    30    27    28    1
    31    28    33    2
    32    28    29    1
    33    33    32    1
    34    29    30    2
    35    32    31    2
    36    30    31    1
