@<TRIPOS>MOLECULE
20901_out_ligand_01.pdbqt
 36 39 0 0 0
SMALL
GASTEIGER

@<TRIPOS>ATOM
      1  C         18.7970  -22.8210  -10.3860 C.2     1  UNL1        0.0380
      2  C         17.5300  -23.3070  -10.0380 C.2     1  UNL1        0.0250
      3  C         16.4010  -22.4980  -10.1560 C.2     1  UNL1        0.0020
      4  C         16.5280  -21.1940  -10.6250 C.2     1  UNL1        0.0010
      5  C         17.7790  -20.7050  -11.0060 C.2     1  UNL1        0.0190
      6  C         18.9230  -21.5210  -10.9260 C.2     1  UNL1        0.0540
      7  C         20.2640  -21.0180  -11.3850 C.2     1  UNL1        0.2580
      8  O         20.4610  -19.8070  -11.3720 O.2     1  UNL1       -0.2670
      9  N         21.1890  -21.9900  -11.7190 N.am    1  UNL1       -0.3160
     10  H         20.9840  -22.9620  -11.5000 H       1  UNL1        0.1690
     11  C         22.4440  -21.8000  -12.2870 C.ar    1  UNL1        0.0930
     12  S         22.6320  -21.5460  -13.9510 S.2     1  UNL1       -0.0750
     13  C         24.3210  -21.5430  -13.8280 C.ar    1  UNL1       -0.0080
     14  C         24.7690  -21.6960  -12.5270 C.ar    1  UNL1       -0.0260
     15  C         25.1870  -21.3920  -15.0410 C.3     1  UNL1        0.0470
     16  C         23.6560  -21.8340  -11.6030 C.ar    1  UNL1        0.0730
     17  C         26.2430  -21.8010  -12.2310 C.3     1  UNL1        0.0410
     18  C         27.1210  -21.3600  -13.4140 C.3     1  UNL1        0.0050
     19  C         26.6020  -21.9040  -14.7490 C.3     1  UNL1        0.0050
     20  C         23.6840  -22.0360  -10.1530 C.2     1  UNL1        0.2520
     21  N         24.1310  -23.2450   -9.7060 N.am    1  UNL1       -0.3660
     22  H         24.7420  -23.7900  -10.2970 H       1  UNL1        0.1590
     23  H         24.3110  -23.2910   -8.7120 H       1  UNL1        0.1590
     24  O         23.4060  -21.1480   -9.3490 O.2     1  UNL1       -0.2680
     25  N         19.9430  -23.6700  -10.1870 N.pl3   1  UNL1       -0.1800
     26  H         20.7710  -23.3710  -10.7280 H       1  UNL1        0.1460
     27  S         20.4550  -23.9620   -8.5920 S.O2    1  UNL1        0.2450
     28  O         21.4740  -22.9790   -8.2890 O.2     1  UNL1       -0.2060
     29  O         20.7260  -25.3770   -8.4320 O.2     1  UNL1       -0.2060
     30  C         19.0190  -23.5670   -7.6180 C.2     1  UNL1        0.0740
     31  C         18.0940  -24.5650   -7.3020 C.2     1  UNL1        0.0250
     32  C         16.9700  -24.2440   -6.5380 C.2     1  UNL1        0.0080
     33  C         16.7670  -22.9310   -6.0900 C.2     1  UNL1       -0.0620
     34  C         15.5740  -22.5950   -5.2440 C.3     1  UNL1        0.0480
     35  C         17.7200  -21.9480   -6.3880 C.2     1  UNL1        0.0080
     36  C         18.8480  -22.2630   -7.1480 C.2     1  UNL1        0.0250
@<TRIPOS>BOND
     1    15    19    1
     2    15    13    1
     3    19    18    1
     4    12    13   ar
     5    12    11   ar
     6    13    14   ar
     7    18    17    1
     8    14    17    1
     9    14    16   ar
    10    11     9    1
    11    11    16   ar
    12     9    10    1
    13     9     7   am
    14    16    20    1
    15     7     8    2
    16     7     6    1
    17     5     6    1
    18     5     4    2
    19     6     1    2
    20    26    25    1
    21     4     3    1
    22     1    25    1
    23     1     2    1
    24    22    21    1
    25    25    27    1
    26     3     2    2
    27    20    21   am
    28    20    24    2
    29    21    23    1
    30    27    29    2
    31    27    28    2
    32    27    30    1
    33    30    31    2
    34    30    36    1
    35    31    32    1
    36    36    35    2
    37    32    33    2
    38    35    33    1
    39    33    34    1
