@<TRIPOS>MOLECULE
20928_out_ligand_01.pdbqt
 30 34 0 0 0
SMALL
GASTEIGER

@<TRIPOS>ATOM
      1  C         15.8720  -23.1990   -7.9910 C.3     1  UNL1        0.2700
      2  C         16.2980  -24.5020   -7.2680 C.3     1  UNL1        0.0420
      3  C         17.7520  -24.4430   -6.7490 C.3     1  UNL1        0.0070
      4  C         18.7740  -24.2220   -7.8830 C.3     1  UNL1        0.0420
      5  C         18.2840  -23.2280   -8.8810 C.ar    1  UNL1       -0.0210
      6  C         16.9720  -22.8000   -8.9190 C.ar    1  UNL1        0.0500
      7  N         16.8290  -21.9360   -9.9690 N.ar    1  UNL1       -0.3570
      8  C         18.0400  -21.7740  -10.6060 C.ar    1  UNL1        0.0430
      9  C         18.3750  -20.9840  -11.7090 C.2     1  UNL1        0.0310
     10  C         19.7020  -21.0270  -12.1560 C.2     1  UNL1        0.0140
     11  C         20.6720  -21.8300  -11.5370 C.2     1  UNL1       -0.0250
     12  C         20.2960  -22.6100  -10.4250 C.2     1  UNL1        0.0260
     13  C         18.9690  -22.5820   -9.9480 C.ar    1  UNL1       -0.0000
     14  H         15.9690  -21.4740  -10.2310 H       1  UNL1        0.1660
     15  N         15.6750  -22.1300   -7.0080 N.3     1  UNL1        0.0940
     16  H         15.7870  -21.2270   -7.4670 H       1  UNL1        0.3160
     17  C         14.3660  -22.1970   -6.3520 C.3     1  UNL1        0.2750
     18  C         14.4480  -22.1380   -4.8140 C.3     1  UNL1        0.0680
     19  C         15.7560  -22.6240   -4.2320 C.2     1  UNL1       -0.0570
     20  C         16.8850  -21.7910   -4.2320 C.2     1  UNL1        0.0070
     21  C         18.0950  -22.2330   -3.6960 C.2     1  UNL1        0.0010
     22  C         18.1910  -23.5140   -3.1530 C.2     1  UNL1        0.0000
     23  C         17.0790  -24.3530   -3.1530 C.2     1  UNL1        0.0010
     24  C         15.8690  -23.9140   -3.6950 C.2     1  UNL1        0.0070
     25  C         22.0560  -21.8600  -12.0380 C.2     1  UNL1       -0.0260
     26  C         23.0960  -22.3780  -11.2500 C.2     1  UNL1        0.0120
     27  C         24.4100  -22.4110  -11.7250 C.2     1  UNL1        0.0010
     28  C         24.7060  -21.9230  -12.9970 C.2     1  UNL1        0.0000
     29  C         23.6880  -21.4030  -13.7920 C.2     1  UNL1        0.0010
     30  C         22.3740  -21.3730  -13.3170 C.2     1  UNL1        0.0120
@<TRIPOS>BOND
     1    29    30    1
     2    29    28    2
     3    30    25    2
     4    28    27    1
     5    10     9    1
     6    10    11    2
     7    25    11    1
     8    25    26    1
     9    27    26    2
    10     9     8    2
    11    11    12    1
    12     8     7   ar
    13     8    13   ar
    14    12    13    2
    15    14     7    1
    16     7     6   ar
    17    13     5   ar
    18     6     5   ar
    19     6     1    1
    20     5     4    1
    21     1     2    1
    22     1    15    1
    23     4     3    1
    24    16    15    1
    25     2     3    1
    26    15    17    1
    27    17    18    1
    28    18    19    1
    29    19    20    2
    30    19    24    1
    31    20    21    1
    32    21    22    2
    33    24    23    2
    34    22    23    1
