@<TRIPOS>MOLECULE
20944_out_ligand_01.pdbqt
 41 44 0 0 0
SMALL
GASTEIGER

@<TRIPOS>ATOM
      1  N         22.4350  -22.8720  -10.0730 N.pl3   1  UNL1       -0.3050
      2  C         23.7400  -23.3450   -9.7660 C.2     1  UNL1        0.1030
      3  C         24.7650  -23.1410  -10.6480 C.2     1  UNL1        0.0910
      4  C         26.0740  -23.6210  -10.3180 C.1     1  UNL1        0.1000
      5  N         27.1210  -24.0400  -10.0470 N.1     1  UNL1       -0.1920
      6  C         24.5840  -22.4150  -12.0110 C.3     1  UNL1        0.2200
      7  C         23.1410  -21.9310  -12.1680 C.2     1  UNL1       -0.0250
      8  C         22.1990  -22.1730  -11.2480 C.2     1  UNL1        0.0220
      9  C         20.9010  -21.5080  -11.6130 C.3     1  UNL1        0.0580
     10  C         21.1160  -21.1270  -13.0760 C.3     1  UNL1        0.0100
     11  C         22.6270  -21.0740  -13.2840 C.3     1  UNL1        0.0380
     12  N         23.9680  -24.0270   -8.5740 N.pl3   1  UNL1       -0.2870
     13  H         23.4810  -23.6790   -7.7520 H       1  UNL1        0.1250
     14  H         24.9580  -24.1620   -8.3850 H       1  UNL1        0.1250
     15  C         24.9540  -23.3560  -13.1510 C.3     1  UNL1        0.4120
     16  F         24.1090  -24.4190  -13.1950 F       1  UNL1       -0.1690
     17  F         24.8860  -22.7620  -14.3640 F       1  UNL1       -0.1690
     18  F         26.2000  -23.8620  -13.0380 F       1  UNL1       -0.1690
     19  C         25.5520  -21.2410  -12.1270 C.3     1  UNL1        0.4120
     20  F         26.8250  -21.6220  -12.3570 F       1  UNL1       -0.1690
     21  F         25.2180  -20.3920  -13.1250 F       1  UNL1       -0.1690
     22  F         25.5650  -20.5090  -10.9850 F       1  UNL1       -0.1690
     23  C         21.3760  -23.0100   -9.1210 C.2     1  UNL1        0.0400
     24  C         20.5380  -24.1400   -9.1500 C.2     1  UNL1        0.0310
     25  C         19.5050  -24.2840   -8.2230 C.2     1  UNL1        0.0270
     26  C         19.3050  -23.2920   -7.2600 C.2     1  UNL1        0.0750
     27  C         20.1360  -22.1690   -7.2040 C.2     1  UNL1        0.0270
     28  C         21.1660  -22.0310   -8.1360 C.2     1  UNL1        0.0310
     29  S         17.9920  -23.4510   -6.0650 S.O2    1  UNL1        0.2480
     30  O         17.4250  -24.7750   -6.2270 O.2     1  UNL1       -0.2050
     31  O         18.5420  -23.0080   -4.8040 O.2     1  UNL1       -0.2050
     32  N         16.8810  -22.3640   -6.7050 N.pl3   1  UNL1       -0.1480
     33  H         17.3350  -21.4520   -6.7490 H       1  UNL1        0.1490
     34  C         16.5860  -22.6510   -8.0410 C.cat   1  UNL1        0.2160
     35  N         15.7970  -23.6860   -8.3180 N.2     1  UNL1       -0.2230
     36  C         15.5150  -23.8750   -9.6190 C.2     1  UNL1        0.0360
     37  C         15.9800  -23.0260  -10.6070 C.2     1  UNL1        0.0530
     38  C         14.6750  -25.0660   -9.9760 C.3     1  UNL1        0.0700
     39  C         16.7580  -21.9570  -10.1940 C.2     1  UNL1        0.0360
     40  C         17.2870  -20.9780  -11.1970 C.3     1  UNL1        0.0700
     41  N         17.0650  -21.7470   -8.8990 N.2     1  UNL1       -0.2230
@<TRIPOS>BOND
     1    17    15    1
     2    11    10    1
     3    11     7    1
     4    16    15    1
     5    15    18    1
     6    15     6    1
     7    21    19    1
     8    10     9    1
     9    20    19    1
    10     7     6    1
    11     7     8    2
    12    19     6    1
    13    19    22    1
    14     6     3    1
    15     9     8    1
    16     8     1    1
    17    40    39    1
    18     3     4    1
    19     3     2    2
    20    37    39    1
    21    37    36    2
    22     4     5    3
    23    39    41    2
    24     1     2    1
    25     1    23    1
    26    38    36    1
    27     2    12    1
    28    36    35    1
    29    24    23    2
    30    24    25    1
    31    23    28    1
    32    41    34    1
    33    12    14    1
    34    12    13    1
    35    35    34    2
    36    25    26    2
    37    28    27    2
    38    34    32    1
    39    26    27    1
    40    26    29    1
    41    33    32    1
    42    32    29    1
    43    30    29    2
    44    29    31    2
