@<TRIPOS>MOLECULE
21005_out_ligand_01.pdbqt
 34 39 0 0 0
SMALL
GASTEIGER

@<TRIPOS>ATOM
      1  C         24.4830  -21.8080  -12.2900 C.2     1  UNL1        0.1440
      2  N         24.2630  -21.3510  -13.5410 N.2     1  UNL1       -0.2230
      3  C         23.0060  -21.0940  -13.9280 C.2     1  UNL1        0.2360
      4  N         21.8900  -21.2300  -13.2080 N.2     1  UNL1       -0.2400
      5  C         22.0960  -21.6890  -11.9470 C.ar    1  UNL1        0.0920
      6  C         23.3670  -21.9870  -11.4620 C.ar    1  UNL1        0.0820
      7  S         23.2960  -22.5480   -9.8370 S.2     1  UNL1       -0.0630
      8  C         21.6040  -22.3970   -9.7840 C.ar    1  UNL1        0.1120
      9  N         20.9290  -22.7360   -8.6640 N.ar    1  UNL1       -0.2390
     10  C         19.5850  -22.5810   -8.7160 C.ar    1  UNL1        0.0750
     11  C         18.9360  -22.1060   -9.8450 C.ar    1  UNL1       -0.0210
     12  C         19.6730  -21.7740  -10.9900 C.ar    1  UNL1       -0.0340
     13  C         21.0680  -21.9200  -10.9720 C.ar    1  UNL1        0.0370
     14  C         18.7620  -21.3500  -12.1090 C.3     1  UNL1        0.0400
     15  C         17.4740  -21.0370  -11.3410 C.3     1  UNL1        0.0090
     16  C         17.4690  -21.9510  -10.1080 C.3     1  UNL1        0.0420
     17  N         25.7740  -22.1000  -11.8600 N.pl3   1  UNL1       -0.3690
     18  H         26.3560  -21.2720  -11.7700 H       1  UNL1        0.1610
     19  C         26.4450  -23.2840  -12.4070 C.3     1  UNL1        0.0790
     20  C         27.0290  -24.1010  -11.2500 C.3     1  UNL1        0.0320
     21  C         25.3920  -24.0750  -13.2130 C.3     1  UNL1        0.0290
     22  C         25.9010  -24.6330  -14.5500 C.3     1  UNL1        0.0400
     23  C         25.6530  -23.7580  -15.7510 C.2     1  UNL1       -0.0580
     24  C         26.5850  -22.7810  -16.1280 C.2     1  UNL1        0.0070
     25  C         26.3530  -21.9730  -17.2420 C.2     1  UNL1        0.0010
     26  C         25.1910  -22.1350  -17.9920 C.2     1  UNL1        0.0000
     27  C         24.2620  -23.1090  -17.6320 C.2     1  UNL1        0.0010
     28  C         24.4920  -23.9180  -16.5190 C.2     1  UNL1        0.0070
     29  C         18.8770  -22.9790   -7.4910 C.2     1  UNL1       -0.0070
     30  C         18.7730  -22.0890   -6.4090 C.2     1  UNL1        0.0140
     31  C         18.1050  -22.4540   -5.2370 C.2     1  UNL1        0.0010
     32  C         17.5210  -23.7140   -5.1320 C.2     1  UNL1        0.0000
     33  C         17.5980  -24.6060   -6.1990 C.2     1  UNL1        0.0010
     34  C         18.2670  -24.2390   -7.3700 C.2     1  UNL1        0.0140
@<TRIPOS>BOND
     1    26    27    2
     2    26    25    1
     3    27    28    1
     4    25    24    2
     5    28    23    2
     6    24    23    1
     7    23    22    1
     8    22    21    1
     9     3     2    1
    10     3     4    2
    11     2     1    2
    12    21    19    1
    13     4     5    1
    14    19    17    1
    15    19    20    1
    16     1    17    1
    17     1     6    1
    18    14    15    1
    19    14    12    1
    20     5     6   ar
    21     5    13   ar
    22    17    18    1
    23     6     7   ar
    24    15    16    1
    25    12    13   ar
    26    12    11   ar
    27    13     8   ar
    28    16    11    1
    29    11    10   ar
    30     7     8   ar
    31     8     9   ar
    32    10     9   ar
    33    10    29    1
    34    29    34    2
    35    29    30    1
    36    34    33    1
    37    30    31    2
    38    33    32    2
    39    31    32    1
