@<TRIPOS>MOLECULE
21009_out_ligand_01.pdbqt
 27 29 0 0 0
SMALL
GASTEIGER

@<TRIPOS>ATOM
      1  N         19.5390  -22.7540  -10.2090 N.am    1  UNL1       -0.3220
      2  C         19.9080  -21.6900  -11.0140 C.2     1  UNL1        0.2560
      3  O         19.2670  -20.6750  -11.2470 O.2     1  UNL1       -0.2670
      4  H         20.1480  -23.5580  -10.2410 H       1  UNL1        0.1690
      5  C         18.3520  -22.9050   -9.4470 C.2     1  UNL1        0.0420
      6  C         17.0930  -22.9950  -10.0570 C.2     1  UNL1        0.0300
      7  C         15.9340  -23.2000   -9.3070 C.2     1  UNL1        0.0030
      8  C         16.0170  -23.3240   -7.9280 C.2     1  UNL1        0.0180
      9  C         17.2610  -23.2140   -7.2910 C.2     1  UNL1        0.0400
     10  C         18.4420  -22.9760   -8.0350 C.2     1  UNL1       -0.0190
     11  C         19.7650  -22.8260   -7.3220 C.3     1  UNL1        0.0520
     12  C         17.2910  -23.3990   -5.8140 C.2     1  UNL1        0.2510
     13  N         17.0850  -22.2500   -5.0790 N.am    1  UNL1       -0.3610
     14  C         17.1980  -22.2620   -3.6420 C.3     1  UNL1        0.1490
     15  H         17.1060  -21.3570   -5.5560 H       1  UNL1        0.1620
     16  O         17.5040  -24.5000   -5.3250 O.2     1  UNL1       -0.2680
     17  C         21.2340  -21.8500  -11.6730 C.2     1  UNL1        0.0340
     18  C         22.2430  -22.6350  -11.0910 C.2     1  UNL1        0.0190
     19  C         23.4900  -22.7890  -11.7080 C.2     1  UNL1        0.0330
     20  C         23.6730  -22.1170  -12.9190 C.ar    1  UNL1        0.0620
     21  N         24.7380  -22.0380  -13.7790 N.ar    1  UNL1       -0.3430
     22  C         22.6980  -21.3210  -13.5100 C.ar    1  UNL1        0.0860
     23  C         24.3850  -21.2300  -14.8310 C.ar    1  UNL1        0.1010
     24  H         25.6310  -22.4940  -13.6610 H       1  UNL1        0.1670
     25  C         25.3120  -20.9320  -15.9470 C.3     1  UNL1        0.0910
     26  N         23.1540  -20.7860  -14.6890 N.ar    1  UNL1       -0.2340
     27  C         21.4560  -21.1710  -12.8810 C.2     1  UNL1        0.0510
@<TRIPOS>BOND
     1    25    23    1
     2    23    26   ar
     3    23    21   ar
     4    26    22   ar
     5    21    24    1
     6    21    20   ar
     7    22    20   ar
     8    22    27    1
     9    20    19    1
    10    27    17    2
    11    19    18    2
    12    17    18    1
    13    17     2    1
    14     3     2    2
    15     2     1   am
    16     4     1    1
    17     1     5    1
    18     6     5    2
    19     6     7    1
    20     5    10    1
    21     7     8    2
    22    10    11    1
    23    10     9    2
    24     8     9    1
    25     9    12    1
    26    12    16    2
    27    12    13   am
    28    15    13    1
    29    13    14    1
