@<TRIPOS>MOLECULE
21008_out_ligand_01.pdbqt
 28 30 0 0 0
SMALL
GASTEIGER

@<TRIPOS>ATOM
      1  C         20.1660  -23.3690   -9.2360 C.2     1  UNL1        0.2800
      2  O         20.1430  -24.5350   -8.8560 O.2     1  UNL1       -0.2650
      3  N         19.3820  -22.3470   -8.7270 N.am    1  UNL1       -0.3210
      4  H         19.5270  -21.4480   -9.1760 H       1  UNL1        0.1690
      5  C         21.0430  -22.9140  -10.3050 C.ar    1  UNL1        0.1500
      6  O         22.3540  -23.3200  -10.2940 O.2     1  UNL1       -0.3040
      7  C         22.9560  -22.7720  -11.3810 C.ar    1  UNL1        0.0870
      8  C         24.2940  -22.9440  -11.7300 C.2     1  UNL1        0.0450
      9  C         22.0530  -22.0090  -12.1040 C.ar    1  UNL1        0.0070
     10  C         24.7460  -22.2980  -12.8950 C.2     1  UNL1       -0.0530
     11  C         26.1880  -22.4660  -13.2990 C.3     1  UNL1        0.0490
     12  C         23.8600  -21.5090  -13.6630 C.2     1  UNL1       -0.0550
     13  C         22.5130  -21.3640  -13.2670 C.2     1  UNL1        0.0220
     14  C         24.3260  -20.8090  -14.9130 C.3     1  UNL1        0.0490
     15  C         20.8080  -22.1000  -11.4070 C.ar    1  UNL1       -0.0090
     16  C         19.5190  -21.4600  -11.7740 C.3     1  UNL1        0.0520
     17  C         18.4320  -22.4040   -7.6920 C.2     1  UNL1        0.0350
     18  C         17.0990  -22.6340   -8.0660 C.2     1  UNL1        0.0310
     19  C         16.0880  -22.7080   -7.1030 C.2     1  UNL1        0.0270
     20  C         16.4140  -22.5550   -5.7560 C.2     1  UNL1        0.0740
     21  C         17.7320  -22.3100   -5.3690 C.2     1  UNL1        0.0270
     22  C         18.7370  -22.2390   -6.3380 C.2     1  UNL1        0.0310
     23  S         15.1480  -22.6420   -4.5170 S.O2    1  UNL1        0.2390
     24  O         14.1270  -21.6750   -4.8390 O.2     1  UNL1       -0.2060
     25  O         14.8520  -24.0330   -4.2590 O.2     1  UNL1       -0.2060
     26  N         15.9740  -22.0990   -3.1530 N.3     1  UNL1       -0.2250
     27  H         15.5990  -22.5740   -2.3300 H       1  UNL1        0.1360
     28  H         16.9860  -22.2000   -3.2250 H       1  UNL1        0.1360
@<TRIPOS>BOND
     1    14    12    1
     2    12    13    2
     3    12    10    1
     4    11    10    1
     5    13     9    1
     6    10     8    2
     7     9    15   ar
     8     9     7   ar
     9    16    15    1
    10     8     7    1
    11    15     5   ar
    12     7     6   ar
    13     5     6   ar
    14     5     1    1
    15     1     2    2
    16     1     3   am
    17     4     3    1
    18     3    17    1
    19    18    17    2
    20    18    19    1
    21    17    22    1
    22    19    20    2
    23    22    21    2
    24    20    21    1
    25    20    23    1
    26    24    23    2
    27    23    25    2
    28    23    26    1
    29    28    26    1
    30    26    27    1
