@<TRIPOS>MOLECULE
21019_out_ligand_01.pdbqt
 27 29 0 0 0
SMALL
GASTEIGER

@<TRIPOS>ATOM
      1  C         17.9760  -23.2900   -7.9110 C.3     1  UNL1        0.0960
      2  C         16.5710  -23.6600   -8.4160 C.3     1  UNL1        0.0280
      3  C         16.3960  -22.8650   -9.7020 C.3     1  UNL1        0.0220
      4  C         17.7980  -22.8160  -10.2760 C.3     1  UNL1        0.1270
      5  N         18.6970  -22.8800   -9.1280 N.am    1  UNL1       -0.3430
      6  C         20.0320  -23.2530   -9.2890 C.2     1  UNL1        0.2550
      7  O         20.6310  -24.0070   -8.5270 O.2     1  UNL1       -0.2670
      8  C         20.7750  -22.7210  -10.4500 C.2     1  UNL1        0.0490
      9  C         20.2530  -21.7350  -11.2900 C.2     1  UNL1        0.0210
     10  C         21.0260  -21.2610  -12.3490 C.2     1  UNL1        0.0380
     11  C         22.3030  -21.7860  -12.5190 C.2     1  UNL1        0.1230
     12  N         22.8520  -22.7320  -11.7030 N.2     1  UNL1       -0.2550
     13  C         22.0740  -23.1630  -10.6780 C.2     1  UNL1        0.1340
     14  C         23.1600  -21.3020  -13.6470 C.2     1  UNL1        0.2680
     15  N         22.6160  -20.3010  -14.4050 N.am    1  UNL1       -0.3650
     16  H         21.6810  -19.9700  -14.1960 H       1  UNL1        0.1590
     17  H         23.1210  -19.9460  -15.2040 H       1  UNL1        0.1590
     18  O         24.2690  -21.7660  -13.8810 O.2     1  UNL1       -0.2660
     19  C         17.9720  -22.2210   -6.7640 C.3     1  UNL1        0.0410
     20  C         19.3740  -21.6880   -6.3820 C.3     1  UNL1        0.0070
     21  C         19.3400  -20.5440   -5.3710 C.3     1  UNL1        0.0060
     22  C         17.1510  -22.6870   -5.5640 C.2     1  UNL1       -0.0520
     23  C         17.7250  -23.5750   -4.6390 C.2     1  UNL1        0.0070
     24  C         17.0040  -24.0190   -3.5290 C.2     1  UNL1        0.0010
     25  C         15.6990  -23.5780   -3.3240 C.2     1  UNL1        0.0000
     26  C         15.1170  -22.6920   -4.2250 C.2     1  UNL1        0.0010
     27  C         15.8370  -22.2480   -5.3360 C.2     1  UNL1        0.0070
@<TRIPOS>BOND
     1    17    15    1
     2    15    16    1
     3    15    14   am
     4    18    14    2
     5    14    11    1
     6    11    10    2
     7    11    12    1
     8    10     9    1
     9    12    13    2
    10     9     8    2
    11    13     8    1
    12     8     6    1
    13     4     3    1
    14     4     5    1
    15     3     2    1
    16     6     5   am
    17     6     7    2
    18     5     1    1
    19     2     1    1
    20     1    19    1
    21    19    20    1
    22    19    22    1
    23    20    21    1
    24    22    27    2
    25    22    23    1
    26    27    26    1
    27    23    24    2
    28    26    25    2
    29    24    25    1
