@<TRIPOS>MOLECULE
21023_out_ligand_01.pdbqt
 31 34 0 0 0
SMALL
GASTEIGER

@<TRIPOS>ATOM
      1  C         20.9970  -22.1940  -10.3630 C.2     1  UNL1        0.0350
      2  C         20.8730  -21.4960  -11.5670 C.2     1  UNL1        0.0310
      3  C         21.9190  -21.4820  -12.4960 C.2     1  UNL1        0.0270
      4  C         23.1040  -22.1620  -12.2110 C.2     1  UNL1        0.0750
      5  C         23.2430  -22.8710  -11.0160 C.2     1  UNL1        0.0270
      6  C         22.1900  -22.8830  -10.0980 C.2     1  UNL1        0.0310
      7  N         19.9930  -22.2540   -9.3760 N.am    1  UNL1       -0.3230
      8  C         18.7060  -22.7580   -9.4980 C.2     1  UNL1        0.2630
      9  O         18.2440  -23.2760  -10.5070 O.2     1  UNL1       -0.2670
     10  H         20.2560  -21.9400   -8.4510 H       1  UNL1        0.1690
     11  C         17.9390  -22.6260   -8.2640 C.ar    1  UNL1        0.0820
     12  S         16.2590  -22.9090   -8.3420 S.2     1  UNL1       -0.0640
     13  C         16.0730  -22.6720   -6.6730 C.ar    1  UNL1        0.1090
     14  N         14.8520  -22.8030   -6.1180 N.2     1  UNL1       -0.2530
     15  C         17.2660  -22.3520   -6.0250 C.ar    1  UNL1        0.0130
     16  C         14.8210  -22.5830   -4.7960 C.2     1  UNL1        0.1180
     17  C         15.9170  -22.2590   -4.0200 C.2     1  UNL1        0.0270
     18  C         17.1850  -22.1470   -4.6150 C.2     1  UNL1       -0.0470
     19  C         18.3530  -21.7940   -3.7350 C.3     1  UNL1        0.0490
     20  C         18.3640  -22.2850   -6.9840 C.ar    1  UNL1       -0.0260
     21  C         19.7650  -21.8830   -6.6430 C.3     1  UNL1        0.0500
     22  S         24.4370  -22.1670  -13.3870 S.O2    1  UNL1        0.2470
     23  O         24.9020  -23.5300  -13.5260 O.2     1  UNL1       -0.2050
     24  O         25.3250  -21.0870  -13.0220 O.2     1  UNL1       -0.2050
     25  N         23.5850  -21.8010  -14.8020 N.pl3   1  UNL1       -0.1570
     26  H         22.7390  -22.3760  -14.7860 H       1  UNL1        0.1480
     27  C         24.3350  -22.2110  -15.9790 C.2     1  UNL1        0.1820
     28  N         23.8440  -23.1270  -16.7800 N.2     1  UNL1       -0.1290
     29  N         24.6600  -23.3360  -17.8770 N.2     1  UNL1       -0.1530
     30  C         25.7050  -22.5360  -17.8660 C.2     1  UNL1        0.1930
     31  S         25.7620  -21.4550  -16.5340 S.3     1  UNL1       -0.0460
@<TRIPOS>BOND
     1    29    30    2
     2    29    28    1
     3    30    31    1
     4    28    27    2
     5    31    27    1
     6    27    25    1
     7    25    26    1
     8    25    22    1
     9    23    22    2
    10    22    24    2
    11    22     4    1
    12     3     4    2
    13     3     2    1
    14     4     5    1
    15     2     1    2
    16     5     6    2
    17     9     8    2
    18     1     6    1
    19     1     7    1
    20     8     7   am
    21     8    11    1
    22     7    10    1
    23    12    11   ar
    24    12    13   ar
    25    11    20   ar
    26    20    21    1
    27    20    15   ar
    28    13    14    2
    29    13    15   ar
    30    14    16    1
    31    15    18    2
    32    16    17    2
    33    18    17    1
    34    18    19    1
