@<TRIPOS>MOLECULE
21044_out_ligand_01.pdbqt
 35 38 0 0 0
SMALL
GASTEIGER

@<TRIPOS>ATOM
      1  C         20.9290  -22.3730  -10.2600 C.2     1  UNL1       -0.0340
      2  C         20.3670  -21.7010  -11.3570 C.2     1  UNL1        0.0090
      3  C         18.9840  -21.6320  -11.5080 C.2     1  UNL1        0.0030
      4  C         18.1490  -22.2360  -10.5680 C.2     1  UNL1        0.0290
      5  C         18.6830  -22.9190   -9.4690 C.2     1  UNL1        0.0350
      6  C         20.0710  -22.9830   -9.3250 C.2     1  UNL1        0.0380
      7  C         22.4370  -22.4740  -10.0820 C.3     1  UNL1        0.1150
      8  C         22.8410  -22.1410   -8.6410 C.3     1  UNL1        0.0370
      9  N         23.0940  -21.6080  -11.0530 N.am    1  UNL1       -0.3350
     10  C         23.7520  -22.1430  -12.1430 C.2     1  UNL1        0.3220
     11  O         23.8890  -23.3480  -12.3130 O.2     1  UNL1       -0.2470
     12  N         24.2220  -21.1530  -12.9660 N.am    1  UNL1       -0.2920
     13  H         24.1890  -20.1920  -12.6660 H       1  UNL1        0.1720
     14  H         22.6000  -20.7510  -11.2570 H       1  UNL1        0.1650
     15  C         24.8970  -21.3440  -14.1470 C.2     1  UNL1        0.1540
     16  C         25.4860  -22.5160  -14.6610 C.2     1  UNL1        0.0840
     17  C         26.0160  -22.1450  -15.8720 C.2     1  UNL1        0.0610
     18  C         26.7380  -22.8120  -16.9020 C.2     1  UNL1        0.0320
     19  N         25.7290  -20.7900  -16.0360 N.pl3   1  UNL1       -0.2430
     20  C         27.1190  -22.1230  -17.9950 C.2     1  UNL1        0.0040
     21  C         26.8110  -20.7100  -18.1490 C.2     1  UNL1        0.0190
     22  C         26.1300  -20.0850  -17.1750 C.2     1  UNL1        0.1190
     23  N         25.0390  -20.3050  -14.9730 N.2     1  UNL1       -0.1490
     24  N         17.7640  -23.5020   -8.5710 N.am    1  UNL1       -0.3270
     25  C         16.3810  -23.4460   -8.6160 C.2     1  UNL1        0.2260
     26  O         15.7110  -22.9050   -9.4930 O.2     1  UNL1       -0.2730
     27  H         18.1750  -23.9840   -7.7810 H       1  UNL1        0.1690
     28  C         15.6850  -24.2270   -7.5050 C.3     1  UNL1        0.1440
     29  C         15.8060  -23.6360   -6.1230 C.2     1  UNL1       -0.0110
     30  C         14.8230  -22.7760   -5.6150 C.2     1  UNL1        0.0110
     31  C         14.9450  -22.2490   -4.3270 C.2     1  UNL1        0.0010
     32  C         16.0470  -22.5730   -3.5360 C.2     1  UNL1        0.0030
     33  C         17.0330  -23.4230   -4.0340 C.2     1  UNL1        0.0430
     34  C         16.9070  -23.9440   -5.3180 C.2     1  UNL1        0.1230
     35  F         17.8610  -24.7620   -5.7800 F       1  UNL1       -0.2060
@<TRIPOS>BOND
     1    21    20    1
     2    21    22    2
     3    20    18    2
     4    22    19    1
     5    18    17    1
     6    19    17    1
     7    19    23    1
     8    17    16    2
     9    23    15    2
    10    16    15    1
    11    15    12    1
    12    12    13    1
    13    12    10   am
    14    11    10    2
    15    10     9   am
    16     3     2    1
    17     3     4    2
    18     2     1    2
    19    14     9    1
    20     9     7    1
    21     4     5    1
    22     1     7    1
    23     1     6    1
    24     7     8    1
    25    26    25    2
    26     5     6    2
    27     5    24    1
    28    25    24   am
    29    25    28    1
    30    24    27    1
    31    28    29    1
    32    29    30    2
    33    29    34    1
    34    35    34    1
    35    30    31    1
    36    34    33    2
    37    31    32    2
    38    33    32    1
