@<TRIPOS>MOLECULE
21047_out_ligand_01.pdbqt
 40 44 0 0 0
SMALL
GASTEIGER

@<TRIPOS>ATOM
      1  C         19.2590  -22.2710  -10.6190 C.2     1  UNL1        0.0320
      2  C         19.7690  -21.4800  -11.6580 C.2     1  UNL1        0.0190
      3  C         21.1120  -21.5930  -12.0280 C.2     1  UNL1        0.0310
      4  C         21.9440  -22.4980  -11.3670 C.2     1  UNL1        0.0420
      5  C         21.4390  -23.3020  -10.3470 C.2     1  UNL1        0.0310
      6  C         20.0980  -23.1910   -9.9750 C.2     1  UNL1        0.0190
      7  C         17.8330  -22.2010  -10.1960 C.2     1  UNL1        0.2510
      8  O         17.1100  -21.3080  -10.6250 O.2     1  UNL1       -0.2680
      9  N         17.3930  -23.1920   -9.3430 N.am    1  UNL1       -0.3570
     10  H         17.9730  -24.0020   -9.1790 H       1  UNL1        0.1620
     11  C         16.0010  -23.2660   -8.9310 C.3     1  UNL1        0.1270
     12  C         15.7490  -24.3750   -7.9040 C.3     1  UNL1        0.0600
     13  C         15.7000  -23.8450   -6.5050 C.2     1  UNL1       -0.0290
     14  C         14.6780  -24.0370   -5.5970 C.2     1  UNL1        0.0960
     15  N         15.0080  -23.4010   -4.4320 N.pl3   1  UNL1       -0.3650
     16  C         16.2350  -22.7930   -4.5550 C.2     1  UNL1        0.0450
     17  H         14.4350  -23.3780   -3.5990 H       1  UNL1        0.1650
     18  C         16.9660  -22.0390   -3.6290 C.2     1  UNL1        0.0720
     19  C         16.6940  -23.0510   -5.8490 C.2     1  UNL1       -0.0020
     20  C         18.1980  -21.5400   -4.0470 C.2     1  UNL1        0.1180
     21  F         18.9290  -20.8140   -3.1890 F       1  UNL1       -0.2060
     22  C         18.6910  -21.7720   -5.3240 C.2     1  UNL1        0.0430
     23  C         17.9470  -22.5280   -6.2370 C.2     1  UNL1        0.0170
     24  N         23.2960  -22.6510  -11.7720 N.pl3   1  UNL1       -0.2810
     25  H         23.5860  -23.5680  -12.1100 H       1  UNL1        0.1790
     26  S         24.4960  -21.9750  -10.7890 S.O2    1  UNL1        0.2630
     27  O         25.4080  -23.0540  -10.4740 O.2     1  UNL1       -0.2000
     28  O         23.8790  -21.1910   -9.7410 O.2     1  UNL1       -0.2000
     29  C         25.3370  -20.8780  -11.9060 C.2     1  UNL1        0.0820
     30  C         26.4380  -20.1240  -11.4280 C.2     1  UNL1        0.0280
     31  C         27.1180  -19.2410  -12.2750 C.2     1  UNL1        0.0330
     32  C         26.6550  -19.1480  -13.5670 C.ar    1  UNL1        0.0630
     33  N         27.1180  -18.3690  -14.6200 N.ar    1  UNL1       -0.3070
     34  C         25.5620  -19.8840  -14.0270 C.ar    1  UNL1        0.0640
     35  C         26.3190  -18.6120  -15.7480 C.ar    1  UNL1        0.3250
     36  H         27.8900  -17.7230  -14.6140 H       1  UNL1        0.1700
     37  O         26.4390  -18.1010  -16.8460 O.2     1  UNL1       -0.2470
     38  N         25.3570  -19.5580  -15.3620 N.ar    1  UNL1       -0.3060
     39  H         24.6480  -19.9160  -15.9800 H       1  UNL1        0.1700
     40  C         24.8700  -20.7570  -13.2230 C.2     1  UNL1        0.0570
@<TRIPOS>BOND
     1    37    35    2
     2    39    38    1
     3    35    38   ar
     4    35    33   ar
     5    38    34   ar
     6    33    36    1
     7    33    32   ar
     8    34    32   ar
     9    34    40    1
    10    32    31    1
    11    40    29    2
    12    31    30    2
    13    25    24    1
    14     3     2    1
    15     3     4    2
    16    29    30    1
    17    29    26    1
    18    24     4    1
    19    24    26    1
    20     2     1    2
    21     4     5    1
    22    26    27    2
    23    26    28    2
    24     8     7    2
    25     1     7    1
    26     1     6    1
    27     5     6    2
    28     7     9   am
    29     9    10    1
    30     9    11    1
    31    11    12    1
    32    12    13    1
    33    13    19    1
    34    13    14    2
    35    23    19    1
    36    23    22    2
    37    19    16    2
    38    14    15    1
    39    22    20    1
    40    16    15    1
    41    16    18    1
    42    15    17    1
    43    20    18    2
    44    20    21    1
