@<TRIPOS>MOLECULE
21065_out_ligand_01.pdbqt
 31 34 0 0 0
SMALL
GASTEIGER

@<TRIPOS>ATOM
      1  C         20.6670  -22.3350  -11.0420 C.2     1  UNL1        0.0350
      2  C         19.7470  -21.4870  -11.6590 C.2     1  UNL1        0.0300
      3  C         18.3920  -21.5350  -11.3110 C.2     1  UNL1        0.0110
      4  C         17.9330  -22.4320  -10.3380 C.2     1  UNL1       -0.0400
      5  C         18.8530  -23.2910   -9.7280 C.2     1  UNL1        0.0110
      6  C         20.2070  -23.2400  -10.0760 C.2     1  UNL1        0.0300
      7  C         16.4680  -22.4910   -9.9920 C.3     1  UNL1        0.1610
      8  N         16.2730  -22.3280   -8.5700 N.am    1  UNL1       -0.3530
      9  C         16.0010  -23.4010   -7.7510 C.2     1  UNL1        0.2520
     10  O         15.7940  -24.5420   -8.1430 O.2     1  UNL1       -0.2680
     11  H         16.6090  -21.4740   -8.1440 H       1  UNL1        0.1630
     12  C         16.0550  -23.1100   -6.2980 C.2     1  UNL1        0.0430
     13  C         14.9980  -23.6240   -5.5340 C.2     1  UNL1        0.0180
     14  C         14.9930  -23.4550   -4.1550 C.2     1  UNL1        0.0020
     15  C         16.0390  -22.7710   -3.5390 C.2     1  UNL1        0.0120
     16  C         17.0970  -22.2290   -4.2890 C.2     1  UNL1       -0.0250
     17  C         18.1310  -21.5270   -3.6470 C.2     1  UNL1        0.0120
     18  C         17.1170  -22.3810   -5.6980 C.2     1  UNL1       -0.0100
     19  C         19.1750  -20.9590   -4.3750 C.2     1  UNL1        0.0010
     20  C         19.1970  -21.0780   -5.7580 C.2     1  UNL1        0.0010
     21  C         18.1790  -21.7750   -6.4130 C.2     1  UNL1        0.0130
     22  N         22.0470  -22.3550  -11.3390 N.am    1  UNL1       -0.3230
     23  C         23.0680  -21.7780  -10.6070 C.2     1  UNL1        0.2560
     24  O         22.9730  -21.2000   -9.5320 O.2     1  UNL1       -0.2670
     25  H         22.3100  -22.9170  -12.1360 H       1  UNL1        0.1690
     26  C         24.4250  -21.9270  -11.1990 C.2     1  UNL1        0.0350
     27  C         25.4640  -21.0480  -10.8870 C.2     1  UNL1        0.0360
     28  C         26.6930  -21.2710  -11.4800 C.2     1  UNL1        0.1170
     29  N         26.9420  -22.2830  -12.3360 N.2     1  UNL1       -0.2730
     30  C         25.9230  -23.1310  -12.6000 C.2     1  UNL1        0.1170
     31  C         24.6590  -23.0010  -12.0580 C.2     1  UNL1        0.0360
@<TRIPOS>BOND
     1    30    29    2
     2    30    31    1
     3    29    28    1
     4    25    22    1
     5    31    26    2
     6     2     3    1
     7     2     1    2
     8    28    27    2
     9    22     1    1
    10    22    23   am
    11     3     4    2
    12    26    27    1
    13    26    23    1
    14     1     6    1
    15    23    24    2
    16     4     7    1
    17     4     5    1
    18     6     5    2
    19     7     8    1
    20     8    11    1
    21     8     9   am
    22    10     9    2
    23     9    12    1
    24    21    20    2
    25    21    18    1
    26    12    18    2
    27    12    13    1
    28    20    19    1
    29    18    16    1
    30    13    14    2
    31    19    17    2
    32    16    17    1
    33    16    15    2
    34    14    15    1
