@<TRIPOS>MOLECULE
21067_out_ligand_01.pdbqt
 29 31 0 0 0
SMALL
GASTEIGER

@<TRIPOS>ATOM
      1  C         21.9000  -22.2950   -8.6430 C.2     1  UNL1        0.2570
      2  O         22.7780  -21.7030   -8.0270 O.2     1  UNL1       -0.2670
      3  N         21.9440  -22.6980   -9.9670 N.am    1  UNL1       -0.3230
      4  H         21.0840  -23.0340  -10.3820 H       1  UNL1        0.1690
      5  C         20.6310  -22.5810   -7.9350 C.2     1  UNL1        0.0500
      6  C         20.1500  -21.6950   -6.9790 C.2     1  UNL1        0.0220
      7  C         18.9520  -21.9850   -6.3210 C.2     1  UNL1        0.0510
      8  C         18.2520  -23.1610   -6.6090 C.2     1  UNL1        0.1250
      9  N         18.7270  -24.0200   -7.5380 N.2     1  UNL1       -0.2420
     10  C         19.8970  -23.7310   -8.1620 C.2     1  UNL1        0.1360
     11  N         17.0440  -23.4460   -5.9660 N.pl3   1  UNL1       -0.3610
     12  C         15.9370  -22.5040   -6.2330 C.3     1  UNL1        0.1560
     13  C         14.8750  -22.5720   -5.1150 C.3     1  UNL1        0.1360
     14  C         13.7230  -21.6170   -5.3970 C.3     1  UNL1        0.0410
     15  O         15.4270  -22.2140   -3.8370 O.3     1  UNL1       -0.3780
     16  C         16.7050  -22.8200   -3.5600 C.3     1  UNL1        0.1360
     17  C         17.1270  -23.9130   -4.5680 C.3     1  UNL1        0.1560
     18  C         17.7360  -21.7040   -3.4240 C.3     1  UNL1        0.0410
     19  C         23.0400  -22.6000  -10.8510 C.2     1  UNL1        0.0350
     20  C         24.3380  -23.0040  -10.5360 C.2     1  UNL1        0.0290
     21  C         25.3670  -22.8910  -11.4760 C.2     1  UNL1        0.0030
     22  C         25.1100  -22.3670  -12.7430 C.2     1  UNL1        0.0170
     23  C         23.8180  -21.9490  -13.0690 C.2     1  UNL1        0.0340
     24  C         22.7870  -22.0780  -12.1260 C.2     1  UNL1        0.0460
     25  C         23.4760  -21.3850  -14.4020 C.2     1  UNL1        0.2490
     26  N         22.6590  -20.2900  -14.4380 N.am    1  UNL1       -0.3660
     27  H         22.3450  -20.0050  -15.3580 H       1  UNL1        0.1590
     28  H         22.0910  -20.0140  -13.6510 H       1  UNL1        0.1590
     29  O         23.8800  -21.8990  -15.4370 O.2     1  UNL1       -0.2680
@<TRIPOS>BOND
     1    29    25    2
     2    27    26    1
     3    26    25   am
     4    26    28    1
     5    25    23    1
     6    23    22    2
     7    23    24    1
     8    22    21    1
     9    24    19    2
    10    21    20    2
    11    19    20    1
    12    19     3    1
    13     4     3    1
    14     3     1   am
    15     1     2    2
    16     1     5    1
    17    10     5    2
    18    10     9    1
    19     5     6    1
    20     9     8    2
    21     6     7    2
    22     8     7    1
    23     8    11    1
    24    12    11    1
    25    12    13    1
    26    11    17    1
    27    14    13    1
    28    13    15    1
    29    17    16    1
    30    15    16    1
    31    16    18    1
