@<TRIPOS>MOLECULE
2106_out_ligand_01.pdbqt
 29 31 0 0 0
SMALL
GASTEIGER

@<TRIPOS>ATOM
      1  C         19.0630  -22.1550   -9.9000 C.2     1  UNL1        0.2760
      2  O         18.9740  -21.9880   -8.6870 O.2     1  UNL1       -0.2650
      3  N         17.9560  -22.2690  -10.7150 N.am    1  UNL1       -0.3550
      4  H         18.1460  -22.2140  -11.7120 H       1  UNL1        0.1620
      5  C         16.6170  -21.9780  -10.2450 C.3     1  UNL1        0.1270
      6  C         15.9110  -23.2130   -9.6810 C.3     1  UNL1        0.0580
      7  C         16.0160  -23.3260   -8.1760 C.2     1  UNL1       -0.0570
      8  C         16.7180  -24.3900   -7.5910 C.2     1  UNL1        0.0090
      9  C         16.8400  -24.4810   -6.2030 C.2     1  UNL1        0.0250
     10  C         16.2520  -23.5030   -5.3980 C.2     1  UNL1        0.0740
     11  C         15.5580  -22.4310   -5.9640 C.2     1  UNL1        0.0250
     12  C         15.4390  -22.3480   -7.3520 C.2     1  UNL1        0.0090
     13  S         16.4070  -23.5970   -3.6350 S.O2    1  UNL1        0.2390
     14  O         15.5680  -24.6710   -3.1540 O.2     1  UNL1       -0.2060
     15  O         17.8050  -23.4900   -3.2920 O.2     1  UNL1       -0.2060
     16  N         15.6420  -22.1760   -3.1540 N.3     1  UNL1       -0.2250
     17  H         14.9030  -22.3300   -2.4690 H       1  UNL1        0.1360
     18  H         16.3490  -21.5210   -2.8120 H       1  UNL1        0.1360
     19  C         20.3230  -22.2410  -10.6170 C.ar    1  UNL1        0.1500
     20  O         20.4760  -21.4980  -11.7580 O.2     1  UNL1       -0.3040
     21  C         21.7250  -21.7380  -12.2350 C.ar    1  UNL1        0.0870
     22  C         22.2710  -21.1660  -13.3800 C.2     1  UNL1        0.0390
     23  C         22.3920  -22.6360  -11.4140 C.ar    1  UNL1        0.0070
     24  C         23.5800  -21.5410  -13.7040 C.2     1  UNL1        0.0090
     25  C         24.2950  -22.4570  -12.9180 C.2     1  UNL1       -0.0610
     26  C         25.7100  -22.8120  -13.2770 C.3     1  UNL1        0.0480
     27  C         23.7090  -23.0010  -11.7590 C.2     1  UNL1        0.0210
     28  C         21.4820  -22.9620  -10.3610 C.ar    1  UNL1       -0.0090
     29  C         21.7140  -23.8810   -9.2180 C.3     1  UNL1        0.0520
@<TRIPOS>BOND
     1    24    22    1
     2    24    25    2
     3    22    21    2
     4    26    25    1
     5    25    27    1
     6    21    20   ar
     7    21    23   ar
     8    27    23    2
     9    20    19   ar
    10     4     3    1
    11    23    28   ar
    12     3     5    1
    13     3     1   am
    14    19    28   ar
    15    19     1    1
    16    28    29    1
    17     5     6    1
    18     1     2    2
    19     6     7    1
    20     7     8    2
    21     7    12    1
    22     8     9    1
    23    12    11    2
    24     9    10    2
    25    11    10    1
    26    10    13    1
    27    13    15    2
    28    13    16    1
    29    13    14    2
    30    16    18    1
    31    16    17    1
