@<TRIPOS>MOLECULE
21069_out_ligand_01.pdbqt
 31 34 0 0 0
SMALL
GASTEIGER

@<TRIPOS>ATOM
      1  C         15.4630  -22.8970   -9.5380 C.3     1  UNL1        0.0480
      2  C         16.6960  -22.3340  -10.1810 C.2     1  UNL1       -0.0610
      3  C         16.6220  -21.1730  -10.9560 C.2     1  UNL1        0.0090
      4  C         17.7630  -20.6130  -11.5410 C.2     1  UNL1        0.0310
      5  C         18.9870  -21.2500  -11.3150 C.ar    1  UNL1        0.0430
      6  N         20.2460  -20.9300  -11.7600 N.ar    1  UNL1       -0.3540
      7  C         21.1760  -21.8340  -11.3040 C.ar    1  UNL1        0.0500
      8  C         20.4970  -22.7630  -10.5220 C.ar    1  UNL1       -0.0180
      9  C         19.1100  -22.3970  -10.5360 C.ar    1  UNL1       -0.0000
     10  C         17.9440  -22.9430   -9.9570 C.2     1  UNL1        0.0210
     11  H         20.4610  -20.1320  -12.3390 H       1  UNL1        0.1660
     12  C         21.0870  -23.9510   -9.8230 C.3     1  UNL1        0.0510
     13  C         20.5980  -24.0610   -8.3830 C.3     1  UNL1        0.1070
     14  C         20.7350  -22.7470   -7.6440 C.2     1  UNL1        0.2180
     15  O         21.7610  -22.0770   -7.6320 O.2     1  UNL1       -0.2740
     16  N         19.5760  -22.3830   -6.9930 N.am    1  UNL1       -0.3570
     17  H         18.8310  -23.0620   -6.9160 H       1  UNL1        0.1620
     18  C         19.5280  -21.2430   -6.1070 C.3     1  UNL1        0.1640
     19  C         18.5030  -21.5080   -5.0660 C.2     1  UNL1       -0.0040
     20  C         17.3240  -22.2760   -5.1880 C.2     1  UNL1        0.1480
     21  N         16.6180  -22.3230   -4.0560 N.2     1  UNL1       -0.1870
     22  N         17.3340  -21.5690   -3.2050 N.pl3   1  UNL1       -0.2890
     23  C         18.4680  -21.0570   -3.7610 C.2     1  UNL1        0.1190
     24  H         16.9890  -21.4480   -2.2580 H       1  UNL1        0.1880
     25  C         22.5870  -21.7290  -11.6580 C.2     1  UNL1       -0.0090
     26  C         22.9760  -21.7010  -13.0050 C.2     1  UNL1        0.0150
     27  C         24.3270  -21.6140  -13.3480 C.2     1  UNL1        0.0200
     28  C         25.2920  -21.5540  -12.3430 C.2     1  UNL1        0.0110
     29 BR         27.1210  -21.4440  -12.8070 Br      1  UNL1       -0.0510
     30  C         24.9180  -21.5750  -11.0010 C.2     1  UNL1        0.0200
     31  C         23.5660  -21.6640  -10.6600 C.2     1  UNL1        0.0150
@<TRIPOS>BOND
     1    27    26    1
     2    27    28    2
     3    26    25    2
     4    29    28    1
     5    28    30    1
     6    11     6    1
     7     6     5   ar
     8     6     7   ar
     9    25     7    1
    10    25    31    1
    11     4     5    2
    12     4     3    1
    13     5     9   ar
    14     7     8   ar
    15    30    31    2
    16     3     2    2
    17     9     8   ar
    18     9    10    2
    19     8    12    1
    20     2    10    1
    21     2     1    1
    22    12    13    1
    23    13    14    1
    24    14    15    2
    25    14    16   am
    26    16    17    1
    27    16    18    1
    28    18    19    1
    29    20    19    1
    30    20    21    2
    31    19    23    2
    32    21    22    1
    33    23    22    1
    34    22    24    1
