@<TRIPOS>MOLECULE
21090_out_ligand_01.pdbqt
 27 30 0 0 0
SMALL
GASTEIGER

@<TRIPOS>ATOM
      1  C         20.5570  -23.0880   -9.9920 C.2     1  UNL1        0.0500
      2  C         21.3310  -23.7260   -9.0290 C.2     1  UNL1        0.1360
      3  N         22.6870  -23.7790   -9.0700 N.2     1  UNL1       -0.2410
      4  C         23.2830  -23.2000  -10.1350 C.ar    1  UNL1        0.1460
      5  N         24.6660  -23.2580  -10.1860 N.ar    1  UNL1       -0.2920
      6  C         25.4030  -22.7290  -11.1990 C.ar    1  UNL1        0.3280
      7  O         26.6280  -22.7920  -11.2130 O.2     1  UNL1       -0.2470
      8  N         24.7040  -22.1170  -12.2000 N.ar    1  UNL1       -0.2750
      9  C         23.3410  -21.9680  -12.2560 C.ar    1  UNL1        0.2630
     10  O         22.7790  -21.3640  -13.1610 O.2     1  UNL1       -0.2670
     11  C         22.5800  -22.5660  -11.1510 C.ar    1  UNL1        0.0790
     12  C         21.1890  -22.5110  -11.0900 C.2     1  UNL1        0.0390
     13  H         25.1470  -23.7270   -9.4320 H       1  UNL1        0.1720
     14  H         25.2460  -21.7100  -12.9490 H       1  UNL1        0.1730
     15  C         19.0900  -23.0980   -9.8980 C.2     1  UNL1        0.2550
     16  O         18.4720  -23.3580  -10.9270 O.2     1  UNL1       -0.2670
     17  N         18.4900  -22.8360   -8.6660 N.am    1  UNL1       -0.3430
     18  C         17.0330  -22.8370   -8.6270 C.3     1  UNL1        0.1310
     19  C         19.1320  -21.9950   -7.6550 C.3     1  UNL1        0.1650
     20  C         16.5150  -23.3080   -7.2710 C.3     1  UNL1        0.0600
     21  C         17.1790  -22.5980   -6.1130 C.2     1  UNL1       -0.0310
     22  C         16.6110  -22.5780   -4.8260 C.2     1  UNL1        0.0180
     23  C         18.4380  -21.9910   -6.3120 C.2     1  UNL1       -0.0330
     24 BR         14.9590  -23.4300   -4.4310 Br      1  UNL1       -0.0510
     25  C         17.2590  -21.9290   -3.7700 C.2     1  UNL1        0.0190
     26  C         18.4840  -21.3060   -3.9780 C.2     1  UNL1        0.0020
     27  C         19.0720  -21.3380   -5.2400 C.2     1  UNL1        0.0090
@<TRIPOS>BOND
     1    10     9    2
     2    14     8    1
     3     9     8   ar
     4     9    11   ar
     5     8     6   ar
     6     7     6    2
     7     6     5   ar
     8    11    12    1
     9    11     4   ar
    10    12     1    2
    11    16    15    2
    12     5     4   ar
    13     5    13    1
    14     4     3    1
    15     1    15    1
    16     1     2    1
    17    15    17   am
    18     3     2    2
    19    17    18    1
    20    17    19    1
    21    18    20    1
    22    19    23    1
    23    20    21    1
    24    23    21    2
    25    23    27    1
    26    21    22    1
    27    27    26    2
    28    22    24    1
    29    22    25    2
    30    26    25    1
