@<TRIPOS>MOLECULE
21104_out_ligand_01.pdbqt
 33 36 0 0 0
SMALL
GASTEIGER

@<TRIPOS>ATOM
      1  C         17.1810  -21.0510  -11.3620 C.3     1  UNL1        0.0500
      2  C         18.3860  -21.7710  -10.8180 C.2     1  UNL1       -0.0390
      3  C         19.6190  -21.5850  -11.4710 C.2     1  UNL1        0.0090
      4  C         20.7780  -22.2180  -11.0180 C.2     1  UNL1        0.0170
      5  C         20.7180  -23.0260   -9.8820 C.2     1  UNL1        0.0330
      6  C         19.5140  -23.2230   -9.2070 C.2     1  UNL1        0.0420
      7  C         18.3500  -22.5940   -9.6730 C.2     1  UNL1        0.0810
      8  C         21.9180  -23.7480   -9.4290 C.2     1  UNL1        0.2530
      9  O         21.7240  -24.8220   -8.8660 O.2     1  UNL1       -0.2670
     10  N         23.1770  -23.1820   -9.6490 N.am    1  UNL1       -0.3450
     11  C         24.2970  -23.8100   -8.9490 C.3     1  UNL1        0.1530
     12  C         23.3500  -21.7850  -10.0770 C.3     1  UNL1        0.2060
     13  C         24.6120  -21.5720  -10.8300 C.ar    1  UNL1        0.1520
     14  N         25.5380  -20.6730  -10.5530 N.ar    1  UNL1       -0.1320
     15  N         26.5540  -20.8030  -11.4700 N.ar    1  UNL1       -0.1300
     16  C         26.2390  -21.7880  -12.2830 C.ar    1  UNL1        0.1570
     17  C         26.9070  -22.3750  -13.3930 C.2     1  UNL1        0.0530
     18  N         25.0060  -22.3120  -11.9250 N.ar    1  UNL1       -0.2900
     19  C         26.3360  -23.4110  -14.0390 C.2     1  UNL1        0.0050
     20  C         25.0400  -23.9380  -13.6390 C.2     1  UNL1        0.0180
     21  C         24.4050  -23.3780  -12.5950 C.2     1  UNL1        0.1000
     22  S         16.8390  -22.8860   -8.7610 S.O2    1  UNL1        0.2460
     23  O         15.9100  -23.5690   -9.6360 O.2     1  UNL1       -0.2060
     24  O         16.4790  -21.6520   -8.0940 O.2     1  UNL1       -0.2060
     25  N         17.3990  -23.9420   -7.5400 N.pl3   1  UNL1       -0.1810
     26  H         18.4180  -23.9800   -7.6200 H       1  UNL1        0.1460
     27  C         17.0070  -23.5460   -6.2150 C.2     1  UNL1        0.0240
     28  C         15.7260  -23.8660   -5.7610 C.2     1  UNL1        0.0240
     29  C         15.3120  -23.4520   -4.4960 C.2     1  UNL1        0.0030
     30  C         16.1740  -22.7050   -3.6920 C.2     1  UNL1        0.0240
     31  C         17.4420  -22.3700   -4.1620 C.2     1  UNL1        0.0350
     32 CL         18.4950  -21.4350   -3.1720 Cl      1  UNL1       -0.0840
     33  C         17.8650  -22.7800   -5.4250 C.2     1  UNL1        0.0480
@<TRIPOS>BOND
     1    19    20    1
     2    19    17    2
     3    20    21    2
     4    17    16    1
     5    21    18    1
     6    16    18   ar
     7    16    15   ar
     8    18    13   ar
     9     3     4    1
    10     3     2    2
    11    15    14   ar
    12     1     2    1
    13     4     5    2
    14    13    14   ar
    15    13    12    1
    16     2     7    1
    17    12    10    1
    18     5     8    1
    19     5     6    1
    20     7     6    2
    21     7    22    1
    22    10     8   am
    23    10    11    1
    24    23    22    2
    25     8     9    2
    26    22    24    2
    27    22    25    1
    28    26    25    1
    29    25    27    1
    30    27    28    2
    31    27    33    1
    32    28    29    1
    33    33    31    2
    34    29    30    2
    35    31    30    1
    36    31    32    1
