@<TRIPOS>MOLECULE
21109_out_ligand_01.pdbqt
 31 33 0 0 0
SMALL
GASTEIGER

@<TRIPOS>ATOM
      1  N         22.2500  -22.2370  -10.1420 N.am    1  UNL1       -0.3270
      2  C         22.1130  -23.3060   -9.2720 C.2     1  UNL1        0.2270
      3  O         23.0060  -24.0860   -8.9530 O.2     1  UNL1       -0.2730
      4  H         21.4490  -21.6320  -10.2590 H       1  UNL1        0.1690
      5  C         20.7240  -23.4370   -8.6390 C.3     1  UNL1        0.0860
      6  C         20.3290  -22.0770   -8.0360 C.3     1  UNL1        0.0520
      7  C         19.4590  -22.1920   -6.8080 C.2     1  UNL1       -0.0570
      8  C         18.6740  -23.3340   -6.6010 C.2     1  UNL1        0.0070
      9  C         17.8610  -23.4400   -5.4710 C.2     1  UNL1        0.0010
     10  C         17.8250  -22.4060   -4.5380 C.2     1  UNL1        0.0000
     11  C         18.6050  -21.2680   -4.7310 C.2     1  UNL1        0.0010
     12  C         19.4190  -21.1600   -5.8600 C.2     1  UNL1        0.0070
     13  C         19.6680  -23.9690   -9.6260 C.3     1  UNL1        0.0520
     14  C         18.7880  -22.8860  -10.2030 C.2     1  UNL1       -0.0570
     15  C         19.2870  -21.9860  -11.1520 C.2     1  UNL1        0.0070
     16  C         18.4640  -20.9940  -11.6900 C.2     1  UNL1        0.0010
     17  C         17.1350  -20.8930  -11.2810 C.2     1  UNL1        0.0000
     18  C         16.6280  -21.7830  -10.3360 C.2     1  UNL1        0.0010
     19  C         17.4500  -22.7750   -9.7990 C.2     1  UNL1        0.0070
     20  C         23.3910  -21.8820  -10.8930 C.2     1  UNL1        0.0350
     21  C         23.2770  -21.9410  -12.2890 C.2     1  UNL1        0.0490
     22  C         24.3610  -21.6120  -13.1200 C.2     1  UNL1        0.0720
     23  C         25.5640  -21.2250  -12.5360 C.2     1  UNL1        0.1320
     24  C         25.6940  -21.1670  -11.1530 C.2     1  UNL1        0.0450
     25  F         26.6310  -20.9020  -13.2840 F       1  UNL1       -0.2050
     26  C         24.6100  -21.4960  -10.3330 C.2     1  UNL1        0.0320
     27  C         24.1620  -21.6970  -14.5900 C.2     1  UNL1        0.2520
     28  N         23.6250  -20.6220  -15.2360 N.am    1  UNL1       -0.3660
     29  H         23.4910  -20.6840  -16.2350 H       1  UNL1        0.1590
     30  H         23.3550  -19.7690  -14.7620 H       1  UNL1        0.1590
     31  O         24.4730  -22.7060  -15.2130 O.2     1  UNL1       -0.2680
@<TRIPOS>BOND
     1    29    28    1
     2    28    30    1
     3    28    27   am
     4    31    27    2
     5    27    22    1
     6    25    23    1
     7    22    23    2
     8    22    21    1
     9    23    24    1
    10    21    20    2
    11    16    17    2
    12    16    15    1
    13    17    18    1
    14    24    26    2
    15    15    14    2
    16    20    26    1
    17    20     1    1
    18    18    19    2
    19     4     1    1
    20    14    19    1
    21    14    13    1
    22     1     2   am
    23    13     5    1
    24     2     3    2
    25     2     5    1
    26     5     6    1
    27     6     7    1
    28     7     8    2
    29     7    12    1
    30     8     9    1
    31    12    11    2
    32     9    10    2
    33    11    10    1
