@<TRIPOS>MOLECULE
21118_out_ligand_01.pdbqt
 36 40 0 0 0
SMALL
GASTEIGER

@<TRIPOS>ATOM
      1  O         23.1750  -23.6520  -10.9780 O.2     1  UNL1       -0.2680
      2  C         22.6840  -22.5630  -10.6970 C.2     1  UNL1        0.2510
      3  N         23.4250  -21.4080  -10.5720 N.am    1  UNL1       -0.3530
      4  H         23.0140  -20.6010  -10.1250 H       1  UNL1        0.1630
      5  C         21.2250  -22.4560  -10.4170 C.2     1  UNL1        0.0320
      6  C         20.3280  -21.8850  -11.3290 C.2     1  UNL1        0.0180
      7  C         18.9660  -21.8090  -11.0180 C.2     1  UNL1        0.0190
      8  C         18.4940  -22.3060   -9.7970 C.2     1  UNL1        0.0450
      9  C         19.3840  -22.8900   -8.8860 C.2     1  UNL1       -0.0380
     10  C         17.0380  -22.2480   -9.4980 C.2     1  UNL1        0.2940
     11  C         20.7450  -22.9750   -9.2040 C.2     1  UNL1        0.0250
     12  C         18.8420  -23.4570   -7.6050 C.3     1  UNL1        0.0770
     13  C         17.6450  -22.6070   -7.1800 C.3     1  UNL1        0.1690
     14  O         16.6620  -22.5940   -8.2400 O.3     1  UNL1       -0.3070
     15  O         16.2280  -21.9240  -10.3580 O.2     1  UNL1       -0.2590
     16  C         16.9360  -23.0360   -5.9050 C.2     1  UNL1       -0.0290
     17  C         15.5900  -23.4280   -5.8580 C.2     1  UNL1        0.0100
     18  C         15.0010  -23.8240   -4.6520 C.2     1  UNL1        0.0010
     19  C         15.7460  -23.8350   -3.4750 C.2     1  UNL1        0.0000
     20  C         17.0820  -23.4450   -3.5010 C.2     1  UNL1        0.0010
     21  C         17.6700  -23.0480   -4.7030 C.2     1  UNL1        0.0100
     22  C         24.8670  -21.4290  -10.6880 C.3     1  UNL1        0.1620
     23  C         25.3020  -21.1290  -12.0930 C.2     1  UNL1       -0.0230
     24  C         24.3790  -20.9620  -13.1290 C.2     1  UNL1        0.0140
     25  C         24.8320  -20.6780  -14.4150 C.2     1  UNL1        0.0590
     26  C         26.2000  -20.5450  -14.6170 C.2     1  UNL1        0.1690
     27  N         27.1210  -20.7050  -13.6420 N.2     1  UNL1       -0.2360
     28  C         26.6530  -20.9870  -12.4060 C.2     1  UNL1        0.1280
     29  O         26.6980  -20.3160  -15.8820 O.2     1  UNL1       -0.2920
     30  C         26.5600  -19.0300  -16.3560 C.2     1  UNL1        0.0800
     31  C         26.1100  -18.7420  -17.6510 C.2     1  UNL1        0.0370
     32  C         25.9650  -17.4130  -18.0580 C.2     1  UNL1        0.0060
     33  C         26.2560  -16.3770  -17.1700 C.2     1  UNL1        0.0420
     34  C         26.6790  -16.6780  -15.8790 C.2     1  UNL1        0.1190
     35  F         26.9500  -15.6820  -15.0240 F       1  UNL1       -0.2060
     36  C         26.8260  -17.9960  -15.4590 C.2     1  UNL1        0.0790
@<TRIPOS>BOND
     1    32    31    1
     2    32    33    2
     3    31    30    2
     4    33    34    1
     5    30    29    1
     6    30    36    1
     7    29    26    1
     8    34    36    2
     9    34    35    1
    10    26    25    1
    11    26    27    2
    12    25    24    2
    13    27    28    1
    14    24    23    1
    15    28    23    2
    16    23    22    1
    17     6     7    1
    18     6     5    2
    19     7     8    2
    20     1     2    2
    21     2     3   am
    22     2     5    1
    23    22     3    1
    24     3     4    1
    25     5    11    1
    26    15    10    2
    27     8    10    1
    28     8     9    1
    29    10    14    1
    30    11     9    2
    31     9    12    1
    32    14    13    1
    33    12    13    1
    34    13    16    1
    35    16    17    2
    36    16    21    1
    37    17    18    1
    38    21    20    2
    39    18    19    2
    40    20    19    1
