@<TRIPOS>MOLECULE
21127_out_ligand_01.pdbqt
 28 30 0 0 0
SMALL
GASTEIGER

@<TRIPOS>ATOM
      1  N         21.8180  -22.6800   -9.8860 N.am    1  UNL1       -0.3230
      2  C         23.1240  -23.1330   -9.8350 C.2     1  UNL1        0.2560
      3  O         23.6530  -23.7480   -8.9160 O.2     1  UNL1       -0.2670
      4  H         21.5620  -22.0900  -10.6670 H       1  UNL1        0.1690
      5  C         20.8020  -22.8920   -8.9310 C.2     1  UNL1        0.0350
      6  C         20.6910  -21.9600   -7.8950 C.2     1  UNL1        0.0390
      7  C         19.6990  -22.0820   -6.9010 C.2     1  UNL1       -0.0290
      8  C         19.7030  -21.0710   -5.7800 C.3     1  UNL1        0.0420
      9  C         18.7800  -23.1490   -6.9440 C.2     1  UNL1        0.0430
     10  C         18.4340  -21.1150   -4.9480 C.3     1  UNL1        0.0250
     11  C         18.0600  -22.5590   -4.6720 C.3     1  UNL1        0.1320
     12  N         17.7800  -23.2660   -5.9240 N.am    1  UNL1       -0.3180
     13  C         16.6200  -24.0360   -5.9590 C.2     1  UNL1        0.2200
     14  C         15.9900  -24.3590   -7.2920 C.3     1  UNL1        0.1170
     15  O         16.0360  -24.3950   -4.9310 O.2     1  UNL1       -0.2730
     16  C         18.9310  -24.0960   -7.9630 C.2     1  UNL1        0.0320
     17  C         19.9180  -23.9630   -8.9510 C.2     1  UNL1        0.0320
     18  C         23.9610  -22.7870  -11.0190 C.2     1  UNL1        0.0330
     19  C         25.3450  -22.9880  -10.9400 C.2     1  UNL1        0.0170
     20  C         26.1670  -22.6700  -12.0230 C.2     1  UNL1        0.0020
     21  C         25.6090  -22.1620  -13.1970 C.2     1  UNL1        0.0170
     22  C         24.2230  -21.9880  -13.2950 C.2     1  UNL1        0.0320
     23  C         23.4000  -22.2990  -12.2040 C.2     1  UNL1        0.0340
     24  C         23.5780  -21.4500  -14.5200 C.2     1  UNL1        0.2490
     25  N         22.7280  -20.3900  -14.3770 N.am    1  UNL1       -0.3660
     26  H         22.7190  -19.8120  -13.5490 H       1  UNL1        0.1590
     27  H         22.4020  -19.9660  -15.2370 H       1  UNL1        0.1590
     28  O         23.8230  -21.9210  -15.6240 O.2     1  UNL1       -0.2680
@<TRIPOS>BOND
     1    28    24    2
     2    27    25    1
     3    24    25   am
     4    24    22    1
     5    25    26    1
     6    22    21    2
     7    22    23    1
     8    21    20    1
     9    23    18    2
    10    20    19    2
    11    18    19    1
    12    18     2    1
    13     4     1    1
    14     1     2   am
    15     1     5    1
    16     2     3    2
    17    17     5    2
    18    17    16    1
    19     5     6    1
    20    16     9    2
    21     6     7    2
    22    14    13    1
    23     9     7    1
    24     9    12    1
    25     7     8    1
    26    13    12   am
    27    13    15    2
    28    12    11    1
    29     8    10    1
    30    10    11    1
