@<TRIPOS>MOLECULE
21136_out_ligand_01.pdbqt
 29 31 0 0 0
SMALL
GASTEIGER

@<TRIPOS>ATOM
      1  N         19.6950  -22.6020   -8.4430 N.am    1  UNL1       -0.3230
      2  C         19.2310  -22.4200   -9.7330 C.2     1  UNL1        0.2560
      3  O         18.0680  -22.4780  -10.1130 O.2     1  UNL1       -0.2670
      4  H         20.6970  -22.6410   -8.3140 H       1  UNL1        0.1690
      5  C         20.2860  -22.1630  -10.7540 C.2     1  UNL1        0.0340
      6  C         20.0020  -21.2680  -11.7960 C.2     1  UNL1        0.0180
      7  C         20.9640  -20.9960  -12.7690 C.2     1  UNL1        0.0200
      8  C         22.2130  -21.6170  -12.6870 C.ar    1  UNL1        0.0610
      9  C         23.2620  -21.3590  -13.6920 C.ar    1  UNL1        0.2600
     10  C         22.5190  -22.5010  -11.6440 C.ar    1  UNL1        0.0760
     11  O         23.0810  -20.6100  -14.6420 O.2     1  UNL1       -0.2670
     12  N         24.4450  -22.0160  -13.4890 N.ar    1  UNL1       -0.3020
     13  C         24.6450  -22.8570  -12.4420 C.ar    1  UNL1        0.1670
     14  H         25.1880  -21.8630  -14.1550 H       1  UNL1        0.1710
     15  N         23.7710  -23.1320  -11.5340 N.ar    1  UNL1       -0.2240
     16  C         21.5500  -22.7660  -10.6740 C.2     1  UNL1        0.0500
     17  S         26.2200  -23.5680  -12.4120 S.3     1  UNL1       -0.1050
     18  H         26.2340  -23.7730  -11.0880 H       1  UNL1        0.1100
     19  C         18.9250  -22.8280   -7.2820 C.2     1  UNL1        0.0350
     20  C         18.9340  -21.8240   -6.3040 C.2     1  UNL1        0.0300
     21  C         18.1930  -21.9640   -5.1230 C.2     1  UNL1        0.0190
     22  C         17.4260  -23.1130   -4.9120 C.2     1  UNL1        0.0320
     23  C         17.4230  -24.1230   -5.8800 C.2     1  UNL1        0.0190
     24  C         18.1640  -23.9770   -7.0600 C.2     1  UNL1        0.0300
     25  C         16.6230  -23.3140   -3.6760 C.2     1  UNL1        0.2490
     26  N         15.9810  -22.2230   -3.1580 N.am    1  UNL1       -0.3660
     27  H         15.3370  -22.4190   -2.4020 H       1  UNL1        0.1590
     28  H         15.8010  -21.3980   -3.7120 H       1  UNL1        0.1590
     29  O         16.5060  -24.4140   -3.1540 O.2     1  UNL1       -0.2680
@<TRIPOS>BOND
     1    11     9    2
     2    14    12    1
     3     9    12   ar
     4     9     8   ar
     5    12    13   ar
     6     7     8    2
     7     7     6    1
     8     8    10   ar
     9    13    17    1
    10    13    15   ar
    11    17    18    1
    12     6     5    2
    13    10    15   ar
    14    10    16    2
    15     5    16    1
    16     5     2    1
    17     3     2    2
    18     2     1   am
    19     1     4    1
    20     1    19    1
    21    19    24    2
    22    19    20    1
    23    24    23    1
    24    20    21    2
    25    23    22    2
    26    21    22    1
    27    22    25    1
    28    28    26    1
    29    25    26   am
    30    25    29    2
    31    26    27    1
