@<TRIPOS>MOLECULE
21138_out_ligand_01.pdbqt
 36 40 0 0 0
SMALL
GASTEIGER

@<TRIPOS>ATOM
      1  N         26.2960  -26.7280  -15.5080 N.1     1  UNL1       -0.1910
      2  C         25.9540  -25.6210  -15.4400 C.1     1  UNL1        0.0990
      3  C         25.5270  -24.2540  -15.3760 C.2     1  UNL1        0.0450
      4  C         25.0990  -23.5980  -16.5320 C.2     1  UNL1        0.0220
      5  C         24.6960  -22.2660  -16.4660 C.2     1  UNL1        0.0020
      6  C         24.7170  -21.5910  -15.2430 C.2     1  UNL1        0.0100
      7  C         25.1320  -22.2270  -14.0590 C.2     1  UNL1       -0.0290
      8  C         25.5430  -23.5690  -14.1550 C.2     1  UNL1        0.0320
      9  C         25.1690  -21.4890  -12.7280 C.3     1  UNL1        0.0600
     10  C         26.5170  -21.0140  -12.2060 C.3     1  UNL1        0.0390
     11  C         25.5320  -20.0150  -12.7210 C.3     1  UNL1        0.0390
     12  N         24.2230  -21.9820  -11.7730 N.am    1  UNL1       -0.3420
     13  C         22.8540  -21.8930  -11.9230 C.2     1  UNL1        0.2710
     14  O         22.2790  -21.3500  -12.8610 O.2     1  UNL1       -0.2660
     15  H         24.5570  -22.4880  -10.9550 H       1  UNL1        0.1640
     16  C         22.0850  -22.5340  -10.8110 C.2     1  UNL1        0.1250
     17  C         22.7300  -23.3680   -9.9060 C.2     1  UNL1        0.0370
     18  C         21.9700  -23.9630   -8.9040 C.2     1  UNL1        0.0050
     19  C         20.6020  -23.7020   -8.8370 C.2     1  UNL1        0.0370
     20  C         20.0410  -22.8380   -9.7740 C.2     1  UNL1        0.1250
     21  N         20.7580  -22.2510  -10.7660 N.2     1  UNL1       -0.2380
     22  C         18.5770  -22.5070   -9.7570 C.2     1  UNL1        0.2710
     23  O         18.1650  -21.5660  -10.4270 O.2     1  UNL1       -0.2660
     24  N         17.7920  -23.3070   -8.9370 N.am    1  UNL1       -0.3420
     25  H         18.2710  -23.9380   -8.3050 H       1  UNL1        0.1640
     26  C         16.3670  -23.1990   -8.7250 C.3     1  UNL1        0.0600
     27  C         15.4980  -22.4260   -9.6990 C.3     1  UNL1        0.0390
     28  C         15.3640  -23.9160   -9.6110 C.3     1  UNL1        0.0390
     29  C         16.0290  -23.1020   -7.2370 C.2     1  UNL1       -0.0290
     30  C         14.9140  -22.3730   -6.7850 C.2     1  UNL1        0.0100
     31  C         14.6150  -22.2640   -5.4240 C.2     1  UNL1        0.0020
     32  C         15.4360  -22.8780   -4.4790 C.2     1  UNL1        0.0220
     33  C         16.5550  -23.5990   -4.8970 C.2     1  UNL1        0.0450
     34  C         17.4100  -24.2260   -3.9310 C.1     1  UNL1        0.0990
     35  C         16.8460  -23.7040   -6.2630 C.2     1  UNL1        0.0320
     36  N         18.1100  -24.7300   -3.1550 N.1     1  UNL1       -0.1910
@<TRIPOS>BOND
     1     4     5    1
     2     4     3    2
     3     5     6    2
     4     1     2    3
     5     2     3    1
     6     3     8    1
     7     6     7    1
     8     8     7    2
     9     7     9    1
    10    14    13    2
    11     9    11    1
    12     9    10    1
    13     9    12    1
    14    11    10    1
    15    13    12   am
    16    13    16    1
    17    12    15    1
    18    16    21    2
    19    16    17    1
    20    21    20    1
    21    23    22    2
    22    17    18    2
    23    20    22    1
    24    20    19    2
    25    22    24   am
    26    27    28    1
    27    27    26    1
    28    28    26    1
    29    24    26    1
    30    24    25    1
    31    18    19    1
    32    26    29    1
    33    29    30    2
    34    29    35    1
    35    30    31    1
    36    35    33    2
    37    31    32    2
    38    33    32    1
    39    33    34    1
    40    34    36    3
