@<TRIPOS>MOLECULE
2113_out_ligand_01.pdbqt
 33 36 0 0 0
SMALL
GASTEIGER

@<TRIPOS>ATOM
      1  C         20.8890  -23.0240   -9.7280 C.2     1  UNL1        0.0320
      2  C         22.1890  -23.5360   -9.7190 C.2     1  UNL1        0.0190
      3  C         23.0840  -23.1840  -10.7370 C.2     1  UNL1        0.0310
      4  C         22.7000  -22.3100  -11.7600 C.2     1  UNL1        0.0420
      5  C         21.3850  -21.8390  -11.7860 C.2     1  UNL1        0.0310
      6  C         20.4850  -22.1890  -10.7740 C.2     1  UNL1        0.0190
      7  N         23.6480  -22.0740  -12.7980 N.pl3   1  UNL1       -0.2810
      8  H         23.5930  -22.6240  -13.6540 H       1  UNL1        0.1790
      9  S         25.2300  -21.5470  -12.5170 S.O2    1  UNL1        0.2650
     10  O         26.0280  -22.7540  -12.5910 O.2     1  UNL1       -0.2000
     11  O         25.1860  -20.7300  -11.3240 O.2     1  UNL1       -0.2000
     12  C         25.6220  -20.5860  -13.9530 C.2     1  UNL1        0.1090
     13  C         26.1820  -19.3070  -13.7830 C.2     1  UNL1        0.0280
     14  C         26.5310  -18.5510  -14.8930 C.2     1  UNL1        0.0030
     15  C         26.3160  -19.0690  -16.1650 C.2     1  UNL1        0.0140
     16  C         25.7380  -20.3390  -16.3320 C.2     1  UNL1       -0.0060
     17  C         25.5140  -20.8490  -17.6190 C.2     1  UNL1        0.0150
     18  C         25.3690  -21.1250  -15.2150 C.2     1  UNL1        0.0900
     19  C         24.9350  -22.0980  -17.7810 C.2     1  UNL1        0.0200
     20  C         24.5920  -22.7970  -16.6450 C.2     1  UNL1        0.1170
     21  N         24.7920  -22.3340  -15.3940 N.2     1  UNL1       -0.2590
     22  C         19.8970  -23.3760   -8.6720 C.2     1  UNL1        0.2560
     23  N         19.1680  -22.3080   -8.1840 N.am    1  UNL1       -0.3230
     24  H         19.2980  -21.4160   -8.6400 H       1  UNL1        0.1690
     25  O         19.7960  -24.5540   -8.3510 O.2     1  UNL1       -0.2670
     26  C         18.1840  -22.3310   -7.1710 C.2     1  UNL1        0.0350
     27  C         16.8590  -22.5060   -7.5740 C.2     1  UNL1        0.0300
     28  C         15.8250  -22.5340   -6.6350 C.2     1  UNL1        0.0090
     29  C         16.0960  -22.3880   -5.2670 C.2     1  UNL1       -0.0560
     30  C         14.9620  -22.4200   -4.2810 C.3     1  UNL1        0.0490
     31  C         17.4290  -22.2120   -4.8510 C.2     1  UNL1       -0.0540
     32  C         18.4590  -22.1790   -5.8110 C.2     1  UNL1        0.0370
     33  C         17.7800  -22.0520   -3.3960 C.3     1  UNL1        0.0490
@<TRIPOS>BOND
     1    19    17    2
     2    19    20    1
     3    17    16    1
     4    20    21    2
     5    16    15    2
     6    16    18    1
     7    15    14    1
     8    21    18    1
     9    18    12    2
    10    14    13    2
    11    12    13    1
    12    12     9    1
    13     8     7    1
    14     7     9    1
    15     7     4    1
    16    10     9    2
    17     9    11    2
    18     5     4    2
    19     5     6    1
    20     4     3    1
    21     6     1    2
    22     3     2    2
    23     1     2    1
    24     1    22    1
    25    22    25    2
    26    22    23   am
    27    24    23    1
    28    23    26    1
    29    27    26    2
    30    27    28    1
    31    26    32    1
    32    28    29    2
    33    32    31    2
    34    29    31    1
    35    29    30    1
    36    31    33    1
