@<TRIPOS>MOLECULE
21133_out_ligand_01.pdbqt
 34 37 0 0 0
SMALL
GASTEIGER

@<TRIPOS>ATOM
      1  C         23.5300  -22.3600   -8.8600 C.3     1  UNL1        0.2780
      2  C         22.1820  -23.0540   -8.6250 C.2     1  UNL1        0.2410
      3  O         21.8920  -24.1500   -9.0980 O.2     1  UNL1       -0.2710
      4  N         21.3210  -22.3290   -7.8230 N.am    1  UNL1       -0.3590
      5  H         21.6840  -21.5500   -7.2840 H       1  UNL1        0.1620
      6  C         20.0250  -22.8560   -7.4260 C.3     1  UNL1        0.1270
      7  C         18.9820  -21.7660   -7.1360 C.3     1  UNL1        0.0590
      8  C         18.3360  -21.8960   -5.7660 C.2     1  UNL1       -0.0450
      9  C         18.9790  -21.2600   -4.6870 C.2     1  UNL1        0.0080
     10  C         18.4410  -21.3080   -3.4070 C.2     1  UNL1        0.0010
     11  C         17.2500  -21.9930   -3.1840 C.2     1  UNL1        0.0120
     12  C         16.5830  -22.6410   -4.2320 C.2     1  UNL1       -0.0250
     13  C         15.3830  -23.3280   -3.9780 C.2     1  UNL1        0.0120
     14  C         17.1200  -22.6050   -5.5450 C.2     1  UNL1       -0.0200
     15  C         14.6990  -23.9820   -4.9990 C.2     1  UNL1        0.0010
     16  C         15.2110  -23.9610   -6.2890 C.2     1  UNL1        0.0010
     17  C         16.4060  -23.2860   -6.5580 C.2     1  UNL1        0.0130
     18  O         23.4920  -21.3910   -9.9100 O.2     1  UNL1       -0.3410
     19  C         24.1170  -21.7950  -11.0640 C.2     1  UNL1        0.0850
     20  C         25.4620  -22.1900  -11.0420 C.2     1  UNL1        0.0380
     21  C         26.0970  -22.5920  -12.2190 C.2     1  UNL1        0.0030
     22  C         25.3860  -22.6170  -13.4230 C.2     1  UNL1        0.0010
     23  C         24.0350  -22.2640  -13.4440 C.2     1  UNL1        0.0200
     24  C         23.3780  -21.8700  -12.2630 C.2     1  UNL1        0.0650
     25  C         21.9170  -21.5410  -12.3780 C.2     1  UNL1        0.2590
     26  O         21.5300  -20.9640  -13.3940 O.2     1  UNL1       -0.2670
     27  N         21.1270  -21.9430  -11.3190 N.am    1  UNL1       -0.3230
     28  H         21.6160  -22.3740  -10.5400 H       1  UNL1        0.1690
     29  C         19.7310  -21.8040  -11.1740 C.2     1  UNL1        0.0350
     30  C         19.0130  -20.6590  -11.5310 C.2     1  UNL1        0.0290
     31  C         17.6240  -20.6050  -11.3570 C.2     1  UNL1        0.0020
     32  C         16.9420  -21.6970  -10.8250 C.2     1  UNL1        0.0000
     33  C         17.6470  -22.8450  -10.4660 C.2     1  UNL1        0.0020
     34  C         19.0340  -22.8980  -10.6410 C.2     1  UNL1        0.0290
@<TRIPOS>BOND
     1    23    22    2
     2    23    24    1
     3    22    21    1
     4    26    25    2
     5    25    24    1
     6    25    27   am
     7    24    19    2
     8    21    20    2
     9    30    31    1
    10    30    29    2
    11    31    32    2
    12    27    29    1
    13    27    28    1
    14    29    34    1
    15    19    20    1
    16    19    18    1
    17    32    33    1
    18    34    33    2
    19    18     1    1
    20     3     2    2
    21     1     2    1
    22     2     4   am
    23     4     6    1
    24     4     5    1
    25     6     7    1
    26     7     8    1
    27    17    16    2
    28    17    14    1
    29    16    15    1
    30     8    14    2
    31     8     9    1
    32    14    12    1
    33    15    13    2
    34     9    10    2
    35    12    13    1
    36    12    11    2
    37    10    11    1
