@<TRIPOS>MOLECULE
21132_out_ligand_01.pdbqt
 27 29 0 0 0
SMALL
GASTEIGER

@<TRIPOS>ATOM
      1  C         19.6150  -22.0890   -6.6670 C.2     1  UNL1        0.2560
      2  O         19.6610  -21.0130   -6.0840 O.2     1  UNL1       -0.2670
      3  N         18.6030  -23.0240   -6.5980 N.am    1  UNL1       -0.3220
      4  H         18.6440  -23.8250   -7.2180 H       1  UNL1        0.1690
      5  C         17.4050  -22.9630   -5.8440 C.2     1  UNL1        0.0510
      6  C         17.3430  -22.4500   -4.5460 C.2     1  UNL1        0.0310
      7  C         16.1230  -22.3770   -3.8670 C.2     1  UNL1        0.0020
      8  C         14.9510  -22.8100   -4.4810 C.2     1  UNL1        0.0020
      9  C         14.9980  -23.3340   -5.7710 C.2     1  UNL1        0.0210
     10  C         16.2200  -23.4410   -6.4480 C.2     1  UNL1        0.0270
     11  S         16.2280  -24.1310   -8.1080 S.3     1  UNL1       -0.1230
     12  C         16.9230  -22.7650   -9.1080 C.3     1  UNL1        0.0520
     13  C         18.0200  -23.1360  -10.0990 C.3     1  UNL1        0.0150
     14  C         18.1650  -21.8810  -10.9590 C.3     1  UNL1        0.0010
     15  C         16.8290  -21.1400  -10.8630 C.3     1  UNL1        0.0010
     16  C         15.9310  -21.9950   -9.9700 C.3     1  UNL1        0.0150
     17  C         20.7420  -22.4440   -7.5810 C.2     1  UNL1        0.0320
     18  C         20.7770  -23.6530   -8.2900 C.2     1  UNL1        0.0180
     19  C         21.8560  -23.9450   -9.1340 C.2     1  UNL1        0.0180
     20  C         22.9090  -23.0320   -9.2710 C.2     1  UNL1        0.0310
     21  C         22.8890  -21.8390   -8.5380 C.2     1  UNL1        0.0180
     22  C         21.8130  -21.5470   -7.6970 C.2     1  UNL1        0.0180
     23  C         24.0780  -23.3000  -10.1510 C.2     1  UNL1        0.2490
     24  N         25.1610  -23.9200   -9.5900 N.am    1  UNL1       -0.3660
     25  H         25.8830  -24.2050  -10.2410 H       1  UNL1        0.1590
     26  H         25.0970  -24.4320   -8.7230 H       1  UNL1        0.1590
     27  O         24.0680  -23.0150  -11.3420 O.2     1  UNL1       -0.2680
@<TRIPOS>BOND
     1    27    23    2
     2    14    15    1
     3    14    13    1
     4    15    16    1
     5    25    24    1
     6    23    24   am
     7    23    20    1
     8    13    12    1
     9    16    12    1
    10    24    26    1
    11    20    19    2
    12    20    21    1
    13    19    18    1
    14    12    11    1
    15    21    22    2
    16    18    17    2
    17    11    10    1
    18    22    17    1
    19    17     1    1
    20     4     3    1
    21     1     3   am
    22     1     2    2
    23     3     5    1
    24    10     5    2
    25    10     9    1
    26     5     6    1
    27     9     8    2
    28     6     7    2
    29     8     7    1
