@<TRIPOS>MOLECULE
2114_out_ligand_01.pdbqt
 36 40 0 0 0
SMALL
GASTEIGER

@<TRIPOS>ATOM
      1  C         21.5880  -23.5280   -9.7130 C.2     1  UNL1        0.0340
      2  C         20.7590  -22.6910  -10.4740 C.2     1  UNL1        0.0310
      3  C         19.3930  -22.5940  -10.1980 C.2     1  UNL1        0.0270
      4  C         18.8540  -23.3420   -9.1540 C.2     1  UNL1        0.0800
      5  C         19.6550  -24.2260   -8.4300 C.2     1  UNL1        0.0270
      6  C         21.0220  -24.3080   -8.7050 C.2     1  UNL1        0.0310
      7  N         22.9650  -23.4930   -9.9970 N.am    1  UNL1       -0.3260
      8  C         23.8090  -22.3970   -9.9680 C.2     1  UNL1        0.2400
      9  O         23.5500  -21.2910   -9.5000 O.2     1  UNL1       -0.2710
     10  H         23.3820  -24.3630  -10.3180 H       1  UNL1        0.1690
     11  C         25.1990  -22.7000  -10.5290 C.3     1  UNL1        0.2350
     12  N         25.3980  -22.0290  -11.7950 N.am    1  UNL1       -0.3040
     13  C         25.8050  -20.7100  -11.9430 C.2     1  UNL1        0.2590
     14  O         26.0690  -19.9100  -11.0650 O.2     1  UNL1       -0.2670
     15  C         25.9510  -20.5030  -13.3990 C.2     1  UNL1        0.0450
     16  C         26.3100  -19.4030  -14.1500 C.2     1  UNL1        0.0180
     17  C         25.6940  -21.7050  -13.9970 C.2     1  UNL1        0.0170
     18  C         26.3900  -19.5700  -15.5440 C.2     1  UNL1        0.0020
     19  C         26.1290  -20.8200  -16.1520 C.2     1  UNL1        0.0120
     20  C         25.7730  -21.9360  -15.3650 C.2     1  UNL1       -0.0230
     21  C         25.4960  -23.2540  -15.7720 C.2     1  UNL1        0.0120
     22  C         25.1730  -24.2400  -14.8140 C.2     1  UNL1        0.0030
     23  C         25.1090  -23.9400  -13.4390 C.2     1  UNL1        0.0310
     24  C         25.3720  -22.6450  -13.0550 C.2     1  UNL1        0.0500
     25  S         17.1440  -23.1380   -8.7130 S.O2    1  UNL1        0.2630
     26  O         16.9660  -21.7730   -8.2630 O.2     1  UNL1       -0.2000
     27  O         16.3310  -23.6990   -9.7720 O.2     1  UNL1       -0.2000
     28  N         16.9960  -24.1080   -7.3270 N.pl3   1  UNL1       -0.2810
     29  H         16.5630  -25.0040   -7.5450 H       1  UNL1        0.1790
     30  C         16.6460  -23.4840   -6.0940 C.2     1  UNL1        0.0440
     31  C         15.3490  -23.5850   -5.5900 C.2     1  UNL1        0.0300
     32  C         15.0420  -23.0400   -4.3420 C.2     1  UNL1        0.0040
     33  C         16.0370  -22.4030   -3.5970 C.2     1  UNL1        0.0240
     34  C         17.3320  -22.3100   -4.1050 C.2     1  UNL1        0.0360
     35 CL         18.5650  -21.5490   -3.1760 Cl      1  UNL1       -0.0840
     36  C         17.6430  -22.8430   -5.3540 C.2     1  UNL1        0.0540
@<TRIPOS>BOND
     1    19    18    2
     2    19    20    1
     3    21    20    1
     4    21    22    2
     5    18    16    1
     6    20    17    2
     7    22    23    1
     8    16    15    2
     9    17    15    1
    10    17    24    1
    11    23    24    2
    12    15    13    1
    13    24    12    1
    14    13    12   am
    15    13    14    2
    16    12    11    1
    17    11     8    1
    18     2     3    1
    19     2     1    2
    20    10     7    1
    21     3     4    2
    22     7     8   am
    23     7     1    1
    24     8     9    2
    25    27    25    2
    26     1     6    1
    27     4    25    1
    28     4     5    1
    29    25    26    2
    30    25    28    1
    31     6     5    2
    32    29    28    1
    33    28    30    1
    34    30    31    2
    35    30    36    1
    36    31    32    1
    37    36    34    2
    38    32    33    2
    39    34    33    1
    40    34    35    1
