@<TRIPOS>MOLECULE
21145_out_ligand_01.pdbqt
 35 39 0 0 0
SMALL
GASTEIGER

@<TRIPOS>ATOM
      1  N         23.5400  -23.2020  -10.4010 N.am    1  UNL1       -0.3230
      2  C         22.8500  -22.3860   -9.5210 C.2     1  UNL1        0.2560
      3  O         23.1720  -21.2640   -9.1460 O.2     1  UNL1       -0.2670
      4  H         23.2060  -24.1530  -10.4920 H       1  UNL1        0.1690
      5  C         24.7220  -22.8950  -11.1070 C.2     1  UNL1        0.0350
      6  C         26.0030  -23.0580  -10.5880 C.2     1  UNL1        0.0290
      7  C         27.1210  -22.7380  -11.3600 C.2     1  UNL1        0.0030
      8  C         26.9670  -22.2400  -12.6540 C.2     1  UNL1        0.0100
      9  C         25.6890  -22.0370  -13.2030 C.2     1  UNL1       -0.0190
     10  C         24.5780  -22.3920  -12.4100 C.2     1  UNL1        0.0390
     11  C         25.5030  -21.5080  -14.6220 C.3     1  UNL1        0.1390
     12  C         26.1520  -20.1380  -14.8890 C.3     1  UNL1        0.0540
     13  N         25.9650  -22.4480  -15.6310 N.am    1  UNL1       -0.3210
     14  C         24.9540  -22.8790  -16.4540 C.2     1  UNL1        0.3240
     15  H         26.9090  -22.8040  -15.7170 H       1  UNL1        0.1650
     16  O         25.0900  -23.6800  -17.3620 O.2     1  UNL1       -0.2470
     17  N         23.8020  -22.2720  -16.0840 N.am    1  UNL1       -0.2770
     18  C         24.0050  -21.4520  -15.0120 C.2     1  UNL1        0.2580
     19  H         22.9110  -22.4250  -16.5270 H       1  UNL1        0.1730
     20  O         23.1360  -20.7780  -14.4790 O.2     1  UNL1       -0.2700
     21  C         21.6100  -22.9950   -8.9590 C.2     1  UNL1        0.0330
     22  C         21.1600  -24.2520   -9.3810 C.2     1  UNL1        0.0190
     23  C         20.0070  -24.8230   -8.8310 C.2     1  UNL1        0.0310
     24  C         19.3220  -24.0890   -7.8570 C.ar    1  UNL1        0.0430
     25  N         18.1790  -24.4030   -7.1570 N.ar    1  UNL1       -0.3580
     26  C         19.7300  -22.8240   -7.4300 C.ar    1  UNL1       -0.0000
     27  C         17.8560  -23.3900   -6.2920 C.ar    1  UNL1        0.0170
     28  H         17.6610  -25.2650   -7.2660 H       1  UNL1        0.1660
     29  C         18.7930  -22.3820   -6.4450 C.ar    1  UNL1       -0.0230
     30  C         16.6770  -23.4620   -5.3850 C.3     1  UNL1        0.0570
     31  C         18.7970  -21.0870   -5.6990 C.3     1  UNL1        0.0410
     32  C         18.7750  -21.2720   -4.1810 C.3     1  UNL1        0.0050
     33  C         17.4280  -21.7420   -3.6180 C.3     1  UNL1        0.0010
     34  C         17.0570  -23.1980   -3.9260 C.3     1  UNL1        0.0060
     35  C         20.8920  -22.2640   -8.0000 C.2     1  UNL1        0.0310
@<TRIPOS>BOND
     1    16    14    2
     2    19    17    1
     3    14    17   am
     4    14    13   am
     5    17    18   am
     6    15    13    1
     7    13    11    1
     8    18    11    1
     9    18    20    2
    10    12    11    1
    11    11     9    1
    12     9     8    2
    13     9    10    1
    14     8     7    1
    15    10     5    2
    16     7     6    2
    17     5     6    1
    18     5     1    1
    19     4     1    1
    20     1     2   am
    21     2     3    2
    22     2    21    1
    23    22    21    2
    24    22    23    1
    25    21    35    1
    26    23    24    2
    27    35    26    2
    28    24    26   ar
    29    24    25   ar
    30    26    29   ar
    31    28    25    1
    32    25    27   ar
    33    29    27   ar
    34    29    31    1
    35    27    30    1
    36    31    32    1
    37    30    34    1
    38    32    33    1
    39    34    33    1
