@<TRIPOS>MOLECULE
21143_out_ligand_01.pdbqt
 34 37 0 0 0
SMALL
GASTEIGER

@<TRIPOS>ATOM
      1  C         24.4010  -22.2910  -10.5450 C.2     1  UNL1        0.2350
      2  O         24.2540  -21.1750  -10.0500 O.2     1  UNL1       -0.2720
      3  N         23.4540  -23.3030  -10.5910 N.am    1  UNL1       -0.3260
      4  H         23.7360  -24.1780  -11.0120 H       1  UNL1        0.1690
      5  C         25.7400  -22.6880  -11.1870 C.3     1  UNL1        0.1950
      6  N         25.6030  -23.9070  -11.9950 N.pl3   1  UNL1       -0.2840
      7  H         24.8920  -24.5110  -11.5720 H       1  UNL1        0.1280
      8  C         25.3990  -23.8040  -13.3770 C.2     1  UNL1        0.0090
      9  C         24.9530  -22.5760  -13.8960 C.2     1  UNL1        0.0430
     10  C         24.6650  -22.4110  -15.2610 C.2     1  UNL1        0.0720
     11  C         24.7990  -23.5070  -16.1110 C.2     1  UNL1        0.1320
     12  C         25.1920  -24.7440  -15.6130 C.2     1  UNL1        0.0450
     13  F         24.5350  -23.4120  -17.4230 F       1  UNL1       -0.2050
     14  C         25.4730  -24.8940  -14.2510 C.2     1  UNL1        0.0260
     15  C         24.2200  -21.0720  -15.7280 C.2     1  UNL1        0.2520
     16  N         23.4100  -20.3370  -14.9110 N.am    1  UNL1       -0.3660
     17  H         23.1120  -20.6520  -13.9960 H       1  UNL1        0.1590
     18  H         23.1200  -19.4230  -15.2310 H       1  UNL1        0.1590
     19  O         24.5630  -20.6310  -16.8180 O.2     1  UNL1       -0.2680
     20  C         22.1390  -23.2710  -10.0850 C.2     1  UNL1        0.0340
     21  C         21.6870  -24.0460   -9.0220 C.2     1  UNL1        0.0320
     22  C         20.3560  -23.9500   -8.5850 C.2     1  UNL1        0.0320
     23  C         19.4390  -23.0750   -9.1830 C.2     1  UNL1        0.0350
     24  C         19.9100  -22.3120  -10.2580 C.2     1  UNL1        0.0320
     25  C         21.2350  -22.4030  -10.7040 C.2     1  UNL1        0.0320
     26  N         18.1180  -22.9840   -8.7530 N.pl3   1  UNL1       -0.3460
     27  C         16.9830  -23.2410   -9.6580 C.3     1  UNL1        0.1340
     28  C         15.7170  -22.6920   -8.9750 C.3     1  UNL1        0.0610
     29  C         16.1460  -22.6650   -7.5480 C.2     1  UNL1       -0.0300
     30  C         15.3610  -22.4810   -6.4220 C.2     1  UNL1        0.0090
     31  C         17.5360  -22.8200   -7.4740 C.2     1  UNL1        0.0410
     32  C         15.9870  -22.4800   -5.1770 C.2     1  UNL1        0.0010
     33  C         17.3740  -22.6620   -5.0820 C.2     1  UNL1        0.0020
     34  C         18.1520  -22.8360   -6.2340 C.2     1  UNL1        0.0300
@<TRIPOS>BOND
     1    13    11    1
     2    19    15    2
     3    11    12    2
     4    11    10    1
     5    15    10    1
     6    15    16   am
     7    12    14    1
     8    10     9    2
     9    18    16    1
    10    16    17    1
    11    14     8    2
    12     9     8    1
    13     8     6    1
    14     6     7    1
    15     6     5    1
    16     5     1    1
    17     4     3    1
    18    25    24    1
    19    25    20    2
    20     3     1   am
    21     3    20    1
    22     1     2    2
    23    24    23    2
    24    20    21    1
    25    27    28    1
    26    27    26    1
    27    23    26    1
    28    23    22    1
    29    21    22    2
    30    28    29    1
    31    26    31    1
    32    29    31    2
    33    29    30    1
    34    31    34    1
    35    30    32    2
    36    34    33    2
    37    32    33    1
