@<TRIPOS>MOLECULE
21146_out_ligand_01.pdbqt
 38 42 0 0 0
SMALL
GASTEIGER

@<TRIPOS>ATOM
      1  C         20.6680  -21.9240  -11.3770 C.2     1  UNL1        0.0320
      2  C         21.2440  -21.4460  -12.5620 C.2     1  UNL1        0.0190
      3  C         22.5890  -21.7070  -12.8390 C.2     1  UNL1        0.0310
      4  C         23.3570  -22.4450  -11.9370 C.2     1  UNL1        0.0420
      5  C         22.7850  -22.9400  -10.7660 C.2     1  UNL1        0.0310
      6  C         21.4410  -22.6830  -10.4870 C.2     1  UNL1        0.0190
      7  N         24.7100  -22.7520  -12.2410 N.pl3   1  UNL1       -0.2810
      8  H         25.0420  -23.6880  -12.0110 H       1  UNL1        0.1790
      9  S         25.8870  -21.5990  -11.8510 S.O2    1  UNL1        0.2630
     10  O         25.3810  -20.7160  -10.8250 O.2     1  UNL1       -0.2000
     11  O         27.1180  -22.3360  -11.6610 O.2     1  UNL1       -0.2000
     12  C         26.0480  -20.6830  -13.3660 C.2     1  UNL1        0.0820
     13  C         25.8380  -21.3530  -14.5980 C.2     1  UNL1        0.0280
     14  C         25.9700  -20.6680  -15.8110 C.2     1  UNL1        0.0330
     15  C         26.3150  -19.3380  -15.7340 C.ar    1  UNL1        0.0630
     16  N         26.5150  -18.4130  -16.7530 N.ar    1  UNL1       -0.3070
     17  C         26.5310  -18.6900  -14.5180 C.ar    1  UNL1        0.0640
     18  C         26.8570  -17.1780  -16.1810 C.ar    1  UNL1        0.3250
     19  H         26.4430  -18.5670  -17.7450 H       1  UNL1        0.1700
     20  O         27.1010  -16.1450  -16.7770 O.2     1  UNL1       -0.2470
     21  N         26.8600  -17.3660  -14.7910 N.ar    1  UNL1       -0.3060
     22  H         27.0760  -16.6380  -14.1290 H       1  UNL1        0.1700
     23  C         26.4130  -19.3310  -13.3100 C.2     1  UNL1        0.0570
     24  C         19.2380  -21.6890  -11.0430 C.2     1  UNL1        0.2510
     25  O         18.6970  -20.6400  -11.3780 O.2     1  UNL1       -0.2680
     26  N         18.5900  -22.7000  -10.3750 N.am    1  UNL1       -0.3510
     27  H         19.0820  -23.5280  -10.0730 H       1  UNL1        0.1630
     28  C         17.2540  -22.5210   -9.8440 C.3     1  UNL1        0.1820
     29  C         17.2810  -22.4590   -8.3350 C.2     1  UNL1        0.0530
     30  C         18.4930  -22.4810   -7.6560 C.2     1  UNL1        0.0300
     31  C         18.4780  -22.4690   -6.2660 C.2     1  UNL1        0.0160
     32  C         17.2550  -22.4470   -5.5840 C.2     1  UNL1       -0.0070
     33  C         17.1920  -22.4350   -4.1800 C.2     1  UNL1        0.0140
     34  C         16.0710  -22.4410   -6.3500 C.2     1  UNL1        0.0670
     35  C         15.9600  -22.4190   -3.5300 C.2     1  UNL1        0.0010
     36  C         14.7890  -22.4120   -4.2800 C.2     1  UNL1        0.0020
     37  C         14.8570  -22.4230   -5.6760 C.2     1  UNL1        0.0320
     38  N         16.0810  -22.4560   -7.6950 N.2     1  UNL1       -0.2510
@<TRIPOS>BOND
     1    19    16    1
     2    20    18    2
     3    16    18   ar
     4    16    15   ar
     5    18    21   ar
     6    14    15    2
     7    14    13    1
     8    15    17   ar
     9    21    17   ar
    10    21    22    1
    11    13    12    2
    12    17    23    2
    13    12    23    1
    14    12     9    1
    15     3     2    1
    16     3     4    2
    17     2     1    2
    18     7     8    1
    19     7     4    1
    20     7     9    1
    21     4     5    1
    22     9    11    2
    23     9    10    2
    24    25    24    2
    25     1    24    1
    26     1     6    1
    27    24    26   am
    28     5     6    2
    29    26    27    1
    30    26    28    1
    31    28    29    1
    32    29    38    2
    33    29    30    1
    34    38    34    1
    35    30    31    2
    36    34    37    1
    37    34    32    2
    38    31    32    1
    39    37    36    2
    40    32    33    1
    41    36    35    1
    42    33    35    2
