@<TRIPOS>MOLECULE
21184_out_ligand_01.pdbqt
 29 31 0 0 0
SMALL
GASTEIGER

@<TRIPOS>ATOM
      1  C         19.9250  -21.6490  -11.1050 C.2     1  UNL1        0.2560
      2  O         19.3050  -20.6110  -11.3000 O.2     1  UNL1       -0.2670
      3  N         19.5480  -22.7000  -10.2890 N.am    1  UNL1       -0.3230
      4  H         20.2350  -23.4260  -10.1250 H       1  UNL1        0.1690
      5  C         21.2520  -21.8100  -11.7670 C.2     1  UNL1        0.0340
      6  C         21.5440  -21.2080  -12.9950 C.2     1  UNL1        0.0170
      7  C         22.8020  -21.3870  -13.5670 C.2     1  UNL1        0.0030
      8  C         23.7720  -22.1550  -12.9150 C.2     1  UNL1        0.0290
      9  C         23.4970  -22.7470  -11.6800 C.2     1  UNL1        0.0360
     10  C         22.2340  -22.5630  -11.1070 C.2     1  UNL1        0.0460
     11  N         24.4300  -23.5140  -10.9560 N.am    1  UNL1       -0.3140
     12  C         25.6920  -23.1510  -10.5720 C.2     1  UNL1        0.2960
     13  N         26.2860  -24.1200   -9.8140 N.am    1  UNL1       -0.2540
     14  O         26.3010  -22.1240  -10.8300 O.2     1  UNL1       -0.2540
     15  H         27.1830  -23.8150   -9.4530 H       1  UNL1        0.1280
     16  H         25.7020  -24.5620   -9.1180 H       1  UNL1        0.1280
     17  H         24.2020  -24.4860  -10.8030 H       1  UNL1        0.1700
     18  C         18.3390  -22.8400   -9.5760 C.2     1  UNL1        0.0350
     19  C         17.0770  -22.8140  -10.1670 C.2     1  UNL1        0.0290
     20  C         15.9290  -22.9670   -9.3860 C.2     1  UNL1        0.0030
     21  C         16.0310  -23.1500   -8.0050 C.2     1  UNL1        0.0150
     22  C         17.2870  -23.1830   -7.3870 C.2     1  UNL1        0.0140
     23  C         18.4300  -23.0270   -8.1900 C.2     1  UNL1        0.0440
     24  C         17.4540  -23.3750   -5.9450 C.2     1  UNL1        0.1610
     25  N         17.5000  -24.5300   -5.3040 N.2     1  UNL1       -0.1300
     26  N         17.6700  -24.2850   -3.9620 N.2     1  UNL1       -0.1430
     27  C         17.7290  -22.9860   -3.8050 C.2     1  UNL1        0.2330
     28  N         17.6000  -22.3760   -5.0130 N.pl3   1  UNL1       -0.3320
     29  H         17.6140  -21.3850   -5.1890 H       1  UNL1        0.1680
@<TRIPOS>BOND
     1     7     6    1
     2     7     8    2
     3     6     5    2
     4     8     9    1
     5     5    10    1
     6     5     1    1
     7     9    10    2
     8     9    11    1
     9     2     1    2
    10     1     3   am
    11    11    17    1
    12    11    12   am
    13    14    12    2
    14    12    13   am
    15     3     4    1
    16     3    18    1
    17    19    18    2
    18    19    20    1
    19    13    15    1
    20    13    16    1
    21    18    23    1
    22    20    21    2
    23    23    22    2
    24    21    22    1
    25    22    24    1
    26    24    25    2
    27    24    28    1
    28    25    26    1
    29    29    28    1
    30    28    27    1
    31    26    27    2
