@<TRIPOS>MOLECULE
21183_out_ligand_01.pdbqt
 30 32 0 0 0
SMALL
GASTEIGER

@<TRIPOS>ATOM
      1  C         23.8190  -23.0090   -9.2420 C.3     1  UNL1        0.1610
      2  C         22.3850  -23.1500   -8.7990 C.2     1  UNL1       -0.0400
      3  C         21.6520  -24.2940   -9.1370 C.2     1  UNL1        0.0090
      4  C         20.3250  -24.4390   -8.7180 C.2     1  UNL1        0.0130
      5  C         19.6980  -23.4470   -7.9490 C.2     1  UNL1       -0.0260
      6  C         20.4420  -22.3060   -7.6100 C.2     1  UNL1        0.0130
      7  C         21.7700  -22.1590   -8.0270 C.2     1  UNL1        0.0090
      8  C         18.3010  -23.5990   -7.5120 C.2     1  UNL1       -0.0230
      9  C         17.2430  -23.4670   -8.4250 C.2     1  UNL1        0.0120
     10  C         15.9180  -23.6030   -8.0120 C.2     1  UNL1        0.0040
     11  C         15.6340  -23.8770   -6.6760 C.2     1  UNL1        0.0370
     12  C         16.6650  -24.0190   -5.7450 C.2     1  UNL1        0.0690
     13  C         17.9900  -23.8770   -6.1660 C.2     1  UNL1        0.0490
     14  O         16.2490  -24.2910   -4.4700 O.2     1  UNL1       -0.3560
     15  C         15.5420  -23.2620   -3.7920 C.3     1  UNL1        0.2100
     16  N         23.9410  -23.2410  -10.6650 N.am    1  UNL1       -0.3510
     17  C         25.1820  -23.2550  -11.2800 C.2     1  UNL1        0.2700
     18  O         26.2450  -23.2270  -10.6700 O.2     1  UNL1       -0.2660
     19  H         23.1290  -23.0290  -11.2290 H       1  UNL1        0.1630
     20  C         25.1550  -23.3080  -12.7730 C.2     1  UNL1        0.1250
     21  C         25.6270  -24.4370  -13.4370 C.2     1  UNL1        0.0370
     22  C         25.6010  -24.4460  -14.8280 C.2     1  UNL1        0.0050
     23  C         25.1060  -23.3340  -15.5040 C.2     1  UNL1        0.0370
     24  C         24.6510  -22.2510  -14.7560 C.2     1  UNL1        0.1250
     25  N         24.6660  -22.2150  -13.4040 N.2     1  UNL1       -0.2380
     26  C         24.0990  -21.0430  -15.4460 C.2     1  UNL1        0.2680
     27  N         23.1890  -20.2920  -14.7410 N.am    1  UNL1       -0.3650
     28  H         22.6650  -20.7010  -13.9790 H       1  UNL1        0.1590
     29  H         22.7130  -19.5870  -15.2920 H       1  UNL1        0.1590
     30  O         24.4170  -20.7250  -16.5840 O.2     1  UNL1       -0.2660
@<TRIPOS>BOND
     1    30    26    2
     2    23    22    2
     3    23    24    1
     4    26    24    1
     5    26    27   am
     6    29    27    1
     7    22    21    1
     8    24    25    2
     9    27    28    1
    10    21    20    2
    11    25    20    1
    12    20    17    1
    13    17    18    2
    14    17    16   am
    15    19    16    1
    16    16     1    1
    17     1     2    1
    18     3     2    2
    19     3     4    1
    20     2     7    1
    21     4     5    2
    22     9    10    1
    23     9     8    2
    24     7     6    2
    25    10    11    2
    26     5     6    1
    27     5     8    1
    28     8    13    1
    29    11    12    1
    30    13    12    2
    31    12    14    1
    32    14    15    1
