@<TRIPOS>MOLECULE
21180_out_ligand_01.pdbqt
 37 41 0 0 0
SMALL
GASTEIGER

@<TRIPOS>ATOM
      1  N         20.8270  -22.0010  -10.6810 N.am    1  UNL1       -0.3230
      2  C         22.0530  -22.5330  -11.0300 C.2     1  UNL1        0.2610
      3  O         22.6640  -23.4010  -10.4210 O.2     1  UNL1       -0.2670
      4  H         20.4870  -21.2360  -11.2500 H       1  UNL1        0.1690
      5  C         22.6580  -21.9010  -12.1940 C.2     1  UNL1        0.0970
      6  C         21.9300  -21.2070  -13.1800 C.3     1  UNL1        0.1600
      7  N         22.6750  -20.8580  -14.2270 N.3     1  UNL1       -0.1770
      8  N         23.9530  -21.1090  -13.8290 N.pl3   1  UNL1       -0.2130
      9  C         23.9620  -21.8940  -12.6800 C.2     1  UNL1        0.1530
     10  C         25.0070  -20.4850  -14.5510 C.2     1  UNL1        0.0990
     11  C         25.7850  -19.5060  -13.9120 C.2     1  UNL1        0.0350
     12  C         26.8290  -18.8780  -14.5970 C.2     1  UNL1        0.0020
     13  C         27.1200  -19.2380  -15.9120 C.2     1  UNL1        0.0030
     14  C         26.3780  -20.2400  -16.5360 C.2     1  UNL1        0.0450
     15  C         25.3350  -20.8650  -15.8520 C.2     1  UNL1        0.1450
     16  F         24.7240  -21.8910  -16.4590 F       1  UNL1       -0.2040
     17  N         25.0800  -22.5560  -12.1740 N.pl3   1  UNL1       -0.3170
     18  C         25.8720  -22.1370  -11.1200 C.2     1  UNL1        0.0980
     19  C         26.9310  -23.0060  -10.9690 C.2     1  UNL1        0.0190
     20  C         26.8000  -23.9970  -11.9610 C.2     1  UNL1        0.0190
     21  C         25.6680  -23.6970  -12.6860 C.2     1  UNL1        0.0980
     22  C         19.9830  -22.3950   -9.6250 C.2     1  UNL1        0.0350
     23  C         20.3680  -22.4410   -8.2870 C.2     1  UNL1        0.0300
     24  C         19.4660  -22.8520   -7.2940 C.2     1  UNL1        0.0120
     25  C         18.1560  -23.2350   -7.6120 C.2     1  UNL1       -0.0210
     26  C         17.7780  -23.1780   -8.9660 C.2     1  UNL1        0.0120
     27  C         18.6780  -22.7670   -9.9560 C.2     1  UNL1        0.0300
     28  C         17.1470  -23.6870   -6.5610 C.3     1  UNL1        0.1390
     29  C         16.2920  -24.8580   -7.0490 C.3     1  UNL1        0.0540
     30  N         17.8260  -24.0240   -5.3220 N.am    1  UNL1       -0.3210
     31  C         17.4520  -23.2240   -4.2740 C.2     1  UNL1        0.3240
     32  H         18.6140  -24.6480   -5.2290 H       1  UNL1        0.1650
     33  O         17.9290  -23.2720   -3.1550 O.2     1  UNL1       -0.2470
     34  N         16.4790  -22.3880   -4.6930 N.am    1  UNL1       -0.2770
     35  C         16.2090  -22.5840   -6.0120 C.2     1  UNL1        0.2580
     36  H         16.0220  -21.7130   -4.1050 H       1  UNL1        0.1730
     37  O         15.3460  -21.9770   -6.6320 O.2     1  UNL1       -0.2700
@<TRIPOS>BOND
     1    14    13    2
     2    14    15    1
     3    16    15    1
     4    13    12    1
     5    15    10    2
     6    12    11    2
     7    10    11    1
     8    10     8    1
     9     7     8    1
    10     7     6    1
    11     8     9    1
    12     6     5    1
    13    21    17    1
    14    21    20    2
    15     9     5    2
    16     9    17    1
    17     5     2    1
    18    17    18    1
    19    20    19    1
    20     4     1    1
    21    18    19    2
    22     2     1   am
    23     2     3    2
    24     1    22    1
    25    27    22    2
    26    27    26    1
    27    22    23    1
    28    26    25    2
    29    23    24    2
    30    25    24    1
    31    25    28    1
    32    29    28    1
    33    37    35    2
    34    28    35    1
    35    28    30    1
    36    35    34   am
    37    30    32    1
    38    30    31   am
    39    34    31   am
    40    34    36    1
    41    31    33    2
