@<TRIPOS>MOLECULE
21197_out_ligand_01.pdbqt
 33 35 0 0 0
SMALL
GASTEIGER

@<TRIPOS>ATOM
      1  C         20.1230  -21.6870  -11.1710 C.2     1  UNL1        0.0340
      2  C         19.2610  -20.8950  -11.9350 C.2     1  UNL1        0.0170
      3  C         17.8890  -20.9580  -11.7100 C.2     1  UNL1        0.0030
      4  C         17.3800  -21.8160  -10.7350 C.2     1  UNL1        0.0290
      5  C         18.2350  -22.6230   -9.9700 C.2     1  UNL1        0.0350
      6  C         19.6110  -22.5600  -10.2000 C.2     1  UNL1        0.0460
      7  N         17.6280  -23.4720   -9.0200 N.am    1  UNL1       -0.3270
      8  C         16.3720  -23.3360   -8.4430 C.2     1  UNL1        0.2260
      9  O         15.5280  -22.4930   -8.7400 O.2     1  UNL1       -0.2730
     10  H         18.1780  -24.2690   -8.7290 H       1  UNL1        0.1690
     11  C         16.0990  -24.3790   -7.3640 C.3     1  UNL1        0.1440
     12  C         16.1580  -23.7820   -5.9960 C.2     1  UNL1       -0.0210
     13  C         15.2720  -24.0340   -4.9660 C.2     1  UNL1        0.0970
     14  N         15.6400  -23.2840   -3.8850 N.pl3   1  UNL1       -0.3650
     15  C         16.7660  -22.5490   -4.1760 C.2     1  UNL1        0.0430
     16  H         15.1510  -23.2520   -3.0030 H       1  UNL1        0.1650
     17  C         17.4820  -21.6500   -3.3760 C.2     1  UNL1        0.0330
     18  C         17.1220  -22.8480   -5.4930 C.2     1  UNL1        0.0020
     19  C         18.6030  -21.0350   -3.9400 C.2     1  UNL1        0.0440
     20  C         18.9780  -21.3220   -5.2440 C.2     1  UNL1        0.1170
     21  F         20.0620  -20.7270   -5.7610 F       1  UNL1       -0.2060
     22  C         18.2590  -22.2170   -6.0360 C.2     1  UNL1        0.0560
     23  C         21.5920  -21.6430  -11.3900 C.2     1  UNL1        0.2510
     24  N         22.3620  -21.5160  -10.2520 N.am    1  UNL1       -0.3560
     25  H         21.9240  -21.5980   -9.3490 H       1  UNL1        0.1620
     26  O         22.0580  -21.7490  -12.5170 O.2     1  UNL1       -0.2680
     27  C         23.8110  -21.4940  -10.3100 C.3     1  UNL1        0.1320
     28  C         24.4120  -22.8890  -10.4360 C.3     1  UNL1        0.1220
     29  C         23.9890  -23.7660   -9.2830 C.2     1  UNL1        0.2160
     30  N         25.0200  -24.3890   -8.6410 N.am    1  UNL1       -0.3700
     31  H         25.9640  -24.0340   -8.7090 H       1  UNL1        0.1590
     32  H         24.7790  -24.9150   -7.8110 H       1  UNL1        0.1590
     33  O         22.8300  -23.9700   -8.9500 O.2     1  UNL1       -0.2740
@<TRIPOS>BOND
     1    26    23    2
     2     2     3    1
     3     2     1    2
     4     3     4    2
     5    23     1    1
     6    23    24   am
     7     1     6    1
     8     4     5    1
     9    28    27    1
    10    28    29    1
    11    27    24    1
    12    24    25    1
    13     6     5    2
    14     5     7    1
    15    29    33    2
    16    29    30   am
    17     7    10    1
    18     7     8   am
    19     9     8    2
    20    31    30    1
    21    30    32    1
    22     8    11    1
    23    11    12    1
    24    22    18    1
    25    22    20    2
    26    12    18    1
    27    12    13    2
    28    21    20    1
    29    18    15    2
    30    20    19    1
    31    13    14    1
    32    15    14    1
    33    15    17    1
    34    19    17    2
    35    14    16    1
