@<TRIPOS>MOLECULE
21207_out_ligand_01.pdbqt
 29 32 0 0 0
SMALL
GASTEIGER

@<TRIPOS>ATOM
      1  O         17.4070  -21.0550  -11.9700 O.2     1  UNL1       -0.2680
      2  C         18.0990  -21.5390  -11.0790 C.2     1  UNL1        0.2540
      3  N         19.4730  -21.4450  -11.0670 N.am    1  UNL1       -0.3530
      4  H         20.0010  -22.0050  -10.4150 H       1  UNL1        0.1630
      5  C         20.2000  -20.8750  -12.1760 C.3     1  UNL1        0.1610
      6  C         21.5440  -21.5380  -12.3260 C.2     1  UNL1       -0.0400
      7  C         22.0220  -22.4040  -11.3370 C.2     1  UNL1        0.0090
      8  C         23.2790  -22.9920  -11.4640 C.2     1  UNL1        0.0020
      9  C         24.0760  -22.7160  -12.5780 C.2     1  UNL1        0.0150
     10  C         23.6280  -21.8450  -13.5800 C.2     1  UNL1        0.0120
     11  C         22.3570  -21.2620  -13.4360 C.2     1  UNL1        0.0240
     12  C         24.4290  -21.5170  -14.7600 C.2     1  UNL1        0.1610
     13  N         25.5920  -22.0470  -15.0980 N.2     1  UNL1       -0.1300
     14  N         26.0180  -21.4690  -16.2720 N.2     1  UNL1       -0.1430
     15  C         25.1110  -20.5960  -16.6310 C.2     1  UNL1        0.2330
     16  N         24.1010  -20.5890  -15.7190 N.pl3   1  UNL1       -0.3320
     17  H         23.2770  -20.0110  -15.7420 H       1  UNL1        0.1680
     18  C         17.5180  -22.2650   -9.9630 C.2     1  UNL1        0.0680
     19  C         16.1800  -22.6230   -9.6750 C.2     1  UNL1        0.1570
     20  N         16.0520  -23.3050   -8.5330 N.2     1  UNL1       -0.1840
     21  N         17.3170  -23.3810   -8.0670 N.pl3   1  UNL1       -0.2760
     22  C         18.2260  -22.7920   -8.8980 C.2     1  UNL1        0.1310
     23  C         17.6010  -24.0930   -6.8280 C.3     1  UNL1        0.1890
     24  C         17.8950  -23.1420   -5.6950 C.2     1  UNL1       -0.0380
     25  C         18.5480  -21.9250   -5.9390 C.2     1  UNL1        0.0090
     26  C         18.8220  -21.0440   -4.8930 C.2     1  UNL1        0.0010
     27  C         18.4450  -21.3680   -3.5910 C.2     1  UNL1        0.0000
     28  C         17.7970  -22.5750   -3.3350 C.2     1  UNL1        0.0010
     29  C         17.5220  -23.4590   -4.3790 C.2     1  UNL1        0.0090
@<TRIPOS>BOND
     1    15    14    2
     2    15    16    1
     3    14    13    1
     4    17    16    1
     5    16    12    1
     6    13    12    2
     7    12    10    1
     8    10    11    1
     9    10     9    2
    10    11     6    2
    11     9     8    1
    12     6     5    1
    13     6     7    1
    14     5     3    1
    15     1     2    2
    16     8     7    2
    17     2     3   am
    18     2    18    1
    19     3     4    1
    20    18    19    1
    21    18    22    2
    22    19    20    2
    23    22    21    1
    24    20    21    1
    25    21    23    1
    26    23    24    1
    27    25    24    2
    28    25    26    1
    29    24    29    1
    30    26    27    2
    31    29    28    2
    32    27    28    1
