@<TRIPOS>MOLECULE
21206_out_ligand_01.pdbqt
 38 42 0 0 0
SMALL
GASTEIGER

@<TRIPOS>ATOM
      1  C         20.2380  -22.1350  -10.9980 C.2     1  UNL1        0.0320
      2  C         20.9230  -22.9520  -10.0900 C.2     1  UNL1        0.0190
      3  C         22.2630  -23.2810  -10.3140 C.2     1  UNL1        0.0310
      4  C         22.9230  -22.7780  -11.4350 C.2     1  UNL1        0.0420
      5  C         22.2500  -21.9430  -12.3300 C.2     1  UNL1        0.0310
      6  C         20.9090  -21.6190  -12.1140 C.2     1  UNL1        0.0190
      7  N         24.2930  -23.0990  -11.6360 N.pl3   1  UNL1       -0.2810
      8  H         24.6050  -24.0360  -11.3920 H       1  UNL1        0.1790
      9  S         25.4730  -21.9330  -11.3220 S.O2    1  UNL1        0.2630
     10  O         26.7390  -22.5780  -11.0530 O.2     1  UNL1       -0.2000
     11  O         24.8850  -21.0080  -10.3770 O.2     1  UNL1       -0.2000
     12  C         25.6130  -21.0810  -12.8810 C.2     1  UNL1        0.0820
     13  C         25.2320  -21.7490  -14.0720 C.2     1  UNL1        0.0280
     14  C         25.3410  -21.1110  -15.3140 C.2     1  UNL1        0.0330
     15  C         25.8430  -19.8300  -15.3090 C.ar    1  UNL1        0.0630
     16  N         26.0690  -18.9600  -16.3700 N.ar    1  UNL1       -0.3070
     17  C         26.2330  -19.1840  -14.1340 C.ar    1  UNL1        0.0640
     18  C         26.6060  -17.7650  -15.8710 C.ar    1  UNL1        0.3250
     19  H         25.8950  -19.1300  -17.3480 H       1  UNL1        0.1700
     20  O         26.9300  -16.7850  -16.5160 O.2     1  UNL1       -0.2470
     21  N         26.7000  -17.9190  -14.4780 N.ar    1  UNL1       -0.3060
     22  H         27.0680  -17.2100  -13.8630 H       1  UNL1        0.1700
     23  C         26.1380  -19.7790  -12.8990 C.2     1  UNL1        0.0570
     24  C         18.8110  -21.8200  -10.7300 C.2     1  UNL1        0.2510
     25  O         18.3270  -20.7770  -11.1530 O.2     1  UNL1       -0.2680
     26  N         18.1270  -22.7350   -9.9650 N.am    1  UNL1       -0.3510
     27  H         18.6260  -23.4990   -9.5310 H       1  UNL1        0.1630
     28  C         16.7680  -22.5030   -9.5430 C.3     1  UNL1        0.1790
     29  C         16.7690  -22.4740   -8.0570 C.2     1  UNL1        0.0280
     30  C         17.8170  -22.3620   -7.1640 C.2     1  UNL1        0.0400
     31  C         17.2860  -22.3760   -5.8480 C.2     1  UNL1       -0.0080
     32  C         17.8550  -22.2890   -4.5630 C.2     1  UNL1        0.0140
     33  C         15.9040  -22.5190   -5.9680 C.2     1  UNL1        0.0420
     34  C         17.0190  -22.3440   -3.4410 C.2     1  UNL1        0.0010
     35  C         15.6390  -22.5000   -3.5880 C.2     1  UNL1        0.0020
     36  C         15.0530  -22.5890   -4.8560 C.2     1  UNL1        0.0300
     37  N         15.6160  -22.5630   -7.3140 N.pl3   1  UNL1       -0.3570
     38  H         14.6800  -22.6400   -7.6900 H       1  UNL1        0.1660
@<TRIPOS>BOND
     1    19    16    1
     2    20    18    2
     3    16    18   ar
     4    16    15   ar
     5    18    21   ar
     6    14    15    2
     7    14    13    1
     8    15    17   ar
     9    21    17   ar
    10    21    22    1
    11    17    23    2
    12    13    12    2
    13    23    12    1
    14    12     9    1
    15     5     6    1
    16     5     4    2
    17     6     1    2
    18     7     4    1
    19     7     8    1
    20     7     9    1
    21     4     3    1
    22     9    10    2
    23     9    11    2
    24    25    24    2
    25     1    24    1
    26     1     2    1
    27    24    26   am
    28     3     2    2
    29    26    28    1
    30    26    27    1
    31    28    29    1
    32    29    37    1
    33    29    30    2
    34    38    37    1
    35    37    33    1
    36    30    31    1
    37    33    31    2
    38    33    36    1
    39    31    32    1
    40    36    35    2
    41    32    34    2
    42    35    34    1
