@<TRIPOS>MOLECULE
21201_out_ligand_01.pdbqt
 34 38 0 0 0
SMALL
GASTEIGER

@<TRIPOS>ATOM
      1  N         22.6070  -21.8760  -11.2300 N.am    1  UNL1       -0.3230
      2  C         21.5660  -21.4840  -12.0540 C.2     1  UNL1        0.2560
      3  O         21.6580  -21.0000  -13.1760 O.2     1  UNL1       -0.2670
      4  H         22.3640  -22.1340  -10.2820 H       1  UNL1        0.1690
      5  C         23.9860  -21.8610  -11.5250 C.2     1  UNL1        0.0350
      6  C         24.9610  -21.3580  -10.6690 C.2     1  UNL1        0.0290
      7  C         26.3070  -21.3860  -11.0410 C.2     1  UNL1        0.0030
      8  C         26.6890  -21.9140  -12.2740 C.2     1  UNL1        0.0100
      9  C         25.7340  -22.4280  -13.1640 C.2     1  UNL1       -0.0190
     10  C         24.3800  -22.3840  -12.7660 C.2     1  UNL1        0.0390
     11  C         26.1120  -22.9910  -14.5300 C.3     1  UNL1        0.1390
     12  C         27.1110  -22.0950  -15.2640 C.3     1  UNL1        0.0540
     13  N         26.6160  -24.3500  -14.4710 N.am    1  UNL1       -0.3210
     14  C         25.8410  -25.2410  -15.1660 C.2     1  UNL1        0.3240
     15  H         27.4820  -24.6400  -14.0370 H       1  UNL1        0.1650
     16  O         26.0910  -26.4240  -15.3010 O.2     1  UNL1       -0.2470
     17  N         24.7870  -24.5810  -15.6910 N.am    1  UNL1       -0.2770
     18  C         24.8760  -23.2490  -15.4330 C.2     1  UNL1        0.2580
     19  H         24.0940  -25.0070  -16.2820 H       1  UNL1        0.1730
     20  O         24.1040  -22.4080  -15.8750 O.2     1  UNL1       -0.2700
     21  C         20.2090  -21.6470  -11.4620 C.2     1  UNL1        0.0330
     22  C         19.1320  -21.0070  -12.0860 C.2     1  UNL1        0.0190
     23  C         17.8340  -21.1160  -11.5770 C.2     1  UNL1        0.0310
     24  C         17.6510  -21.8950  -10.4300 C.ar    1  UNL1        0.0430
     25  N         16.4980  -22.1770   -9.7270 N.ar    1  UNL1       -0.3580
     26  C         18.7020  -22.5610   -9.7930 C.ar    1  UNL1       -0.0000
     27  C         16.7880  -23.0000   -8.6770 C.ar    1  UNL1        0.0170
     28  H         15.5810  -21.8250   -9.9640 H       1  UNL1        0.1660
     29  C         18.1430  -23.2580   -8.6850 C.ar    1  UNL1       -0.0230
     30  C         15.8000  -23.5020   -7.6840 C.3     1  UNL1        0.0570
     31  C         18.7930  -24.1460   -7.6770 C.3     1  UNL1        0.0410
     32  C         17.8720  -24.3750   -6.4630 C.3     1  UNL1        0.0050
     33  C         16.4180  -24.6640   -6.8820 C.3     1  UNL1        0.0060
     34  C         20.0020  -22.4430  -10.3230 C.2     1  UNL1        0.0310
@<TRIPOS>BOND
     1    19    17    1
     2    20    18    2
     3    17    18   am
     4    17    14   am
     5    18    11    1
     6    16    14    2
     7    12    11    1
     8    14    13   am
     9    11    13    1
    10    11     9    1
    11    13    15    1
    12     3     2    2
    13     9    10    1
    14     9     8    2
    15    10     5    2
    16     8     7    1
    17    22    23    1
    18    22    21    2
    19     2    21    1
    20     2     1   am
    21    23    24    2
    22     5     1    1
    23     5     6    1
    24    21    34    1
    25     1     4    1
    26     7     6    2
    27    24    26   ar
    28    24    25   ar
    29    34    26    2
    30    28    25    1
    31    26    29   ar
    32    25    27   ar
    33    29    27   ar
    34    29    31    1
    35    27    30    1
    36    30    33    1
    37    31    32    1
    38    33    32    1
