@<TRIPOS>MOLECULE
21204_out_ligand_01.pdbqt
 29 31 0 0 0
SMALL
GASTEIGER

@<TRIPOS>ATOM
      1  N         21.5120  -22.5070   -9.6790 N.am    1  UNL1       -0.3470
      2  C         22.7200  -23.1330   -9.8740 C.2     1  UNL1        0.2690
      3  O         23.1250  -24.0010   -9.1050 O.2     1  UNL1       -0.2660
      4  H         21.2470  -21.7380  -10.2760 H       1  UNL1        0.1630
      5  C         20.6600  -22.7970   -8.5370 C.3     1  UNL1        0.1140
      6  C         21.0720  -21.9250   -7.3420 C.3     1  UNL1        0.0370
      7  C         19.1970  -22.6780   -8.9660 C.2     1  UNL1       -0.0250
      8  C         18.8600  -22.0190  -10.1650 C.2     1  UNL1        0.0130
      9  C         17.5350  -21.9060  -10.5760 C.2     1  UNL1        0.0440
     10  C         16.5280  -22.4620   -9.8000 C.2     1  UNL1        0.1270
     11  F         15.2610  -22.3340  -10.2260 F       1  UNL1       -0.2050
     12  C         16.8070  -23.1460   -8.6120 C.2     1  UNL1        0.0130
     13  C         15.7610  -23.7110   -7.8590 C.2     1  UNL1        0.0150
     14  C         18.1530  -23.2720   -8.1790 C.2     1  UNL1       -0.0150
     15  C         16.0170  -24.4080   -6.6810 C.2     1  UNL1        0.0010
     16  C         17.3240  -24.5510   -6.2440 C.2     1  UNL1        0.0010
     17  C         18.3730  -23.9940   -6.9800 C.2     1  UNL1        0.0130
     18  C         23.4670  -22.6840  -11.0410 C.2     1  UNL1        0.1030
     19  C         23.0220  -22.0350  -12.1900 C.2     1  UNL1        0.0610
     20  C         24.1360  -21.8060  -13.0350 C.2     1  UNL1        0.0920
     21  C         25.2440  -22.3240  -12.4060 C.2     1  UNL1        0.1150
     22  N         24.8340  -22.8590  -11.2100 N.pl3   1  UNL1       -0.3550
     23  C         25.7280  -23.5020  -10.2670 C.3     1  UNL1        0.1560
     24  S         24.0820  -21.0300  -14.5680 S.O2    1  UNL1        0.2400
     25  O         23.9270  -22.0960  -15.5280 O.2     1  UNL1       -0.2060
     26  O         25.2000  -20.1180  -14.5700 O.2     1  UNL1       -0.2060
     27  N         22.6930  -20.0940  -14.6590 N.3     1  UNL1       -0.2250
     28  H         22.8840  -19.1800  -14.2440 H       1  UNL1        0.1360
     29  H         22.4040  -20.0270  -15.6360 H       1  UNL1        0.1360
@<TRIPOS>BOND
     1    29    27    1
     2    25    24    2
     3    27    24    1
     4    27    28    1
     5    26    24    2
     6    24    20    1
     7    20    21    2
     8    20    19    1
     9    21    22    1
    10    19    18    2
    11    22    18    1
    12    22    23    1
    13    18     2    1
    14     9     8    1
    15     9    10    2
    16     4     1    1
    17    11    10    1
    18     8     7    2
    19     2     1   am
    20     2     3    2
    21    10    12    1
    22     1     5    1
    23     7     5    1
    24     7    14    1
    25    12    14    2
    26    12    13    1
    27     5     6    1
    28    14    17    1
    29    13    15    2
    30    17    16    2
    31    15    16    1
