@<TRIPOS>MOLECULE
21221_out_ligand_01.pdbqt
 33 36 0 0 0
SMALL
GASTEIGER

@<TRIPOS>ATOM
      1  C         20.0810  -21.5500  -11.2260 C.2     1  UNL1        0.2560
      2  O         19.5860  -20.4480  -11.4270 O.2     1  UNL1       -0.2670
      3  N         19.5060  -22.6090  -10.5480 N.am    1  UNL1       -0.3230
      4  H         19.9840  -23.4990  -10.5910 H       1  UNL1        0.1690
      5  C         18.2740  -22.6140   -9.8590 C.2     1  UNL1        0.0350
      6  C         17.0470  -22.3370  -10.4540 C.2     1  UNL1        0.0290
      7  C         15.8780  -22.3490   -9.6910 C.2     1  UNL1        0.0030
      8  C         15.9240  -22.6350   -8.3260 C.2     1  UNL1        0.0100
      9  C         17.1450  -22.9150   -7.6930 C.2     1  UNL1       -0.0190
     10  C         18.3110  -22.9030   -8.4860 C.2     1  UNL1        0.0390
     11  C         17.2350  -23.2480   -6.2060 C.3     1  UNL1        0.1390
     12  C         18.0080  -24.5430   -5.9520 C.3     1  UNL1        0.0540
     13  N         15.9420  -23.3070   -5.5510 N.am    1  UNL1       -0.3210
     14  C         15.8080  -22.3840   -4.5480 C.2     1  UNL1        0.3240
     15  H         15.2210  -23.9930   -5.7290 H       1  UNL1        0.1650
     16  O         14.8330  -22.2760   -3.8260 O.2     1  UNL1       -0.2470
     17  N         16.9340  -21.6440   -4.4840 N.am    1  UNL1       -0.2770
     18  C         17.8570  -22.0940   -5.3770 C.2     1  UNL1        0.2580
     19  H         17.0940  -20.9210   -3.8050 H       1  UNL1        0.1730
     20  O         18.9960  -21.6550   -5.4710 O.2     1  UNL1       -0.2700
     21  C         21.4280  -21.8290  -11.7990 C.2     1  UNL1        0.0340
     22  C         21.7810  -21.2070  -13.0000 C.2     1  UNL1        0.0470
     23  C         23.0370  -21.4460  -13.5610 C.2     1  UNL1        0.0460
     24  N         23.3680  -20.8230  -14.7690 N.am    1  UNL1       -0.3230
     25  C         23.9670  -22.2970  -12.9360 C.2     1  UNL1       -0.0030
     26  C         24.5680  -20.9900  -15.4000 C.2     1  UNL1        0.2460
     27  H         22.7120  -20.2040  -15.2260 H       1  UNL1        0.1690
     28  C         25.5450  -21.8850  -14.7420 C.2     1  UNL1        0.0820
     29  O         24.8370  -20.4360  -16.4600 O.2     1  UNL1       -0.2680
     30  C         25.2820  -22.5100  -13.5800 C.2     1  UNL1       -0.0440
     31  C         26.2980  -23.4100  -12.9400 C.3     1  UNL1        0.0490
     32  C         23.6060  -22.8970  -11.7210 C.2     1  UNL1        0.0150
     33  C         22.3480  -22.6630  -11.1530 C.2     1  UNL1        0.0180
@<TRIPOS>BOND
     1    29    26    2
     2    26    24   am
     3    26    28    1
     4    27    24    1
     5    24    23    1
     6    28    30    2
     7    30    31    1
     8    30    25    1
     9    23    22    1
    10    23    25    2
    11    22    21    2
    12    25    32    1
    13    21     1    1
    14    21    33    1
    15    32    33    2
    16     2     1    2
    17     1     3   am
    18     4     3    1
    19     3     5    1
    20     6     5    2
    21     6     7    1
    22     5    10    1
    23     7     8    2
    24    10     9    2
    25     8     9    1
    26     9    11    1
    27    11    12    1
    28    11    13    1
    29    11    18    1
    30    15    13    1
    31    13    14   am
    32    20    18    2
    33    18    17   am
    34    14    17   am
    35    14    16    2
    36    17    19    1
