@<TRIPOS>MOLECULE
21236_out_ligand_01.pdbqt
 36 39 0 0 0
SMALL
GASTEIGER

@<TRIPOS>ATOM
      1  C         21.2620  -22.0850  -11.2490 C.2     1  UNL1        0.0360
      2  C         20.9770  -21.0920  -12.1870 C.2     1  UNL1        0.0320
      3  C         19.6720  -20.6100  -12.3800 C.2     1  UNL1        0.0340
      4  C         18.6640  -21.1660  -11.5900 C.ar    1  UNL1        0.0640
      5  N         17.3160  -20.9460  -11.5320 N.ar    1  UNL1       -0.2750
      6  N         16.6710  -21.7010  -10.6300 N.ar    1  UNL1       -0.1550
      7  C         17.6330  -22.4290  -10.0600 C.ar    1  UNL1        0.1630
      8  C         18.9070  -22.1440  -10.6360 C.ar    1  UNL1        0.0420
      9  C         20.2260  -22.6090  -10.4600 C.2     1  UNL1        0.0470
     10  H         16.7710  -20.2940  -12.0840 H       1  UNL1        0.1890
     11  N         22.5510  -22.6200  -11.0290 N.am    1  UNL1       -0.3240
     12  C         23.5380  -22.1130  -10.2090 C.2     1  UNL1        0.2450
     13  O         23.4920  -21.1200   -9.5000 O.2     1  UNL1       -0.2680
     14  H         22.7880  -23.4370  -11.5800 H       1  UNL1        0.1690
     15  C         24.7610  -22.9550  -10.2690 C.2     1  UNL1        0.0750
     16  C         25.7980  -22.7140  -11.0840 C.2     1  UNL1        0.0190
     17  C         25.8730  -21.6270  -12.0650 C.2     1  UNL1       -0.0130
     18  C         26.3970  -20.3880  -11.6860 C.2     1  UNL1        0.1280
     19  N         26.5090  -19.3150  -12.5030 N.2     1  UNL1       -0.2720
     20  C         26.0930  -19.4910  -13.7730 C.2     1  UNL1        0.1160
     21  C         25.5580  -20.6780  -14.2560 C.2     1  UNL1        0.0270
     22  C         25.4320  -21.7710  -13.3890 C.2     1  UNL1       -0.0490
     23  C         24.8860  -23.0680  -13.9080 C.3     1  UNL1        0.0490
     24  N         17.4620  -23.3440   -9.0420 N.am    1  UNL1       -0.3060
     25  C         16.4150  -23.3970   -8.1630 C.2     1  UNL1        0.2460
     26  O         15.4540  -22.6460   -8.0740 O.2     1  UNL1       -0.2680
     27  H         18.1930  -24.0280   -8.9690 H       1  UNL1        0.1700
     28  C         16.5200  -24.5030   -7.1600 C.2     1  UNL1        0.0750
     29  C         16.9430  -24.4610   -5.8830 C.2     1  UNL1        0.0190
     30  C         17.4140  -23.2780   -5.1560 C.2     1  UNL1       -0.0130
     31  C         18.3960  -22.4750   -5.7450 C.2     1  UNL1        0.1280
     32  N         18.9960  -21.4280   -5.1350 N.2     1  UNL1       -0.2720
     33  C         18.5540  -21.1270   -3.8940 C.2     1  UNL1        0.1160
     34  C         17.5580  -21.8330   -3.2370 C.2     1  UNL1        0.0270
     35  C         16.9680  -22.9310   -3.8740 C.2     1  UNL1       -0.0490
     36  C         15.9090  -23.7140   -3.1540 C.3     1  UNL1        0.0490
@<TRIPOS>BOND
     1    21    20    2
     2    21    22    1
     3    23    22    1
     4    20    19    1
     5    22    17    2
     6    19    18    2
     7     3     2    1
     8     3     4    2
     9     2     1    2
    10    10     5    1
    11    17    18    1
    12    17    16    1
    13     4     5   ar
    14     4     8   ar
    15    14    11    1
    16     5     6   ar
    17     1    11    1
    18     1     9    1
    19    16    15    2
    20    11    12   am
    21     8     9    2
    22     8     7   ar
    23     6     7   ar
    24    15    12    1
    25    12    13    2
    26     7    24    1
    27    24    27    1
    28    24    25   am
    29    25    26    2
    30    25    28    1
    31    28    29    2
    32    29    30    1
    33    31    30    2
    34    31    32    1
    35    30    35    1
    36    32    33    2
    37    33    34    1
    38    35    34    2
    39    35    36    1
