@<TRIPOS>MOLECULE
21241_out_ligand_01.pdbqt
 32 35 0 0 0
SMALL
GASTEIGER

@<TRIPOS>ATOM
      1  C         20.1180  -21.8860  -11.3520 C.2     1  UNL1        0.0320
      2  C         19.0590  -21.0840  -11.7920 C.2     1  UNL1        0.0170
      3  C         17.7740  -21.2840  -11.2780 C.2     1  UNL1        0.0100
      4  C         17.5330  -22.2860  -10.3260 C.2     1  UNL1       -0.0400
      5  C         18.5930  -23.1020   -9.9100 C.2     1  UNL1        0.0100
      6  C         19.8780  -22.9050  -10.4210 C.2     1  UNL1        0.0170
      7  C         16.1350  -22.5120   -9.8060 C.3     1  UNL1        0.1610
      8  N         16.1330  -22.5940   -8.3670 N.am    1  UNL1       -0.3530
      9  C         15.8760  -23.7620   -7.6890 C.2     1  UNL1        0.2540
     10  O         15.5350  -24.7950   -8.2580 O.2     1  UNL1       -0.2680
     11  H         16.5220  -21.8160   -7.8430 H       1  UNL1        0.1630
     12  C         16.0550  -23.7450   -6.2020 C.2     1  UNL1        0.0650
     13  C         14.8960  -23.8930   -5.4200 C.2     1  UNL1        0.0200
     14  C         14.9670  -23.9100   -4.0260 C.2     1  UNL1        0.0010
     15  C         16.2000  -23.7840   -3.3920 C.2     1  UNL1        0.0030
     16  C         17.3600  -23.6290   -4.1500 C.2     1  UNL1        0.0380
     17  C         17.2880  -23.5870   -5.5490 C.2     1  UNL1        0.0850
     18  O         18.4520  -23.4400   -6.2680 O.2     1  UNL1       -0.3450
     19  C         18.8660  -22.0720   -6.5080 C.3     1  UNL1        0.1290
     20  C         19.1070  -21.2340   -5.2260 C.3     1  UNL1        0.0320
     21  C         20.2860  -20.5670   -5.9590 C.3     1  UNL1        0.0050
     22  C         20.3640  -21.8310   -6.8360 C.3     1  UNL1        0.0320
     23  C         21.5040  -21.7150  -11.8750 C.2     1  UNL1        0.2560
     24  O         21.6620  -21.0720  -12.9070 O.2     1  UNL1       -0.2670
     25  N         22.4880  -22.3520  -11.1400 N.am    1  UNL1       -0.3230
     26  H         22.1810  -22.9550  -10.3880 H       1  UNL1        0.1690
     27  C         23.8800  -22.3260  -11.3780 C.2     1  UNL1        0.0370
     28  C         24.7630  -21.4630  -10.7370 C.2     1  UNL1        0.0490
     29  C         26.1110  -21.5410  -11.0530 C.2     1  UNL1        0.1180
     30  N         26.6270  -22.4080  -11.9490 N.2     1  UNL1       -0.2730
     31  C         25.7540  -23.2350  -12.5560 C.2     1  UNL1        0.1180
     32  C         24.3900  -23.2340  -12.3070 C.2     1  UNL1        0.0490
@<TRIPOS>BOND
     1    24    23    2
     2    31    32    1
     3    31    30    2
     4    32    27    2
     5    30    29    1
     6    23     1    1
     7    23    25   am
     8     2     1    2
     9     2     3    1
    10    27    25    1
    11    27    28    1
    12     1     6    1
    13     3     4    2
    14    25    26    1
    15    29    28    2
    16     6     5    2
    17     4     5    1
    18     4     7    1
    19     7     8    1
    20     8    11    1
    21     8     9   am
    22    10     9    2
    23     9    12    1
    24    22    19    1
    25    22    21    1
    26    19    18    1
    27    19    20    1
    28    18    17    1
    29    12    17    2
    30    12    13    1
    31    21    20    1
    32    17    16    1
    33    13    14    2
    34    16    15    2
    35    14    15    1
