@<TRIPOS>MOLECULE
21258_out_ligand_01.pdbqt
 31 34 0 0 0
SMALL
GASTEIGER

@<TRIPOS>ATOM
      1  C         17.1740  -22.6280   -7.5120 C.2     1  UNL1       -0.0190
      2  C         15.9280  -22.8120   -8.1310 C.2     1  UNL1        0.0100
      3  C         15.8280  -22.9110   -9.5190 C.2     1  UNL1        0.0030
      4  C         16.9690  -22.8280  -10.3200 C.2     1  UNL1        0.0290
      5  C         18.2210  -22.6480   -9.7410 C.2     1  UNL1        0.0350
      6  C         18.3110  -22.5420   -8.3440 C.2     1  UNL1        0.0390
      7  N         19.4260  -22.5580  -10.4710 N.am    1  UNL1       -0.3230
      8  C         19.8720  -21.4850  -11.2210 C.2     1  UNL1        0.2560
      9  O         19.2800  -20.4330  -11.4290 O.2     1  UNL1       -0.2670
     10  H         19.9780  -23.4050  -10.5000 H       1  UNL1        0.1690
     11  C         21.2070  -21.6740  -11.8590 C.2     1  UNL1        0.0350
     12  C         22.1460  -22.4870  -11.1960 C.2     1  UNL1        0.0190
     13  C         23.4210  -22.7200  -11.7350 C.2     1  UNL1        0.0360
     14  C         23.7320  -22.1290  -12.9660 C.ar    1  UNL1        0.0940
     15  N         24.8700  -22.1750  -13.7290 N.ar    1  UNL1       -0.2160
     16  C         22.7750  -21.3510  -13.5960 C.ar    1  UNL1        0.1080
     17  C         24.5720  -21.4390  -14.7820 C.ar    1  UNL1        0.2070
     18  O         23.3100  -20.9050  -14.7680 O.2     1  UNL1       -0.2840
     19  C         21.5030  -21.0890  -13.1020 C.2     1  UNL1        0.0560
     20  S         25.6880  -21.1690  -16.0810 S.3     1  UNL1       -0.0970
     21  H         25.5090  -19.8440  -16.1440 H       1  UNL1        0.1100
     22  C         17.3210  -22.4930   -5.9990 C.3     1  UNL1        0.1390
     23  C         18.6660  -21.8810   -5.6040 C.3     1  UNL1        0.0540
     24  N         16.2380  -21.7500   -5.3830 N.am    1  UNL1       -0.3210
     25  C         15.5270  -22.4920   -4.4760 C.2     1  UNL1        0.3240
     26  H         16.0440  -20.7670   -5.5170 H       1  UNL1        0.1650
     27  O         14.6080  -22.0700   -3.7980 O.2     1  UNL1       -0.2470
     28  N         16.0320  -23.7430   -4.4470 N.am    1  UNL1       -0.2770
     29  C         17.1200  -23.8410   -5.2590 C.2     1  UNL1        0.2580
     30  H         15.7060  -24.4670   -3.8310 H       1  UNL1        0.1730
     31  O         17.8230  -24.8390   -5.3510 O.2     1  UNL1       -0.2700
@<TRIPOS>BOND
     1    21    20    1
     2    20    17    1
     3    17    18   ar
     4    17    15   ar
     5    18    16   ar
     6    15    14   ar
     7    16    19    1
     8    16    14   ar
     9    19    11    2
    10    14    13    1
    11    11     8    1
    12    11    12    1
    13    13    12    2
    14     9     8    2
    15     8     7   am
    16    10     7    1
    17     7     5    1
    18     4     5    2
    19     4     3    1
    20     5     6    1
    21     3     2    2
    22     6     1    2
    23     2     1    1
    24     1    22    1
    25    22    23    1
    26    22    24    1
    27    22    29    1
    28    26    24    1
    29    24    25   am
    30    31    29    2
    31    29    28   am
    32    25    28   am
    33    25    27    2
    34    28    30    1
