@<TRIPOS>MOLECULE
21253_out_ligand_01.pdbqt
 32 35 0 0 0
SMALL
GASTEIGER

@<TRIPOS>ATOM
      1  C         17.8180  -22.8440   -7.9490 C.ar    1  UNL1       -0.0180
      2  C         19.0660  -22.7830   -7.3400 C.ar    1  UNL1        0.0500
      3  N         18.8560  -22.5570   -6.0000 N.ar    1  UNL1       -0.3540
      4  C         17.5150  -22.4610   -5.7210 C.ar    1  UNL1        0.0430
      5  C         16.8630  -22.2360   -4.5000 C.2     1  UNL1        0.0330
      6  C         15.4680  -22.1860   -4.5160 C.2     1  UNL1        0.0440
      7  C         14.7700  -22.3560   -5.7050 C.2     1  UNL1        0.1170
      8  F         13.4310  -22.3000   -5.6900 F       1  UNL1       -0.2060
      9  C         15.4260  -22.5810   -6.9150 C.2     1  UNL1        0.0560
     10  C         16.8350  -22.6370   -6.9250 C.ar    1  UNL1        0.0020
     11  H         19.5910  -22.4850   -5.3100 H       1  UNL1        0.1660
     12  C         17.5410  -23.0630   -9.4090 C.3     1  UNL1        0.0510
     13  C         16.9790  -21.8140  -10.0820 C.3     1  UNL1        0.1070
     14  C         17.9370  -21.2700  -11.1180 C.2     1  UNL1        0.2170
     15  O         17.5800  -20.7590  -12.1730 O.2     1  UNL1       -0.2740
     16  N         19.2590  -21.4190  -10.7530 N.am    1  UNL1       -0.3610
     17  H         19.4610  -21.6560   -9.7880 H       1  UNL1        0.1620
     18  C         20.3500  -20.8860  -11.5440 C.3     1  UNL1        0.1240
     19  C         21.2720  -21.9490  -12.1430 C.3     1  UNL1        0.0410
     20  C         22.7610  -21.6010  -12.1060 C.3     1  UNL1        0.1470
     21  N         23.4110  -21.6220  -13.3960 N.pl3   1  UNL1       -0.2840
     22  C         24.4840  -22.3700  -13.7810 C.2     1  UNL1        0.1280
     23  C         24.6830  -22.0010  -15.0900 C.2     1  UNL1        0.1540
     24  N         23.7550  -21.0660  -15.4470 N.2     1  UNL1       -0.1710
     25  N         22.9700  -20.8450  -14.4010 N.2     1  UNL1        0.0040
     26  C         20.4100  -22.9100   -7.8950 C.2     1  UNL1       -0.0090
     27  C         21.3500  -21.8850   -7.7140 C.2     1  UNL1        0.0170
     28  C         22.6280  -21.9960   -8.2640 C.2     1  UNL1        0.0430
     29  C         22.9650  -23.1310   -8.9920 C.2     1  UNL1        0.1160
     30  F         24.1890  -23.2330   -9.5230 F       1  UNL1       -0.2060
     31  C         22.0490  -24.1590   -9.1780 C.2     1  UNL1        0.0430
     32  C         20.7700  -24.0490   -8.6280 C.2     1  UNL1        0.0170
@<TRIPOS>BOND
     1    24    23    1
     2    24    25    2
     3    23    22    2
     4    25    21    1
     5    22    21    1
     6    21    20    1
     7    15    14    2
     8    19    20    1
     9    19    18    1
    10    18    16    1
    11    14    16   am
    12    14    13    1
    13    16    17    1
    14    13    12    1
    15    30    29    1
    16    12     1    1
    17    31    29    2
    18    31    32    1
    19    29    28    1
    20    32    26    2
    21    28    27    2
    22     1     2   ar
    23     1    10   ar
    24    26    27    1
    25    26     2    1
    26     2     3   ar
    27    10     9    1
    28    10     4   ar
    29     9     7    2
    30     3     4   ar
    31     3    11    1
    32     4     5    1
    33     7     8    1
    34     7     6    1
    35     6     5    2
