@<TRIPOS>MOLECULE
21265_out_ligand_01.pdbqt
 31 33 0 0 0
SMALL
GASTEIGER

@<TRIPOS>ATOM
      1  N         20.0880  -22.1450  -10.1320 N.am    1  UNL1       -0.3260
      2  C         19.4750  -23.1750   -9.4280 C.2     1  UNL1        0.2350
      3  O         20.0000  -24.2420   -9.1270 O.2     1  UNL1       -0.2720
      4  H         19.5730  -21.2750  -10.1810 H       1  UNL1        0.1690
      5  C         18.0150  -22.8380   -9.0190 C.3     1  UNL1        0.0680
      6  C         17.0490  -23.9910   -9.3840 C.3     1  UNL1        0.0240
      7  C         15.6870  -23.3220   -9.5250 C.3     1  UNL1        0.0020
      8  C         15.9770  -21.9300  -10.0740 C.3     1  UNL1        0.0020
      9  C         17.4900  -21.7310   -9.9640 C.3     1  UNL1        0.0240
     10  C         17.9400  -22.5450   -7.5080 C.2     1  UNL1       -0.0400
     11  C         18.9920  -21.8320   -6.9010 C.2     1  UNL1        0.0080
     12  C         18.9720  -21.5260   -5.5400 C.2     1  UNL1        0.0010
     13  C         17.9000  -21.9310   -4.7500 C.2     1  UNL1        0.0160
     14  C         16.8430  -22.6540   -5.3160 C.2     1  UNL1        0.0480
     15  C         16.8700  -22.9480   -6.6930 C.2     1  UNL1        0.0240
     16  C         15.6670  -23.0880   -4.4740 C.3     1  UNL1        0.4170
     17  F         14.9980  -22.0380   -3.9200 F       1  UNL1       -0.1660
     18  F         14.7350  -23.8020   -5.1640 F       1  UNL1       -0.1660
     19  F         16.0480  -23.8780   -3.4320 F       1  UNL1       -0.1660
     20  C         21.3840  -22.1310  -10.6870 C.2     1  UNL1        0.0350
     21  C         21.6680  -21.8000  -12.0160 C.2     1  UNL1        0.0490
     22  C         22.9940  -21.8040  -12.4910 C.2     1  UNL1        0.0720
     23  C         24.0250  -22.1450  -11.6160 C.2     1  UNL1        0.1320
     24  C         23.7560  -22.4720  -10.2920 C.2     1  UNL1        0.0450
     25  F         25.3060  -22.1650  -12.0190 F       1  UNL1       -0.2050
     26  C         22.4410  -22.4630   -9.8280 C.2     1  UNL1        0.0320
     27  C         23.2360  -21.4360  -13.9120 C.2     1  UNL1        0.2520
     28  N         22.6360  -20.3110  -14.4010 N.am    1  UNL1       -0.3660
     29  H         22.8030  -20.0720  -15.3700 H       1  UNL1        0.1590
     30  H         22.0280  -19.7200  -13.8500 H       1  UNL1        0.1590
     31  O         23.9520  -22.1130  -14.6400 O.2     1  UNL1       -0.2680
@<TRIPOS>BOND
     1    29    28    1
     2    31    27    2
     3    28    27   am
     4    28    30    1
     5    27    22    1
     6    22    21    1
     7    22    23    2
     8    25    23    1
     9    21    20    2
    10    23    24    1
    11    20     1    1
    12    20    26    1
    13    24    26    2
    14     4     1    1
    15     1     2   am
    16     8     9    1
    17     8     7    1
    18     9     5    1
    19     7     6    1
    20     2     3    2
    21     2     5    1
    22     6     5    1
    23     5    10    1
    24    10    11    2
    25    10    15    1
    26    11    12    1
    27    15    14    2
    28    12    13    2
    29    14    13    1
    30    14    16    1
    31    18    16    1
    32    16    17    1
    33    16    19    1
