@<TRIPOS>MOLECULE
21270_out_ligand_01.pdbqt
 26 29 0 0 0
SMALL
GASTEIGER

@<TRIPOS>ATOM
      1  C         23.7750  -21.8590  -12.9730 C.2     1  UNL1        0.0400
      2  C         24.9620  -22.4000  -12.4650 C.2     1  UNL1        0.0180
      3  C         24.9690  -22.9840  -11.2070 C.2     1  UNL1        0.0030
      4  C         23.7840  -23.0640  -10.4740 C.2     1  UNL1        0.0300
      5  C         22.5650  -22.5680  -10.9730 C.2     1  UNL1        0.0440
      6  C         22.5780  -21.8920  -12.2190 C.2     1  UNL1       -0.0150
      7  C         21.3220  -21.2480  -12.7620 C.3     1  UNL1        0.0430
      8  C         20.2920  -21.0020  -11.6740 C.3     1  UNL1        0.0250
      9  C         20.1080  -22.2780  -10.8860 C.3     1  UNL1        0.1330
     10  N         21.3430  -22.6900  -10.2120 N.am    1  UNL1       -0.3120
     11  C         21.2410  -23.5250   -9.0780 C.2     1  UNL1        0.2770
     12  O         21.9340  -24.5260   -8.8780 O.2     1  UNL1       -0.2650
     13  C         20.2320  -23.1780   -8.0210 C.2     1  UNL1        0.1280
     14  C         20.4220  -22.0410   -7.2700 C.2     1  UNL1        0.0560
     15  C         19.4250  -21.7650   -6.3760 C.2     1  UNL1        0.1210
     16  N         18.3310  -22.5350   -6.2240 N.2     1  UNL1       -0.2450
     17  C         18.2120  -23.6260   -7.0080 C.2     1  UNL1        0.1300
     18  N         19.1430  -23.9720   -7.9150 N.2     1  UNL1       -0.2280
     19  C         16.9980  -24.5190   -6.8740 C.3     1  UNL1        0.0570
     20  C         15.6540  -23.9160   -6.5200 C.3     1  UNL1        0.0130
     21  C         15.8750  -24.4970   -7.8890 C.3     1  UNL1        0.0130
     22  C         23.8380  -21.2590  -14.3310 C.2     1  UNL1        0.2490
     23  N         24.3880  -20.0070  -14.3930 N.am    1  UNL1       -0.3660
     24  H         24.5290  -19.6080  -15.3130 H       1  UNL1        0.1590
     25  H         24.8680  -19.5890  -13.6060 H       1  UNL1        0.1590
     26  O         23.4340  -21.8310  -15.3320 O.2     1  UNL1       -0.2680
@<TRIPOS>BOND
     1    26    22    2
     2    24    23    1
     3    23    22   am
     4    23    25    1
     5    22     1    1
     6     1     2    2
     7     1     6    1
     8     7     6    1
     9     7     8    1
    10     2     3    1
    11     6     5    2
    12     8     9    1
    13     3     4    2
    14     5     4    1
    15     5    10    1
    16     9    10    1
    17    10    11   am
    18    11    12    2
    19    11    13    1
    20    13    18    2
    21    13    14    1
    22    18    17    1
    23    21    19    1
    24    21    20    1
    25    14    15    2
    26    17    19    1
    27    17    16    2
    28    19    20    1
    29    15    16    1
