@<TRIPOS>MOLECULE
21277_out_ligand_01.pdbqt
 30 33 0 0 0
SMALL
GASTEIGER

@<TRIPOS>ATOM
      1  C         21.1750  -21.8140  -11.8450 C.2     1  UNL1       -0.0030
      2  C         21.4150  -21.2340  -13.0770 C.2     1  UNL1        0.0650
      3  S         23.0690  -21.2590  -13.4920 S.3     1  UNL1       -0.0800
      4  C         23.4820  -22.0470  -12.0380 C.2     1  UNL1        0.1130
      5  N         24.7630  -22.3630  -11.7920 N.2     1  UNL1       -0.2340
      6  C         24.9130  -22.9740  -10.6170 C.2     1  UNL1        0.2360
      7  N         23.9610  -23.2600   -9.7190 N.2     1  UNL1       -0.2240
      8  C         22.6760  -22.9250   -9.9820 C.2     1  UNL1        0.1390
      9  C         22.3900  -22.2890  -11.2150 C.2     1  UNL1        0.0570
     10  N         21.6870  -23.2190   -9.0510 N.pl3   1  UNL1       -0.3700
     11  H         20.8700  -23.6680   -9.4460 H       1  UNL1        0.1610
     12  C         21.4190  -22.2740   -7.9870 C.3     1  UNL1        0.1600
     13  C         20.0710  -22.5530   -7.3610 C.2     1  UNL1       -0.0410
     14  C         19.4310  -21.5770   -6.5820 C.2     1  UNL1        0.0100
     15  C         18.1820  -21.8310   -6.0060 C.2     1  UNL1        0.0170
     16  C         17.5560  -23.0660   -6.2110 C.2     1  UNL1        0.0310
     17  C         18.1920  -24.0460   -6.9810 C.2     1  UNL1        0.0170
     18  C         19.4370  -23.7870   -7.5580 C.2     1  UNL1        0.0100
     19  C         16.2280  -23.3830   -5.6200 C.2     1  UNL1        0.2490
     20  N         15.1740  -22.5890   -5.9800 N.am    1  UNL1       -0.3660
     21  H         15.2090  -22.0170   -6.8130 H       1  UNL1        0.1590
     22  H         14.2640  -22.9150   -5.6820 H       1  UNL1        0.1590
     23  O         16.0650  -24.3370   -4.8700 O.2     1  UNL1       -0.2680
     24  C         19.8110  -21.9040  -11.3450 C.2     1  UNL1       -0.0240
     25  C         19.0130  -20.7560  -11.2780 C.2     1  UNL1        0.0130
     26  C         17.6960  -20.8430  -10.8200 C.2     1  UNL1        0.0070
     27  C         17.1670  -22.0730  -10.4130 C.2     1  UNL1       -0.0620
     28  C         15.7440  -22.1740   -9.9480 C.3     1  UNL1        0.0480
     29  C         17.9660  -23.2210  -10.4930 C.2     1  UNL1        0.0070
     30  C         19.2830  -23.1370  -10.9510 C.2     1  UNL1        0.0130
@<TRIPOS>BOND
     1     3     2    1
     2     3     4    1
     3     2     1    2
     4     4     5    2
     5     4     9    1
     6     1    24    1
     7     1     9    1
     8     5     6    1
     9    24    25    2
    10    24    30    1
    11    25    26    1
    12     9     8    2
    13    30    29    2
    14    26    27    2
    15     6     7    2
    16    29    27    1
    17    27    28    1
    18     8     7    1
    19     8    10    1
    20    11    10    1
    21    10    12    1
    22    12    13    1
    23    18    13    2
    24    18    17    1
    25    13    14    1
    26    17    16    2
    27    21    20    1
    28    14    15    2
    29    16    15    1
    30    16    19    1
    31    20    22    1
    32    20    19   am
    33    19    23    2
