@<TRIPOS>MOLECULE
21279_out_ligand_01.pdbqt
 31 34 0 0 0
SMALL
GASTEIGER

@<TRIPOS>ATOM
      1  C         18.5250  -22.3950   -9.4980 C.2     1  UNL1        0.0350
      2  C         18.0400  -21.6310  -10.5590 C.2     1  UNL1        0.0300
      3  C         18.8660  -21.3160  -11.6460 C.2     1  UNL1        0.0110
      4  C         20.1890  -21.7710  -11.6940 C.2     1  UNL1       -0.0400
      5  C         20.6720  -22.5440  -10.6320 C.2     1  UNL1        0.0110
      6  C         19.8480  -22.8540   -9.5460 C.2     1  UNL1        0.0300
      7  C         21.0920  -21.4100  -12.8480 C.3     1  UNL1        0.1620
      8  N         22.4720  -21.7320  -12.5530 N.am    1  UNL1       -0.3390
      9  C         23.4730  -21.3630  -13.4110 C.2     1  UNL1        0.3190
     10  O         23.2770  -20.6950  -14.4220 O.2     1  UNL1       -0.2470
     11  N         24.7250  -21.8010  -13.0450 N.am    1  UNL1       -0.3250
     12  C         25.1820  -22.1920  -11.7210 C.3     1  UNL1        0.0910
     13  C         25.9100  -21.3660  -13.7650 C.3     1  UNL1        0.0910
     14  C         26.4370  -23.0120  -12.0510 C.3     1  UNL1        0.0270
     15  C         25.5260  -20.9060  -10.9470 C.3     1  UNL1        0.0570
     16  C         26.9190  -22.4650  -13.4090 C.3     1  UNL1        0.0270
     17  C         26.5840  -20.0630  -11.6840 C.3     1  UNL1        0.1220
     18  C         26.3300  -19.9960  -13.2000 C.3     1  UNL1        0.0570
     19  H         22.6160  -22.6160  -12.0960 H       1  UNL1        0.1640
     20  O         26.6220  -18.7430  -11.1520 O.3     1  UNL1       -0.3950
     21  H         25.8110  -18.2860  -11.4300 H       1  UNL1        0.2100
     22  N         17.7660  -22.7410   -8.3590 N.am    1  UNL1       -0.3230
     23  C         18.0270  -22.4090   -7.0420 C.2     1  UNL1        0.2570
     24  O         18.9870  -21.7750   -6.6210 O.2     1  UNL1       -0.2670
     25  H         16.9930  -23.3710   -8.5410 H       1  UNL1        0.1690
     26  C         17.0540  -22.9290   -6.0520 C.2     1  UNL1        0.0490
     27  C         15.6940  -22.6530   -6.2070 C.2     1  UNL1        0.0200
     28  C         14.7870  -23.1300   -5.2640 C.2     1  UNL1        0.0200
     29  C         15.2730  -23.8720   -4.1990 C.2     1  UNL1        0.1160
     30  N         16.5790  -24.1720   -4.0310 N.2     1  UNL1       -0.2720
     31  C         17.4380  -23.7060   -4.9690 C.2     1  UNL1        0.1330
@<TRIPOS>BOND
     1    10     9    2
     2    13    16    1
     3    13    18    1
     4    13    11    1
     5     9    11   am
     6     9     8   am
     7    16    14    1
     8    18    17    1
     9    11    12    1
    10     7     8    1
    11     7     4    1
    12     8    19    1
    13    14    12    1
    14    12    15    1
    15     4     3    2
    16     4     5    1
    17    17    20    1
    18    17    15    1
    19     3     2    1
    20    21    20    1
    21     5     6    2
    22     2     1    2
    23     6     1    1
    24     1    22    1
    25    25    22    1
    26    22    23   am
    27    23    24    2
    28    23    26    1
    29    27    26    2
    30    27    28    1
    31    26    31    1
    32    28    29    2
    33    31    30    2
    34    29    30    1
