@<TRIPOS>MOLECULE
21275_out_ligand_01.pdbqt
 39 43 0 0 0
SMALL
GASTEIGER

@<TRIPOS>ATOM
      1  C         20.4790  -22.2360  -11.0430 C.2     1  UNL1        0.0320
      2  C         21.1090  -21.7500  -12.1970 C.2     1  UNL1        0.0190
      3  C         22.4590  -22.0350  -12.4310 C.2     1  UNL1        0.0310
      4  C         23.1820  -22.7900  -11.5050 C.2     1  UNL1        0.0420
      5  C         22.5670  -23.2680  -10.3490 C.2     1  UNL1        0.0310
      6  C         21.2190  -22.9880  -10.1160 C.2     1  UNL1        0.0190
      7  N         24.5570  -23.0660  -11.7170 N.pl3   1  UNL1       -0.2810
      8  H         24.8100  -23.5880  -12.5530 H       1  UNL1        0.1790
      9  S         25.6780  -21.8440  -11.3940 S.O2    1  UNL1        0.2630
     10  O         25.0210  -20.9350  -10.4740 O.2     1  UNL1       -0.2000
     11  O         26.9610  -22.4330  -11.0680 O.2     1  UNL1       -0.2000
     12  C         25.8120  -21.0170  -12.9630 C.2     1  UNL1        0.0820
     13  C         25.4450  -21.7050  -14.1460 C.2     1  UNL1        0.0280
     14  C         25.5170  -21.0700  -15.3910 C.2     1  UNL1        0.0330
     15  C         25.9420  -19.7610  -15.3930 C.ar    1  UNL1        0.0630
     16  N         26.1010  -18.8790  -16.4570 N.ar    1  UNL1       -0.3070
     17  C         26.2900  -19.0870  -14.2230 C.ar    1  UNL1        0.0640
     18  C         26.5450  -17.6450  -15.9590 C.ar    1  UNL1        0.3250
     19  H         25.9200  -19.0540  -17.4300 H       1  UNL1        0.1700
     20  O         26.7770  -16.6420  -16.6070 O.2     1  UNL1       -0.2470
     21  N         26.6610  -17.7920  -14.5710 N.ar    1  UNL1       -0.3060
     22  H         26.9490  -17.0500  -13.9510 H       1  UNL1        0.1700
     23  C         26.2340  -19.6790  -12.9860 C.2     1  UNL1        0.0570
     24  C         19.0480  -21.9550  -10.7380 C.2     1  UNL1        0.2510
     25  N         18.3350  -22.9630  -10.1290 N.am    1  UNL1       -0.3530
     26  H         18.8220  -23.7590   -9.7450 H       1  UNL1        0.1630
     27  O         18.5750  -20.8560  -11.0030 O.2     1  UNL1       -0.2680
     28  C         16.9710  -22.7700   -9.6850 C.3     1  UNL1        0.1610
     29  C         16.8890  -22.7410   -8.1810 C.2     1  UNL1       -0.0400
     30  C         17.8410  -22.0570   -7.4210 C.2     1  UNL1        0.0180
     31  C         17.7800  -22.0490   -6.0120 C.2     1  UNL1       -0.0310
     32  C         18.8680  -21.3190   -5.2610 C.3     1  UNL1        0.0420
     33  C         16.7650  -22.7540   -5.3260 C.2     1  UNL1        0.0360
     34  C         18.4880  -21.0720   -3.8100 C.3     1  UNL1        0.0240
     35  C         17.9320  -22.3570   -3.2210 C.3     1  UNL1        0.1230
     36  N         16.7080  -22.7500   -3.9230 N.pl3   1  UNL1       -0.3850
     37  C         15.8950  -23.7570   -3.2520 C.3     1  UNL1        0.1490
     38  C         15.8020  -23.4080   -6.1130 C.2     1  UNL1        0.0300
     39  C         15.8660  -23.4160   -7.5110 C.2     1  UNL1        0.0110
@<TRIPOS>BOND
     1    19    16    1
     2    20    18    2
     3    16    18   ar
     4    16    15   ar
     5    18    21   ar
     6    15    14    2
     7    15    17   ar
     8    14    13    1
     9    21    17   ar
    10    21    22    1
    11    17    23    2
    12    13    12    2
    13    23    12    1
    14    12     9    1
    15     8     7    1
    16     3     2    1
    17     3     4    2
    18     2     1    2
    19     7     4    1
    20     7     9    1
    21     4     5    1
    22     9    11    2
    23     9    10    2
    24     1    24    1
    25     1     6    1
    26    27    24    2
    27    24    25   am
    28     5     6    2
    29    25    26    1
    30    25    28    1
    31    28    29    1
    32    29    39    2
    33    29    30    1
    34    39    38    1
    35    30    31    2
    36    38    33    2
    37    31    33    1
    38    31    32    1
    39    33    36    1
    40    32    34    1
    41    36    37    1
    42    36    35    1
    43    34    35    1
