@<TRIPOS>MOLECULE
21283_out_ligand_01.pdbqt
 32 35 0 0 0
SMALL
GASTEIGER

@<TRIPOS>ATOM
      1  C         22.0810  -22.3290   -9.3580 C.ar    1  UNL1        0.1040
      2  S         23.7210  -22.8410   -9.4800 S.2     1  UNL1       -0.0600
      3  C         23.5720  -22.9280  -11.1830 C.ar    1  UNL1        0.1330
      4  C         24.6690  -23.3070  -12.0310 C.2     1  UNL1        0.1100
      5  C         24.6710  -23.4490  -13.4110 C.2     1  UNL1        0.0420
      6  C         25.9770  -23.8340  -13.7980 C.2     1  UNL1        0.0270
      7  C         26.7060  -23.9070  -12.6380 C.2     1  UNL1        0.1420
      8  O         25.9330  -23.5920  -11.5690 O.2     1  UNL1       -0.3200
      9  N         22.3840  -22.6230  -11.6630 N.ar    1  UNL1       -0.2360
     10  C         21.5140  -22.3310  -10.6230 C.ar    1  UNL1        0.0910
     11  C         21.5510  -21.9950   -8.0450 C.2     1  UNL1        0.2650
     12  N         20.2120  -22.3160   -7.8800 N.am    1  UNL1       -0.3220
     13  H         19.7380  -22.6950   -8.6910 H       1  UNL1        0.1690
     14  O         22.2380  -21.4530   -7.1850 O.2     1  UNL1       -0.2670
     15  C         19.4150  -22.1760   -6.7250 C.2     1  UNL1        0.0360
     16  C         18.3760  -23.0430   -6.3680 C.2     1  UNL1        0.0490
     17  C         17.6250  -22.8240   -5.1970 C.2     1  UNL1        0.0720
     18  C         17.9310  -21.7270   -4.3920 C.2     1  UNL1        0.1320
     19  C         18.9590  -20.8560   -4.7360 C.2     1  UNL1        0.0450
     20  F         17.2470  -21.4730   -3.2650 F       1  UNL1       -0.2050
     21  C         19.6970  -21.0800   -5.8990 C.2     1  UNL1        0.0320
     22  C         16.5290  -23.7750   -4.8710 C.2     1  UNL1        0.2520
     23  N         15.5190  -23.9340   -5.7760 N.am    1  UNL1       -0.3660
     24  H         14.7780  -24.5830   -5.5460 H       1  UNL1        0.1590
     25  H         15.4800  -23.4430   -6.6600 H       1  UNL1        0.1590
     26  O         16.5160  -24.4090   -3.8230 O.2     1  UNL1       -0.2680
     27  C         20.1200  -22.0330  -10.9240 C.2     1  UNL1       -0.0060
     28  C         19.7970  -20.8260  -11.5560 C.2     1  UNL1        0.0140
     29  C         18.4660  -20.5060  -11.8310 C.2     1  UNL1        0.0010
     30  C         17.4510  -21.3970  -11.4850 C.2     1  UNL1        0.0000
     31  C         17.7650  -22.6100  -10.8740 C.2     1  UNL1        0.0010
     32  C         19.0960  -22.9320  -10.6000 C.2     1  UNL1        0.0140
@<TRIPOS>BOND
     1     6     5    1
     2     6     7    2
     3     5     4    2
     4     7     8    1
     5     4     8    1
     6     4     3    1
     7    29    28    1
     8    29    30    2
     9     9     3   ar
    10     9    10   ar
    11    28    27    2
    12    30    31    1
    13     3     2   ar
    14    27    10    1
    15    27    32    1
    16    31    32    2
    17    10     1   ar
    18     2     1   ar
    19     1    11    1
    20    13    12    1
    21    11    12   am
    22    11    14    2
    23    12    15    1
    24    15    16    2
    25    15    21    1
    26    25    23    1
    27    16    17    1
    28    21    19    2
    29    23    24    1
    30    23    22   am
    31    17    22    1
    32    17    18    2
    33    22    26    2
    34    19    18    1
    35    18    20    1
