@<TRIPOS>MOLECULE
21284_out_ligand_01.pdbqt
 27 29 0 0 0
SMALL
GASTEIGER

@<TRIPOS>ATOM
      1  C         18.9030  -23.5910   -8.3810 C.2     1  UNL1        0.2350
      2  O         19.7290  -24.5050   -8.3370 O.2     1  UNL1       -0.2720
      3  N         18.9890  -22.4950   -9.2320 N.am    1  UNL1       -0.3260
      4  H         18.2720  -21.7890   -9.1110 H       1  UNL1        0.1690
      5  C         19.9820  -22.2130  -10.1890 C.2     1  UNL1        0.0350
      6  C         19.7180  -21.8540  -11.5120 C.2     1  UNL1        0.0320
      7  C         20.7670  -21.5890  -12.3970 C.2     1  UNL1        0.0450
      8  C         22.0860  -21.6790  -11.9620 C.2     1  UNL1        0.1320
      9  F         23.0620  -21.4150  -12.8450 F       1  UNL1       -0.2050
     10  C         22.3770  -22.0330  -10.6450 C.2     1  UNL1        0.0720
     11  C         21.3150  -22.2980   -9.7640 C.2     1  UNL1        0.0490
     12  C         23.7620  -22.1420  -10.1220 C.2     1  UNL1        0.2520
     13  N         24.1600  -23.3300   -9.5820 N.am    1  UNL1       -0.3660
     14  H         25.1040  -23.4000   -9.2260 H       1  UNL1        0.1590
     15  H         23.5550  -24.1420   -9.5200 H       1  UNL1        0.1590
     16  O         24.5360  -21.1930  -10.1710 O.2     1  UNL1       -0.2680
     17  C         17.6020  -23.5430   -7.4610 C.3     1  UNL1        0.0680
     18  C         16.9310  -24.9480   -7.1830 C.3     1  UNL1        0.0240
     19  C         15.5630  -24.2700   -7.3570 C.3     1  UNL1        0.0030
     20  C         16.2660  -23.2210   -8.2330 C.3     1  UNL1        0.0240
     21  C         17.9750  -22.6860   -6.1390 C.2     1  UNL1       -0.0400
     22  C         17.5670  -23.1210   -4.8600 C.2     1  UNL1        0.0080
     23  C         17.8770  -22.4130   -3.6970 C.2     1  UNL1        0.0010
     24  C         18.6160  -21.2390   -3.7750 C.2     1  UNL1        0.0070
     25  C         19.0580  -20.7730   -5.0130 C.2     1  UNL1       -0.0610
     26  C         19.8280  -19.4890   -5.1120 C.3     1  UNL1        0.0480
     27  C         18.7250  -21.4900   -6.1740 C.2     1  UNL1        0.0150
@<TRIPOS>BOND
     1     9     8    1
     2     7     8    2
     3     7     6    1
     4     8    10    1
     5     6     5    2
     6    10    12    1
     7    10    11    2
     8     5    11    1
     9     5     3    1
    10    16    12    2
    11    12    13   am
    12    13    15    1
    13    13    14    1
    14     3     4    1
    15     3     1   am
    16     1     2    2
    17     1    17    1
    18    20    17    1
    19    20    19    1
    20    17    18    1
    21    17    21    1
    22    19    18    1
    23    27    21    2
    24    27    25    1
    25    21    22    1
    26    26    25    1
    27    25    24    2
    28    22    23    2
    29    24    23    1
