@<TRIPOS>MOLECULE
21286_out_ligand_01.pdbqt
 35 38 0 0 0
SMALL
GASTEIGER

@<TRIPOS>ATOM
      1  C         22.0360  -22.0880   -9.2320 C.2     1  UNL1        0.0800
      2  C         23.3750  -22.2850   -9.5190 C.2     1  UNL1        0.1320
      3  N         23.4540  -22.5770  -10.8470 N.pl3   1  UNL1       -0.2750
      4  N         22.2660  -22.5100  -11.4700 N.2     1  UNL1       -0.1710
      5  C         21.3890  -22.1960  -10.5030 C.2     1  UNL1        0.1040
      6  C         21.5230  -21.8160   -7.8910 C.2     1  UNL1        0.2600
      7  N         20.2060  -22.1900   -7.6960 N.am    1  UNL1       -0.3230
      8  H         19.7520  -22.6670   -8.4660 H       1  UNL1        0.1690
      9  O         22.2550  -21.3280   -7.0360 O.2     1  UNL1       -0.2670
     10  C         19.4160  -22.0140   -6.5430 C.2     1  UNL1        0.0360
     11  C         18.3620  -22.9200   -6.3510 C.2     1  UNL1        0.0490
     12  C         17.5150  -22.8200   -5.2340 C.2     1  UNL1        0.0720
     13  C         17.7360  -21.8020   -4.3100 C.2     1  UNL1        0.1320
     14  C         18.7760  -20.8950   -4.4890 C.2     1  UNL1        0.0450
     15  F         16.9570  -21.6610   -3.2260 F       1  UNL1       -0.2050
     16  C         19.6140  -21.0000   -5.6040 C.2     1  UNL1        0.0320
     17  C         16.4180  -23.8130   -5.0980 C.2     1  UNL1        0.2520
     18  N         15.6160  -24.0460   -6.1760 N.am    1  UNL1       -0.3660
     19  H         14.8680  -24.7200   -6.0750 H       1  UNL1        0.1590
     20  H         15.7270  -23.5720   -7.0640 H       1  UNL1        0.1590
     21  O         16.2320  -24.4130   -4.0440 O.2     1  UNL1       -0.2680
     22  C         19.9800  -22.0040  -10.8350 C.2     1  UNL1       -0.0050
     23  C         19.5560  -20.8610  -11.5250 C.2     1  UNL1        0.0140
     24  C         18.1990  -20.6630  -11.7890 C.2     1  UNL1        0.0010
     25  C         17.2610  -21.6090  -11.3760 C.2     1  UNL1        0.0000
     26  C         17.6790  -22.7600  -10.7060 C.2     1  UNL1        0.0010
     27  C         19.0350  -22.9600  -10.4400 C.2     1  UNL1        0.0140
     28  C         24.6590  -22.8540  -11.6230 C.3     1  UNL1        0.1900
     29  C         25.3240  -21.6000  -12.1380 C.2     1  UNL1       -0.0170
     30  C         26.1800  -20.8790  -11.2830 C.2     1  UNL1        0.0100
     31  C         26.8250  -19.7230  -11.7240 C.2     1  UNL1        0.0010
     32  C         26.6270  -19.2650  -13.0230 C.2     1  UNL1        0.0020
     33  C         25.7810  -19.9650  -13.8830 C.2     1  UNL1        0.0240
     34  C         25.1330  -21.1240  -13.4460 C.2     1  UNL1        0.0420
     35 CL         24.0980  -21.9290  -14.5690 Cl      1  UNL1       -0.0840
@<TRIPOS>BOND
     1    35    34    1
     2    33    34    1
     3    33    32    2
     4    34    29    2
     5    32    31    1
     6    29    28    1
     7    29    30    1
     8    24    23    1
     9    24    25    2
    10    31    30    2
    11    28     3    1
    12    23    22    2
    13     4     3    1
    14     4     5    2
    15    25    26    1
    16     3     2    1
    17    22     5    1
    18    22    27    1
    19    26    27    2
    20     5     1    1
    21     2     1    2
    22     1     6    1
    23     8     7    1
    24     6     7   am
    25     6     9    2
    26     7    10    1
    27    20    18    1
    28    10    11    2
    29    10    16    1
    30    11    12    1
    31    18    19    1
    32    18    17   am
    33    16    14    2
    34    12    17    1
    35    12    13    2
    36    17    21    2
    37    14    13    1
    38    13    15    1
