@<TRIPOS>MOLECULE
21282_out_ligand_01.pdbqt
 27 29 0 0 0
SMALL
GASTEIGER

@<TRIPOS>ATOM
      1  N         18.9110  -22.4890   -9.1560 N.am    1  UNL1       -0.3260
      2  C         18.9020  -23.5180   -8.2230 C.2     1  UNL1        0.2350
      3  O         19.7930  -24.3620   -8.1050 O.2     1  UNL1       -0.2720
      4  H         18.0890  -21.8980   -9.1710 H       1  UNL1        0.1690
      5  C         19.8980  -22.1990  -10.1200 C.2     1  UNL1        0.0350
      6  C         21.2350  -22.2880   -9.7060 C.2     1  UNL1        0.0490
      7  C         22.2890  -22.0170  -10.5950 C.2     1  UNL1        0.0720
      8  C         21.9890  -21.6560  -11.9050 C.2     1  UNL1        0.1320
      9  C         20.6670  -21.5640  -12.3310 C.2     1  UNL1        0.0450
     10  F         22.9580  -21.3870  -12.7950 F       1  UNL1       -0.2050
     11  C         19.6240  -21.8350  -11.4400 C.2     1  UNL1        0.0320
     12  C         23.6790  -22.1340  -10.0810 C.2     1  UNL1        0.2520
     13  N         24.0830  -23.3330   -9.5720 N.am    1  UNL1       -0.3660
     14  H         23.4830  -24.1490   -9.5290 H       1  UNL1        0.1590
     15  H         25.0300  -23.4090   -9.2250 H       1  UNL1        0.1590
     16  O         24.4470  -21.1790  -10.1100 O.2     1  UNL1       -0.2680
     17  C         17.6010  -23.4940   -7.3060 C.3     1  UNL1        0.0680
     18  C         16.2780  -23.0480   -8.0490 C.3     1  UNL1        0.0240
     19  C         15.5310  -24.1360   -7.2610 C.3     1  UNL1        0.0030
     20  C         16.8700  -24.8820   -7.1460 C.3     1  UNL1        0.0240
     21  C         17.9680  -22.6460   -5.9760 C.2     1  UNL1       -0.0370
     22  C         17.6820  -23.0920   -4.6670 C.2     1  UNL1        0.0090
     23  C         18.0200  -22.3440   -3.5320 C.2     1  UNL1        0.0040
     24  C         18.6610  -21.1180   -3.6720 C.2     1  UNL1        0.0420
     25  C         18.9590  -20.6560   -4.9440 C.2     1  UNL1        0.1170
     26  F         19.5780  -19.4770   -5.0900 F       1  UNL1       -0.2060
     27  C         18.6240  -21.4000   -6.0740 C.2     1  UNL1        0.0500
@<TRIPOS>BOND
     1    10     8    1
     2     9     8    2
     3     9    11    1
     4     8     7    1
     5    11     5    2
     6     7    12    1
     7     7     6    2
     8     5     6    1
     9     5     1    1
    10    16    12    2
    11    12    13   am
    12    13    14    1
    13    13    15    1
    14     4     1    1
    15     1     2   am
    16     2     3    2
    17     2    17    1
    18    18    17    1
    19    18    19    1
    20    17    20    1
    21    17    21    1
    22    19    20    1
    23    27    21    2
    24    27    25    1
    25    21    22    1
    26    26    25    1
    27    25    24    2
    28    22    23    2
    29    24    23    1
