@<TRIPOS>MOLECULE
21290_out_ligand_01.pdbqt
 34 37 0 0 0
SMALL
GASTEIGER

@<TRIPOS>ATOM
      1  C         21.1550  -23.1610   -8.2990 C.2     1  UNL1        0.2570
      2  O         20.7050  -24.2740   -8.0650 O.2     1  UNL1       -0.2670
      3  N         20.7960  -21.9610   -7.7170 N.am    1  UNL1       -0.3230
      4  H         21.2210  -21.1210   -8.0940 H       1  UNL1        0.1690
      5  C         19.8540  -21.7590   -6.6870 C.2     1  UNL1        0.0350
      6  C         20.0740  -20.9410   -5.5830 C.2     1  UNL1        0.0290
      7  C         19.0840  -20.7930   -4.6100 C.2     1  UNL1        0.0030
      8  C         17.8650  -21.4620   -4.7320 C.2     1  UNL1        0.0100
      9  C         17.6100  -22.2950   -5.8300 C.2     1  UNL1       -0.0190
     10  C         18.6240  -22.4220   -6.8040 C.2     1  UNL1        0.0390
     11  C         16.2850  -23.0310   -6.0070 C.3     1  UNL1        0.1390
     12  C         16.4300  -24.2850   -6.8690 C.3     1  UNL1        0.0540
     13  N         15.2280  -22.1870   -6.5360 N.am    1  UNL1       -0.3210
     14  C         14.1650  -22.0620   -5.6820 C.2     1  UNL1        0.3240
     15  H         15.2030  -21.7860   -7.4640 H       1  UNL1        0.1650
     16  O         13.1420  -21.4490   -5.9250 O.2     1  UNL1       -0.2470
     17  N         14.4330  -22.7470   -4.5490 N.am    1  UNL1       -0.2770
     18  C         15.6240  -23.3970   -4.6520 C.2     1  UNL1        0.2580
     19  H         13.7900  -22.8400   -3.7830 H       1  UNL1        0.1730
     20  O         16.0690  -24.1630   -3.8050 O.2     1  UNL1       -0.2700
     21  C         22.2130  -23.0310   -9.3300 C.2     1  UNL1        0.0490
     22  C         23.4650  -23.5590   -9.0270 C.2     1  UNL1        0.0750
     23  C         24.4250  -23.4370   -9.9920 C.2     1  UNL1        0.1630
     24  N         24.2570  -22.8580  -11.1840 N.2     1  UNL1       -0.2210
     25  C         23.0390  -22.3530  -11.4820 C.2     1  UNL1        0.1090
     26  C         22.8170  -21.7460  -12.7180 C.2     1  UNL1        0.1460
     27  C         21.9570  -22.4120  -10.5780 C.2     1  UNL1        0.0120
     28  C         21.5880  -21.2000  -13.0870 C.2     1  UNL1        0.0510
     29  F         23.8210  -21.6740  -13.6100 F       1  UNL1       -0.2040
     30  C         20.5190  -21.2360  -12.1980 C.2     1  UNL1       -0.0580
     31  C         19.1780  -20.6880  -12.5840 C.3     1  UNL1        0.0480
     32  C         20.7070  -21.8510  -10.9550 C.2     1  UNL1        0.0210
     33  O         25.6730  -23.9210   -9.7850 O.2     1  UNL1       -0.3450
     34  H         25.6330  -24.1040   -8.8270 H       1  UNL1        0.2190
@<TRIPOS>BOND
     1    29    26    1
     2    28    26    1
     3    28    30    2
     4    26    25    2
     5    31    30    1
     6    30    32    1
     7    25    24    1
     8    25    27    1
     9    24    23    2
    10    32    27    2
    11    27    21    1
    12    23    33    1
    13    23    22    1
    14    33    34    1
    15    21    22    2
    16    21     1    1
    17     1     2    2
    18     1     3   am
    19     4     3    1
    20     3     5    1
    21    15    13    1
    22    12    11    1
    23    10     5    2
    24    10     9    1
    25     5     6    1
    26    13    11    1
    27    13    14   am
    28    11     9    1
    29    11    18    1
    30    16    14    2
    31     9     8    2
    32    14    17   am
    33     6     7    2
    34     8     7    1
    35    18    17   am
    36    18    20    2
    37    17    19    1
