@<TRIPOS>MOLECULE
21293_out_ligand_01.pdbqt
 25 27 0 0 0
SMALL
GASTEIGER

@<TRIPOS>ATOM
      1  N         20.4690  -22.3150  -10.5240 N.am    1  UNL1       -0.3220
      2  C         19.3480  -21.5260  -10.7070 C.2     1  UNL1        0.2590
      3  O         19.2920  -20.4880  -11.3520 O.2     1  UNL1       -0.2670
      4  H         20.2960  -23.2140  -10.1010 H       1  UNL1        0.1690
      5  C         21.7960  -22.0670  -10.9490 C.2     1  UNL1        0.0420
      6  C         22.1460  -21.9470  -12.3000 C.2     1  UNL1        0.0470
      7  C         23.4700  -21.6790  -12.6800 C.2     1  UNL1        0.0340
      8  C         24.4620  -21.5500  -11.7080 C.2     1  UNL1        0.0170
      9  C         24.1270  -21.6690  -10.3600 C.2     1  UNL1        0.0100
     10  C         22.8020  -21.9230   -9.9660 C.2     1  UNL1       -0.0350
     11  C         22.5140  -22.0400   -8.4920 C.3     1  UNL1        0.0500
     12  C         23.7870  -21.5620  -14.1290 C.2     1  UNL1        0.2490
     13  N         23.2240  -20.5150  -14.8070 N.am    1  UNL1       -0.3660
     14  H         22.4190  -20.0220  -14.4480 H       1  UNL1        0.1590
     15  H         23.3390  -20.5400  -15.8130 H       1  UNL1        0.1590
     16  O         24.4910  -22.3760  -14.7090 O.2     1  UNL1       -0.2680
     17  C         18.1470  -22.0770  -10.0910 C.2     1  UNL1        0.0670
     18  C         16.8730  -21.8120  -10.5560 C.2     1  UNL1        0.1600
     19  O         15.9370  -22.4720   -9.8300 O.2     1  UNL1       -0.3210
     20  C         16.5980  -23.1440   -8.8510 C.2     1  UNL1        0.0860
     21  C         15.9930  -23.9360   -7.8770 C.2     1  UNL1        0.0380
     22  C         17.9690  -22.9240   -8.9470 C.2     1  UNL1        0.0150
     23  C         16.8390  -24.5250   -6.9340 C.2     1  UNL1        0.0030
     24  C         18.2180  -24.3140   -6.9740 C.2     1  UNL1        0.0010
     25  C         18.7990  -23.5120   -7.9690 C.2     1  UNL1        0.0150
@<TRIPOS>BOND
     1    15    13    1
     2    13    14    1
     3    13    12   am
     4    16    12    2
     5    12     7    1
     6     7     6    1
     7     7     8    2
     8     6     5    2
     9     8     9    1
    10     3     2    2
    11     5     1    1
    12     5    10    1
    13     2     1   am
    14     2    17    1
    15    18    17    2
    16    18    19    1
    17     1     4    1
    18     9    10    2
    19    17    22    1
    20    10    11    1
    21    19    20    1
    22    22    20    2
    23    22    25    1
    24    20    21    1
    25    25    24    2
    26    21    23    2
    27    24    23    1
