@<TRIPOS>MOLECULE
2132_out_ligand_01.pdbqt
 33 35 0 0 0
SMALL
GASTEIGER

@<TRIPOS>ATOM
      1  C         18.7510  -21.9200  -11.0580 C.2     1  UNL1        0.0320
      2  C         18.9650  -23.1600  -10.4460 C.2     1  UNL1        0.0170
      3  C         17.9640  -23.7340   -9.6590 C.2     1  UNL1        0.0100
      4  C         16.7450  -23.0700   -9.4600 C.2     1  UNL1       -0.0400
      5  C         16.5390  -21.8240  -10.0710 C.2     1  UNL1        0.0100
      6  C         17.5390  -21.2470  -10.8610 C.2     1  UNL1        0.0170
      7  C         15.6660  -23.7090   -8.6180 C.3     1  UNL1        0.1700
      8  N         15.6180  -23.0890   -7.3000 N.3     1  UNL1       -0.3110
      9  H         15.5300  -22.0780   -7.2420 H       1  UNL1        0.1720
     10  S         16.5250  -23.7650   -6.0710 S.O2    1  UNL1        0.2590
     11  O         15.7560  -23.6760   -4.8500 O.2     1  UNL1       -0.2010
     12  O         17.0270  -25.0240   -6.5720 O.2     1  UNL1       -0.2010
     13  C         17.8950  -22.6410   -5.9740 C.2     1  UNL1        0.0800
     14  C         17.8720  -21.6240   -5.0160 C.2     1  UNL1        0.0250
     15  C         18.9480  -20.7440   -4.9230 C.2     1  UNL1        0.0020
     16  C         20.0370  -20.8760   -5.7890 C.2     1  UNL1        0.0160
     17  C         20.0590  -21.8850   -6.7660 C.2     1  UNL1        0.0490
     18  C         18.9760  -22.7740   -6.8510 C.2     1  UNL1        0.0410
     19  C         21.2420  -22.0390   -7.6950 C.3     1  UNL1        0.4170
     20  F         22.3730  -21.4590   -7.2070 F       1  UNL1       -0.1660
     21  F         21.5670  -23.3370   -7.9490 F       1  UNL1       -0.1660
     22  F         21.0170  -21.4630   -8.9080 F       1  UNL1       -0.1660
     23  C         19.8460  -21.3370  -11.8840 C.2     1  UNL1        0.2560
     24  N         21.0450  -22.0250  -11.8250 N.am    1  UNL1       -0.3230
     25  H         21.1130  -22.7740  -11.1500 H       1  UNL1        0.1690
     26  O         19.6160  -20.3060  -12.5020 O.2     1  UNL1       -0.2670
     27  C         22.2320  -21.7330  -12.5310 C.2     1  UNL1        0.0350
     28  C         22.2700  -21.0430  -13.7420 C.2     1  UNL1        0.0300
     29  C         23.4890  -20.7990  -14.3840 C.2     1  UNL1        0.0090
     30  C         24.6920  -21.2360  -13.8220 C.2     1  UNL1       -0.0620
     31  C         25.9990  -20.9980  -14.5170 C.3     1  UNL1        0.0480
     32  C         24.6550  -21.9410  -12.6150 C.2     1  UNL1        0.0090
     33  C         23.4350  -22.1840  -11.9750 C.2     1  UNL1        0.0300
@<TRIPOS>BOND
     1    31    30    1
     2    29    30    2
     3    29    28    1
     4    30    32    1
     5    28    27    2
     6    32    33    2
     7    27    33    1
     8    27    24    1
     9    26    23    2
    10    23    24   am
    11    23     1    1
    12    24    25    1
    13     1     6    2
    14     1     2    1
    15     6     5    1
    16     2     3    2
    17     5     4    2
    18     3     4    1
    19     4     7    1
    20    22    19    1
    21     7     8    1
    22    21    19    1
    23    19    20    1
    24    19    17    1
    25     8     9    1
    26     8    10    1
    27    18    17    1
    28    18    13    2
    29    17    16    2
    30    12    10    2
    31    10    13    1
    32    10    11    2
    33    13    14    1
    34    16    15    1
    35    14    15    2
