@<TRIPOS>MOLECULE
21382_out_ligand_01.pdbqt
 34 37 0 0 0
SMALL
GASTEIGER

@<TRIPOS>ATOM
      1  N         22.9150  -22.4820  -11.2010 N.am    1  UNL1       -0.3260
      2  C         23.8620  -21.7890  -10.4570 C.2     1  UNL1        0.2400
      3  O         23.6380  -21.0560   -9.4960 O.2     1  UNL1       -0.2710
      4  H         23.2350  -23.0080  -12.0040 H       1  UNL1        0.1690
      5  C         21.5250  -22.5550  -10.9570 C.2     1  UNL1        0.0340
      6  C         20.5820  -21.7120  -11.5430 C.2     1  UNL1        0.0300
      7  C         19.2240  -21.8330  -11.2250 C.2     1  UNL1        0.0090
      8  C         18.7850  -22.7970  -10.3110 C.2     1  UNL1       -0.0580
      9  C         19.7290  -23.6480   -9.7290 C.2     1  UNL1        0.0090
     10  C         21.0850  -23.5280  -10.0500 C.2     1  UNL1        0.0300
     11  C         17.3190  -22.9170   -9.9700 C.3     1  UNL1        0.0390
     12  C         16.9490  -22.0710   -8.7460 C.3     1  UNL1        0.0090
     13  C         17.0900  -22.7830   -7.3820 C.3     1  UNL1       -0.0070
     14  C         15.7370  -23.3000   -6.8420 C.3     1  UNL1        0.0350
     15  C         15.2350  -22.5030   -5.6390 C.3     1  UNL1        0.2720
     16  N         16.1830  -22.4520   -4.5210 N.3     1  UNL1        0.0840
     17  C         17.5930  -22.5580   -4.9220 C.3     1  UNL1        0.2760
     18  C         15.8650  -23.4330   -3.4850 C.3     1  UNL1        0.3090
     19  C         17.8500  -21.9560   -6.3150 C.3     1  UNL1        0.0140
     20  C         19.3520  -21.9070   -6.6020 C.3     1  UNL1        0.0120
     21  C         25.2880  -22.0420  -10.9200 C.3     1  UNL1        0.2330
     22  N         25.7450  -20.9820  -11.7960 N.pl3   1  UNL1       -0.3250
     23  C         26.4220  -19.8600  -11.3820 C.2     1  UNL1        0.2130
     24  N         26.7100  -19.0610  -12.3890 N.2     1  UNL1       -0.2230
     25  C         26.1820  -19.6860  -13.4770 C.ar    1  UNL1        0.1670
     26  C         25.6010  -20.8800  -13.1520 C.ar    1  UNL1        0.1510
     27  N         26.2090  -19.2180  -14.7740 N.ar    1  UNL1       -0.2860
     28  C         24.9980  -21.7230  -14.1250 C.ar    1  UNL1        0.2800
     29  O         24.5070  -22.8250  -13.9040 O.2     1  UNL1       -0.2650
     30  N         25.0460  -21.1830  -15.3910 N.ar    1  UNL1       -0.2730
     31  C         25.6220  -19.9850  -15.7740 C.ar    1  UNL1        0.3300
     32  H         24.6300  -21.7260  -16.1310 H       1  UNL1        0.1730
     33  O         25.5930  -19.6630  -16.9630 O.2     1  UNL1       -0.2460
     34  C         26.8340  -17.9460  -15.0850 C.3     1  UNL1        0.1630
@<TRIPOS>BOND
     1    33    31    2
     2    32    30    1
     3    31    30   ar
     4    31    27   ar
     5    30    28   ar
     6    34    27    1
     7    27    25   ar
     8    28    29    2
     9    28    26   ar
    10    25    26   ar
    11    25    24    1
    12    26    22    1
    13    24    23    2
    14     4     1    1
    15    22    23    1
    16    22    21    1
    17     6     7    1
    18     6     5    2
    19     7     8    2
    20     1     5    1
    21     1     2   am
    22     5    10    1
    23    21     2    1
    24     2     3    2
    25     8    11    1
    26     8     9    1
    27    10     9    2
    28    11    12    1
    29    12    13    1
    30    13    14    1
    31    13    19    1
    32    14    15    1
    33    20    19    1
    34    19    17    1
    35    15    16    1
    36    17    16    1
    37    16    18    1
