@<TRIPOS>MOLECULE
213_out_ligand_01.pdbqt
 36 38 0 0 0
SMALL
GASTEIGER

@<TRIPOS>ATOM
      1  C         19.2120  -22.3020  -10.4360 C.2     1  UNL1        0.0810
      2  C         20.4760  -22.8640  -10.1590 C.2     1  UNL1        0.0420
      3  C         21.6160  -22.4190  -10.8350 C.2     1  UNL1        0.0330
      4  C         21.4740  -21.3960  -11.7790 C.2     1  UNL1        0.0170
      5  C         20.2260  -20.8330  -12.0540 C.2     1  UNL1        0.0090
      6  C         19.0730  -21.2740  -11.3880 C.2     1  UNL1       -0.0390
      7  C         17.7580  -20.6700  -11.7910 C.3     1  UNL1        0.0500
      8  C         22.9630  -23.0460  -10.6820 C.2     1  UNL1        0.2520
      9  O         23.4060  -23.2820   -9.5600 O.2     1  UNL1       -0.2680
     10  N         23.7130  -23.2810  -11.8200 N.am    1  UNL1       -0.3480
     11  H         23.3830  -22.9390  -12.7110 H       1  UNL1        0.1630
     12  C         25.1620  -23.2760  -11.6970 C.3     1  UNL1        0.2260
     13  C         25.6860  -23.0380  -13.1190 C.2     1  UNL1        0.2390
     14  O         26.8150  -23.4230  -13.4300 O.2     1  UNL1       -0.2710
     15  N         24.7480  -22.4730  -13.9630 N.am    1  UNL1       -0.3250
     16  H         23.8630  -22.2170  -13.5340 H       1  UNL1        0.1690
     17  C         24.8330  -22.3180  -15.3710 C.2     1  UNL1        0.0410
     18  C         24.4980  -23.3560  -16.2500 C.2     1  UNL1        0.0300
     19  C         24.5050  -23.1580  -17.6300 C.2     1  UNL1        0.0030
     20  C         24.8210  -21.9120  -18.1530 C.2     1  UNL1        0.0070
     21  C         25.1620  -20.8470  -17.3030 C.2     1  UNL1       -0.0540
     22  C         25.4820  -19.5180  -17.9370 C.3     1  UNL1        0.0490
     23  C         25.2270  -21.0580  -15.9020 C.2     1  UNL1       -0.0290
     24  C         25.6910  -19.9480  -14.9860 C.3     1  UNL1        0.0510
     25  S         17.8170  -22.9470   -9.5100 S.O2    1  UNL1        0.2460
     26  O         17.0980  -23.8540  -10.3750 O.2     1  UNL1       -0.2060
     27  O         17.1350  -21.8240   -8.8950 O.2     1  UNL1       -0.2060
     28  N         18.5900  -23.7560   -8.2380 N.pl3   1  UNL1       -0.1810
     29  H         19.5520  -23.9770   -8.5200 H       1  UNL1        0.1460
     30  C         18.5610  -23.1760   -6.9290 C.2     1  UNL1        0.0220
     31  C         19.2550  -21.9800   -6.7460 C.2     1  UNL1        0.0250
     32  C         19.1960  -21.3060   -5.5250 C.2     1  UNL1        0.0080
     33  C         18.4030  -21.8020   -4.4810 C.2     1  UNL1       -0.0620
     34  C         18.3830  -21.0990   -3.1530 C.3     1  UNL1        0.0480
     35  C         17.6660  -22.9730   -4.6850 C.2     1  UNL1        0.0080
     36  C         17.7230  -23.6430   -5.9110 C.2     1  UNL1        0.0250
@<TRIPOS>BOND
     1    20    19    2
     2    20    21    1
     3    22    21    1
     4    19    18    1
     5    21    23    2
     6    18    17    2
     7    23    17    1
     8    23    24    1
     9    17    15    1
    10    15    16    1
    11    15    13   am
    12    14    13    2
    13    13    12    1
    14    11    10    1
    15     5     4    2
    16     5     6    1
    17    10    12    1
    18    10     8   am
    19     7     6    1
    20     4     3    1
    21     6     1    2
    22     3     8    1
    23     3     2    2
    24     8     9    2
    25     1     2    1
    26     1    25    1
    27    26    25    2
    28    25    27    2
    29    25    28    1
    30    29    28    1
    31    28    30    1
    32    30    31    2
    33    30    36    1
    34    31    32    1
    35    36    35    2
    36    32    33    2
    37    35    33    1
    38    33    34    1
