@<TRIPOS>MOLECULE
21409_out_ligand_01.pdbqt
 31 35 0 0 0
SMALL
GASTEIGER

@<TRIPOS>ATOM
      1  N         23.1620  -22.1820  -11.6100 N.am    1  UNL1       -0.3210
      2  C         21.8000  -22.1660  -11.3350 C.2     1  UNL1        0.2790
      3  O         20.9280  -22.1280  -12.1980 O.2     1  UNL1       -0.2650
      4  H         23.7830  -22.1610  -10.8150 H       1  UNL1        0.1690
      5  C         21.4810  -22.1860   -9.9120 C.2     1  UNL1        0.1430
      6  C         22.2090  -21.9370   -8.7600 C.2     1  UNL1        0.0450
      7  C         21.3290  -22.1250   -7.6640 C.2     1  UNL1        0.0360
      8  C         20.1080  -22.4810   -8.1950 C.2     1  UNL1        0.0620
      9  O         20.2010  -22.5170   -9.5550 O.2     1  UNL1       -0.3090
     10  C         18.7640  -22.8250   -7.6140 C.3     1  UNL1        0.0100
     11  C         18.5360  -22.0460   -6.2920 C.3     1  UNL1        0.0210
     12  C         17.1710  -22.4050   -5.6780 C.3     1  UNL1       -0.0130
     13  C         17.1240  -23.9160   -5.3950 C.3     1  UNL1        0.0090
     14  C         16.0580  -22.0400   -6.6710 C.3     1  UNL1        0.0090
     15  C         17.3150  -24.7040   -6.7010 C.3     1  UNL1       -0.0130
     16  C         16.2000  -24.3270   -7.6890 C.3     1  UNL1        0.0090
     17  C         18.6800  -24.3450   -7.3160 C.3     1  UNL1        0.0210
     18  C         16.2460  -22.8190   -7.9820 C.3     1  UNL1       -0.0130
     19  C         17.6120  -22.4620   -8.5910 C.3     1  UNL1        0.0210
     20  C         23.7920  -22.1980  -12.8730 C.2     1  UNL1        0.0350
     21  C         23.5850  -21.2360  -13.8670 C.2     1  UNL1        0.0310
     22  C         24.2460  -21.3300  -15.0970 C.2     1  UNL1        0.0270
     23  C         25.1290  -22.3850  -15.3300 C.2     1  UNL1        0.0740
     24  C         25.3380  -23.3610  -14.3560 C.2     1  UNL1        0.0270
     25  C         24.6690  -23.2630  -13.1330 C.2     1  UNL1        0.0310
     26  S         25.9610  -22.4900  -16.8920 S.O2    1  UNL1        0.2390
     27  O         26.0310  -21.1640  -17.4630 O.2     1  UNL1       -0.2060
     28  O         27.1210  -23.3310  -16.7340 O.2     1  UNL1       -0.2060
     29  N         24.8310  -23.3180  -17.8240 N.3     1  UNL1       -0.2250
     30  H         25.0680  -24.2990  -17.9750 H       1  UNL1        0.1360
     31  H         23.9070  -23.2070  -17.4030 H       1  UNL1        0.1360
@<TRIPOS>BOND
     1    30    29    1
     2    29    31    1
     3    29    26    1
     4    27    26    2
     5    26    28    2
     6    26    23    1
     7    23    22    2
     8    23    24    1
     9    22    21    1
    10    24    25    2
    11    21    20    2
    12    25    20    1
    13    20     1    1
    14     3     2    2
    15     1     2   am
    16     1     4    1
    17     2     5    1
    18     5     9    1
    19     5     6    2
    20     9     8    1
    21     6     7    1
    22    19    18    1
    23    19    10    1
    24     8     7    2
    25     8    10    1
    26    18    16    1
    27    18    14    1
    28    16    15    1
    29    10    17    1
    30    10    11    1
    31    17    15    1
    32    15    13    1
    33    14    12    1
    34    11    12    1
    35    12    13    1
