@<TRIPOS>MOLECULE
2141_out_ligand_01.pdbqt
 37 41 0 0 0
SMALL
GASTEIGER

@<TRIPOS>ATOM
      1  C         19.7510  -23.2730   -9.2590 C.2     1  UNL1        0.0800
      2  C         20.0080  -22.5620  -10.4330 C.2     1  UNL1        0.0270
      3  C         21.3030  -22.5460  -10.9570 C.2     1  UNL1        0.0310
      4  C         22.3460  -23.2320  -10.3150 C.2     1  UNL1        0.0340
      5  C         22.0770  -23.9140   -9.1240 C.2     1  UNL1        0.0310
      6  C         20.7850  -23.9270   -8.5880 C.2     1  UNL1        0.0270
      7  N         23.6120  -23.1860  -10.9270 N.am    1  UNL1       -0.3260
      8  C         24.5710  -22.1920  -10.8320 C.2     1  UNL1        0.2400
      9  O         24.4470  -21.1230  -10.2380 O.2     1  UNL1       -0.2710
     10  H         23.8630  -23.9840  -11.4990 H       1  UNL1        0.1690
     11  C         25.8300  -22.4690  -11.6620 C.3     1  UNL1        0.2350
     12  N         25.6080  -22.4530  -13.0910 N.am    1  UNL1       -0.3040
     13  C         25.2230  -23.5450  -13.8650 C.2     1  UNL1        0.2590
     14  O         25.0550  -24.6990  -13.5210 O.2     1  UNL1       -0.2670
     15  C         25.1130  -23.0260  -15.2450 C.2     1  UNL1        0.0450
     16  C         24.7710  -23.6290  -16.4390 C.2     1  UNL1        0.0180
     17  C         25.4530  -21.6990  -15.2020 C.2     1  UNL1        0.0170
     18  C         24.7830  -22.8290  -17.5950 C.2     1  UNL1        0.0020
     19  C         25.1350  -21.4570  -17.5380 C.2     1  UNL1        0.0120
     20  C         25.4870  -20.8570  -16.3090 C.2     1  UNL1       -0.0230
     21  C         25.8670  -19.5250  -16.0430 C.2     1  UNL1        0.0120
     22  C         26.1880  -19.1250  -14.7240 C.2     1  UNL1        0.0030
     23  C         26.1360  -20.0290  -13.6460 C.2     1  UNL1        0.0310
     24  C         25.7570  -21.3280  -13.9180 C.2     1  UNL1        0.0500
     25  S         18.1040  -23.3120   -8.5900 S.O2    1  UNL1        0.2630
     26  O         17.9970  -24.4680   -7.7240 O.2     1  UNL1       -0.2000
     27  O         17.1810  -23.1160   -9.6910 O.2     1  UNL1       -0.2000
     28  N         18.0260  -21.9010   -7.6630 N.pl3   1  UNL1       -0.2800
     29  H         18.6930  -21.2000   -7.9790 H       1  UNL1        0.1790
     30  C         17.7340  -21.9780   -6.2690 C.2     1  UNL1        0.0490
     31  C         18.6400  -21.4680   -5.3260 C.2     1  UNL1       -0.0350
     32  C         18.3390  -21.6010   -3.9620 C.2     1  UNL1        0.0090
     33  C         19.9150  -20.7790   -5.7280 C.3     1  UNL1        0.0500
     34  C         17.1600  -22.2210   -3.5460 C.2     1  UNL1        0.0070
     35  C         16.2440  -22.7000   -4.4830 C.2     1  UNL1       -0.0600
     36  C         14.9860  -23.3860   -4.0390 C.3     1  UNL1        0.0480
     37  C         16.5440  -22.5810   -5.8450 C.2     1  UNL1        0.0370
@<TRIPOS>BOND
     1    18    19    2
     2    18    16    1
     3    19    20    1
     4    16    15    2
     5    20    21    1
     6    20    17    2
     7    21    22    2
     8    15    17    1
     9    15    13    1
    10    17    24    1
    11    22    23    1
    12    24    23    2
    13    24    12    1
    14    13    14    2
    15    13    12   am
    16    12    11    1
    17    11     8    1
    18    10     7    1
    19     3     2    1
    20     3     4    2
    21     7     8   am
    22     7     4    1
    23     8     9    2
    24     2     1    2
    25     4     5    1
    26    27    25    2
    27     1    25    1
    28     1     6    1
    29     5     6    2
    30    25    26    2
    31    25    28    1
    32    29    28    1
    33    28    30    1
    34    30    37    2
    35    30    31    1
    36    37    35    1
    37    33    31    1
    38    31    32    2
    39    35    36    1
    40    35    34    2
    41    32    34    1
