@<TRIPOS>MOLECULE
2147_out_ligand_01.pdbqt
 31 34 0 0 0
SMALL
GASTEIGER

@<TRIPOS>ATOM
      1  C         21.1870  -22.9320   -8.7680 C.2     1  UNL1        0.0320
      2  C         20.7570  -24.2640   -8.7740 C.2     1  UNL1        0.0170
      3  C         19.6300  -24.6390   -8.0340 C.2     1  UNL1        0.0110
      4  C         18.9110  -23.6920   -7.2840 C.2     1  UNL1       -0.0250
      5  C         19.3510  -22.3570   -7.2940 C.2     1  UNL1        0.0110
      6  C         20.4750  -21.9790   -8.0360 C.2     1  UNL1        0.0170
      7  C         17.7000  -24.1310   -6.4840 C.3     1  UNL1        0.1830
      8  S         17.8500  -23.6730   -4.7410 S.3     1  UNL1       -0.1300
      9  C         16.5040  -22.4720   -4.8160 C.3     1  UNL1        0.1790
     10  C         15.7820  -22.7020   -6.1220 C.2     1  UNL1        0.2300
     11  O         14.7160  -22.1640   -6.4010 O.2     1  UNL1       -0.2730
     12  N         16.4550  -23.5700   -6.9600 N.am    1  UNL1       -0.3340
     13  C         15.8890  -23.9860   -8.2390 C.3     1  UNL1        0.1320
     14  C         15.5070  -22.8060   -9.1380 C.3     1  UNL1        0.0580
     15  C         16.6650  -22.3780  -10.0060 C.2     1  UNL1       -0.0570
     16  C         16.8090  -21.0340  -10.3760 C.2     1  UNL1        0.0070
     17  C         17.8650  -20.6350  -11.1960 C.2     1  UNL1        0.0010
     18  C         18.7840  -21.5760  -11.6550 C.2     1  UNL1        0.0000
     19  C         18.6470  -22.9170  -11.2990 C.2     1  UNL1        0.0010
     20  C         17.5910  -23.3190  -10.4790 C.2     1  UNL1        0.0070
     21  C         22.3730  -22.4880   -9.5470 C.2     1  UNL1        0.2520
     22  O         23.3540  -22.0450   -8.9620 O.2     1  UNL1       -0.2680
     23  N         22.2930  -22.6330  -10.9150 N.am    1  UNL1       -0.3520
     24  H         21.4610  -23.0300  -11.3280 H       1  UNL1        0.1630
     25  C         23.3370  -22.1360  -11.8110 C.3     1  UNL1        0.0840
     26  C         24.3040  -23.2770  -12.1570 C.3     1  UNL1        0.0250
     27  C         25.7180  -22.7810  -12.4590 C.3     1  UNL1        0.0020
     28  C         25.8940  -22.0740  -13.7980 C.3     1  UNL1        0.0000
     29  C         24.9670  -20.8830  -14.0330 C.3     1  UNL1        0.0000
     30  C         23.5230  -21.3030  -14.2830 C.3     1  UNL1        0.0020
     31  C         22.6720  -21.4770  -13.0280 C.3     1  UNL1        0.0250
@<TRIPOS>BOND
     1    30    29    1
     2    30    31    1
     3    29    28    1
     4    28    27    1
     5    31    25    1
     6    27    26    1
     7    26    25    1
     8    25    23    1
     9    18    19    2
    10    18    17    1
    11    24    23    1
    12    19    20    1
    13    17    16    2
    14    23    21   am
    15    20    15    2
    16    16    15    1
    17    15    14    1
    18    21    22    2
    19    21     1    1
    20    14    13    1
    21     2     1    2
    22     2     3    1
    23     1     6    1
    24    13    12    1
    25     6     5    2
    26     3     4    2
    27     5     4    1
    28     4     7    1
    29    12     7    1
    30    12    10   am
    31     7     8    1
    32    11    10    2
    33    10     9    1
    34     9     8    1
