@<TRIPOS>MOLECULE
2157_out_ligand_01.pdbqt
 32 35 0 0 0
SMALL
GASTEIGER

@<TRIPOS>ATOM
      1  C         21.5740  -22.4050   -9.9590 C.2     1  UNL1        0.0320
      2  C         20.4430  -22.7330  -10.7120 C.2     1  UNL1        0.0190
      3  C         19.3040  -23.2420  -10.0810 C.2     1  UNL1        0.0310
      4  C         19.2750  -23.4220   -8.6930 C.2     1  UNL1        0.0420
      5  C         20.4270  -23.1430   -7.9540 C.2     1  UNL1        0.0310
      6  C         21.5700  -22.6270   -8.5790 C.2     1  UNL1        0.0190
      7  N         18.1010  -24.0160   -8.1450 N.pl3   1  UNL1       -0.2810
      8  H         17.9850  -25.0270   -8.2100 H       1  UNL1        0.1790
      9  S         16.6070  -23.2370   -8.0370 S.O2    1  UNL1        0.2650
     10  O         16.8090  -21.8790   -8.4940 O.2     1  UNL1       -0.2000
     11  O         15.6860  -24.1450   -8.6910 O.2     1  UNL1       -0.2000
     12  C         16.2190  -23.2650   -6.3080 C.2     1  UNL1        0.1090
     13  C         15.1030  -23.9910   -5.8570 C.2     1  UNL1        0.0280
     14  C         14.8080  -24.0320   -4.5000 C.2     1  UNL1        0.0030
     15  C         15.6180  -23.3440   -3.6050 C.2     1  UNL1        0.0140
     16  C         16.7210  -22.6010   -4.0620 C.2     1  UNL1       -0.0060
     17  C         17.5230  -21.8970   -3.1540 C.2     1  UNL1        0.0150
     18  C         17.0420  -22.5450   -5.4390 C.2     1  UNL1        0.0900
     19  C         18.6040  -21.1550   -3.6100 C.2     1  UNL1        0.0200
     20  C         18.8460  -21.1430   -4.9650 C.2     1  UNL1        0.1170
     21  N         18.0940  -21.8130   -5.8640 N.2     1  UNL1       -0.2590
     22  C         22.7690  -21.8620  -10.6630 C.2     1  UNL1        0.2560
     23  O         23.5040  -21.0990  -10.0490 O.2     1  UNL1       -0.2670
     24  N         22.9370  -22.3240  -11.9560 N.am    1  UNL1       -0.3230
     25  H         22.3120  -23.0570  -12.2660 H       1  UNL1        0.1690
     26  C         23.9450  -21.9570  -12.8710 C.2     1  UNL1        0.0350
     27  C         25.2590  -22.4290  -12.8140 C.2     1  UNL1        0.0310
     28  C         26.2060  -22.0110  -13.7570 C.2     1  UNL1        0.0210
     29  C         25.8400  -21.1180  -14.7590 C.2     1  UNL1        0.0110
     30 BR         27.1190  -20.5540  -16.0320 Br      1  UNL1       -0.0510
     31  C         24.5360  -20.6360  -14.8280 C.2     1  UNL1        0.0210
     32  C         23.5930  -21.0540  -13.8840 C.2     1  UNL1        0.0310
@<TRIPOS>BOND
     1    30    29    1
     2    31    29    2
     3    31    32    1
     4    29    28    1
     5    32    26    2
     6    28    27    2
     7    26    27    1
     8    26    24    1
     9    25    24    1
    10    24    22   am
    11     2     3    1
    12     2     1    2
    13    22    23    2
    14    22     1    1
    15     3     4    2
    16     1     6    1
    17     4     7    1
    18     4     5    1
    19    11     9    2
    20     6     5    2
    21    10     9    2
    22     8     7    1
    23     7     9    1
    24     9    12    1
    25    12    13    2
    26    12    18    1
    27    21    18    1
    28    21    20    2
    29    13    14    1
    30    18    16    2
    31    20    19    1
    32    14    15    2
    33    16    15    1
    34    16    17    1
    35    19    17    2
