@<TRIPOS>MOLECULE
2159_out_ligand_01.pdbqt
 36 40 0 0 0
SMALL
GASTEIGER

@<TRIPOS>ATOM
      1  C         21.2130  -21.2160  -11.1110 C.3     1  UNL1        0.1600
      2  N         20.8610  -22.3470  -10.3010 N.ar    1  UNL1       -0.3140
      3  C         21.7320  -23.2640   -9.7530 C.ar    1  UNL1        0.1480
      4  N         21.0350  -24.1620   -9.0750 N.ar    1  UNL1       -0.1320
      5  N         19.7020  -23.8560   -9.2030 N.ar    1  UNL1       -0.1230
      6  C         19.6120  -22.7970   -9.9660 C.ar    1  UNL1        0.1910
      7  S         18.1540  -22.0350  -10.4920 S.3     1  UNL1       -0.0810
      8  C         16.9520  -23.3640  -10.2390 C.3     1  UNL1        0.1850
      9  C         16.1770  -23.1470   -8.9400 C.2     1  UNL1        0.2310
     10  O         15.1460  -22.4780   -8.9410 O.2     1  UNL1       -0.2720
     11  N         16.7850  -23.7360   -7.8410 N.am    1  UNL1       -0.3260
     12  H         17.5440  -24.3720   -8.0850 H       1  UNL1        0.1690
     13  C         16.5480  -23.4920   -6.4650 C.2     1  UNL1        0.0450
     14  C         15.4460  -24.0680   -5.8200 C.2     1  UNL1        0.0300
     15  C         15.1480  -23.7700   -4.4930 C.2     1  UNL1        0.0030
     16  C         15.9410  -22.8870   -3.7940 C.2     1  UNL1        0.0120
     17  C         17.0710  -22.2920   -4.3990 C.2     1  UNL1       -0.0240
     18  C         17.8610  -21.3920   -3.6560 C.2     1  UNL1        0.0120
     19  C         17.3960  -22.5890   -5.7490 C.2     1  UNL1        0.0010
     20  C         18.9540  -20.7630   -4.2200 C.2     1  UNL1        0.0010
     21  C         19.2980  -21.0360   -5.5340 C.2     1  UNL1        0.0010
     22  C         18.5330  -21.9440   -6.2820 C.2     1  UNL1        0.0140
     23  C         23.2090  -23.2290   -9.8910 C.3     1  UNL1        0.2030
     24  N         23.5600  -23.4160  -11.2880 N.am    1  UNL1       -0.3500
     25  C         24.3900  -22.5320  -11.9480 C.2     1  UNL1        0.2520
     26  O         24.8310  -21.5100  -11.4340 O.2     1  UNL1       -0.2680
     27  H         23.3590  -24.3170  -11.6860 H       1  UNL1        0.1630
     28  C         24.7320  -22.8590  -13.3590 C.2     1  UNL1        0.0340
     29  C         25.3630  -24.0610  -13.7030 C.2     1  UNL1        0.0200
     30  C         25.6570  -24.3480  -15.0580 C.2     1  UNL1        0.0410
     31  C         25.2890  -23.4250  -16.0140 C.2     1  UNL1        0.1050
     32  C         24.6380  -22.2570  -15.6670 C.2     1  UNL1        0.1060
     33  O         25.4780  -23.5330  -17.3510 O.2     1  UNL1       -0.3230
     34  C         24.3500  -21.9440  -14.3510 C.2     1  UNL1        0.0560
     35  O         24.3360  -21.5010  -16.7530 O.2     1  UNL1       -0.3230
     36  C         24.9150  -22.2890  -17.8100 C.3     1  UNL1        0.3520
@<TRIPOS>BOND
     1    36    33    1
     2    36    35    1
     3    33    31    1
     4    35    32    1
     5    31    32    2
     6    31    30    1
     7    32    34    1
     8    30    29    2
     9    34    28    2
    10    29    28    1
    11    28    25    1
    12    25    26    2
    13    25    24   am
    14    27    24    1
    15    24    23    1
    16     1     2    1
    17     7     8    1
    18     7     6    1
    19     2     6   ar
    20     2     3   ar
    21     8     9    1
    22     6     5   ar
    23    23     3    1
    24     3     4   ar
    25     5     4   ar
    26    10     9    2
    27     9    11   am
    28    12    11    1
    29    11    13    1
    30    13    14    2
    31    13    19    1
    32    22    19    1
    33    22    21    2
    34    14    15    1
    35    19    17    2
    36    21    20    1
    37    15    16    2
    38    17    16    1
    39    17    18    1
    40    20    18    2
