@<TRIPOS>MOLECULE
2171_out_ligand_01.pdbqt
 33 36 0 0 0
SMALL
GASTEIGER

@<TRIPOS>ATOM
      1  C         20.8620  -22.4340   -7.8950 C.2     1  UNL1        0.0320
      2  C         20.8680  -23.5920   -8.6760 C.2     1  UNL1        0.0190
      3  C         21.9540  -23.8680   -9.5130 C.2     1  UNL1        0.0310
      4  C         23.0480  -22.9980   -9.5750 C.2     1  UNL1        0.0420
      5  C         23.0120  -21.8140   -8.8320 C.2     1  UNL1        0.0310
      6  C         21.9300  -21.5350   -7.9870 C.2     1  UNL1        0.0190
      7  N         24.0740  -23.3200  -10.5100 N.pl3   1  UNL1       -0.2810
      8  H         25.0260  -23.4540  -10.1710 H       1  UNL1        0.1790
      9  S         24.0650  -22.8440  -12.1310 S.O2    1  UNL1        0.2650
     10  O         22.7260  -22.3330  -12.3420 O.2     1  UNL1       -0.2000
     11  O         24.6020  -23.9490  -12.8950 O.2     1  UNL1       -0.2000
     12  C         25.1610  -21.4530  -12.1870 C.2     1  UNL1        0.1090
     13  C         25.7590  -20.9870  -11.0020 C.2     1  UNL1        0.0280
     14  C         26.6350  -19.9110  -11.0460 C.2     1  UNL1        0.0030
     15  C         26.9030  -19.3000  -12.2640 C.2     1  UNL1        0.0140
     16  C         26.2900  -19.7550  -13.4440 C.2     1  UNL1       -0.0060
     17  C         26.5540  -19.1220  -14.6660 C.2     1  UNL1        0.0150
     18  C         25.3950  -20.8500  -13.4250 C.2     1  UNL1        0.0900
     19  C         25.9380  -19.5650  -15.8280 C.2     1  UNL1        0.0200
     20  C         25.0720  -20.6310  -15.7260 C.2     1  UNL1        0.1170
     21  N         24.7980  -21.2630  -14.5640 N.2     1  UNL1       -0.2590
     22  C         19.6910  -22.1690   -7.0130 C.2     1  UNL1        0.2560
     23  N         18.5510  -22.8800   -7.3440 N.am    1  UNL1       -0.3220
     24  H         18.5880  -23.4050   -8.2060 H       1  UNL1        0.1690
     25  O         19.8240  -21.3460   -6.1170 O.2     1  UNL1       -0.2670
     26  C         17.3030  -22.8830   -6.6750 C.2     1  UNL1        0.0410
     27  C         16.1250  -23.0480   -7.4350 C.2     1  UNL1       -0.0350
     28  C         14.8800  -23.0530   -6.7840 C.2     1  UNL1        0.0090
     29  C         16.1440  -23.2110   -8.9320 C.3     1  UNL1        0.0500
     30  C         14.7940  -22.9060   -5.4000 C.2     1  UNL1        0.0070
     31  C         15.9520  -22.7640   -4.6390 C.2     1  UNL1       -0.0600
     32  C         15.8710  -22.5740   -3.1530 C.3     1  UNL1        0.0480
     33  C         17.1980  -22.7420   -5.2850 C.2     1  UNL1        0.0370
@<TRIPOS>BOND
     1    19    20    1
     2    19    17    2
     3    20    21    2
     4    17    16    1
     5    21    18    1
     6    16    18    1
     7    16    15    2
     8    18    12    2
     9    11     9    2
    10    10     9    2
    11    15    14    1
    12    12     9    1
    13    12    13    1
    14     9     7    1
    15    14    13    2
    16     7     8    1
    17     7     4    1
    18     4     3    2
    19     4     5    1
    20     3     2    1
    21    29    27    1
    22     5     6    2
    23     2     1    2
    24    24    23    1
    25     6     1    1
    26     1    22    1
    27    27    28    1
    28    27    26    2
    29    23    22   am
    30    23    26    1
    31    22    25    2
    32    28    30    2
    33    26    33    1
    34    30    31    1
    35    33    31    2
    36    31    32    1
