@<TRIPOS>MOLECULE
21768_out_ligand_01.pdbqt
 33 36 0 0 0
SMALL
GASTEIGER

@<TRIPOS>ATOM
      1  C         21.5910  -22.5130   -8.2330 C.3     1  UNL1        0.1850
      2  C         22.4290  -21.9900   -9.3880 C.2     1  UNL1        0.2310
      3  N         22.2430  -22.6920  -10.5690 N.am    1  UNL1       -0.3270
      4  H         21.4770  -23.3650  -10.5790 H       1  UNL1        0.1690
      5  O         23.1920  -21.0410   -9.2250 O.2     1  UNL1       -0.2720
      6  C         22.9160  -22.5040  -11.7910 C.2     1  UNL1        0.0340
      7  C         24.0860  -23.1860  -12.1470 C.2     1  UNL1        0.0310
      8  C         24.6900  -22.9650  -13.3890 C.2     1  UNL1        0.0270
      9  C         24.1180  -22.0560  -14.2820 C.2     1  UNL1        0.0740
     10  C         22.9550  -21.3570  -13.9400 C.2     1  UNL1        0.0270
     11  C         22.3550  -21.5930  -12.6990 C.2     1  UNL1        0.0310
     12  S         24.8840  -21.7860  -15.8580 S.O2    1  UNL1        0.2390
     13  O         26.3170  -21.7080  -15.6640 O.2     1  UNL1       -0.2060
     14  O         24.2740  -22.6660  -16.8280 O.2     1  UNL1       -0.2060
     15  N         24.3860  -20.2130  -16.1990 N.3     1  UNL1       -0.2250
     16  H         24.4860  -19.9700  -17.1850 H       1  UNL1        0.1360
     17  H         23.4210  -20.1020  -15.8770 H       1  UNL1        0.1360
     18  S         20.3820  -23.7420   -8.7970 S.3     1  UNL1       -0.0800
     19  C         19.1480  -22.7200   -9.4620 C.ar    1  UNL1        0.2030
     20  N         19.2110  -22.1680  -10.6550 N.ar    1  UNL1       -0.1350
     21  N         17.9410  -21.7440  -10.9390 N.ar    1  UNL1        0.0190
     22  N         17.1060  -22.0330   -9.9500 N.ar    1  UNL1        0.0030
     23  N         17.8700  -22.5430   -8.9430 N.ar    1  UNL1       -0.2160
     24  C         17.2880  -22.8940   -7.6990 C.2     1  UNL1        0.0680
     25  C         16.2200  -23.8190   -7.7440 C.2     1  UNL1        0.0320
     26  C         15.6670  -24.3100   -6.5670 C.2     1  UNL1        0.0030
     27  C         16.1600  -23.8730   -5.3410 C.2     1  UNL1        0.0120
     28  C         17.1760  -22.9010   -5.2680 C.2     1  UNL1       -0.0240
     29  C         17.6040  -22.4500   -4.0070 C.2     1  UNL1        0.0120
     30  C         17.7440  -22.3610   -6.4540 C.2     1  UNL1        0.0030
     31  C         18.5550  -21.4350   -3.8880 C.2     1  UNL1        0.0010
     32  C         19.0680  -20.8400   -5.0300 C.2     1  UNL1        0.0010
     33  C         18.6580  -21.2840   -6.2900 C.2     1  UNL1        0.0140
@<TRIPOS>BOND
     1    16    15    1
     2    14    12    2
     3    15    17    1
     4    15    12    1
     5    12    13    2
     6    12     9    1
     7     9    10    2
     8     9     8    1
     9    10    11    1
    10     8     7    2
    11    11     6    2
    12     7     6    1
    13     6     3    1
    14    21    20   ar
    15    21    22   ar
    16    20    19   ar
    17     4     3    1
    18     3     2   am
    19    22    23   ar
    20    19    23   ar
    21    19    18    1
    22     2     5    2
    23     2     1    1
    24    23    24    1
    25    18     1    1
    26    25    24    2
    27    25    26    1
    28    24    30    1
    29    26    27    2
    30    30    33    1
    31    30    28    2
    32    33    32    2
    33    27    28    1
    34    28    29    1
    35    32    31    1
    36    29    31    2
