@<TRIPOS>MOLECULE
21775_out_ligand_01.pdbqt
 30 33 0 0 0
SMALL
GASTEIGER

@<TRIPOS>ATOM
      1  C         20.7090  -21.9340  -11.4640 C.2     1  UNL1       -0.0190
      2  C         19.9070  -20.9220  -12.0090 C.2     1  UNL1        0.0110
      3  C         18.6090  -20.7280  -11.5380 C.2     1  UNL1        0.0030
      4  C         18.0970  -21.5360  -10.5180 C.2     1  UNL1        0.0290
      5  C         18.8770  -22.5460   -9.9560 C.2     1  UNL1        0.0350
      6  C         20.1800  -22.7350  -10.4330 C.2     1  UNL1        0.0400
      7  C         22.1310  -22.1440  -11.9610 C.3     1  UNL1        0.1990
      8  N         22.2490  -21.5410  -13.2570 N.am    1  UNL1       -0.3350
      9  C         23.4580  -21.4230  -13.8720 C.2     1  UNL1        0.2560
     10  H         21.4660  -21.6160  -13.8900 H       1  UNL1        0.1640
     11  C         24.6320  -21.4940  -12.9950 C.2     1  UNL1        0.0720
     12  O         23.5550  -21.2670  -15.0820 O.2     1  UNL1       -0.2670
     13  C         25.9230  -21.4790  -13.5290 C.2     1  UNL1        0.0220
     14  C         24.4300  -21.5720  -11.6160 C.2     1  UNL1        0.1220
     15  C         27.0050  -21.5420  -12.6660 C.2     1  UNL1        0.0200
     16  C         26.7430  -21.6170  -11.3100 C.2     1  UNL1        0.1180
     17  N         25.4970  -21.6330  -10.7790 N.2     1  UNL1       -0.2480
     18  N         23.1230  -21.5470  -11.0750 N.pl3   1  UNL1       -0.2450
     19  C         23.0990  -21.9530   -9.6690 C.3     1  UNL1        0.1210
     20  N         18.4410  -23.4050   -8.9260 N.am    1  UNL1       -0.3270
     21  C         18.7300  -23.3200   -7.5750 C.2     1  UNL1        0.2230
     22  O         19.4530  -22.4900   -7.0340 O.2     1  UNL1       -0.2730
     23  H         17.8210  -24.1530   -9.2150 H       1  UNL1        0.1690
     24  C         18.0950  -24.4490   -6.7860 C.3     1  UNL1        0.1250
     25  C         16.5770  -24.4160   -6.8910 C.3     1  UNL1        0.1590
     26  N         15.9710  -23.7020   -5.7810 N.pl3   1  UNL1       -0.2810
     27  C         15.2250  -22.5610   -5.8430 C.2     1  UNL1        0.1130
     28  C         14.8770  -22.2640   -4.5460 C.2     1  UNL1        0.0400
     29  C         15.4610  -23.2870   -3.7770 C.2     1  UNL1        0.1400
     30  N         16.1270  -24.1700   -4.5260 N.2     1  UNL1       -0.1850
@<TRIPOS>BOND
     1    12     9    2
     2    10     8    1
     3     9     8   am
     4     9    11    1
     5    13    11    2
     6    13    15    1
     7     8     7    1
     8    11    14    1
     9    15    16    2
    10     2     3    1
    11     2     1    2
    12     7     1    1
    13     7    18    1
    14    14    18    1
    15    14    17    2
    16     3     4    2
    17     1     6    1
    18    16    17    1
    19    18    19    1
    20     4     5    1
    21     6     5    2
    22     5    20    1
    23    23    20    1
    24    20    21   am
    25    21    22    2
    26    21    24    1
    27    25    24    1
    28    25    26    1
    29    27    26    1
    30    27    28    2
    31    26    30    1
    32    28    29    1
    33    30    29    2
