@<TRIPOS>MOLECULE
21795_out_ligand_01.pdbqt
 31 34 0 0 0
SMALL
GASTEIGER

@<TRIPOS>ATOM
      1  C         23.0230  -22.7790   -9.2780 C.2     1  UNL1       -0.0270
      2  C         22.7300  -21.6840   -8.4360 C.2     1  UNL1        0.0120
      3  C         21.5490  -21.6410   -7.6870 C.2     1  UNL1        0.0310
      4  C         20.6610  -22.6970   -7.7880 C.2     1  UNL1        0.0430
      5  C         20.9420  -23.7840   -8.6170 C.2     1  UNL1       -0.0290
      6  C         22.1120  -23.8430   -9.3610 C.2     1  UNL1        0.0190
      7  C         19.8710  -24.8220   -8.5320 C.2     1  UNL1        0.0610
      8  C         18.8190  -24.1260   -7.6590 C.2     1  UNL1        0.1370
      9  N         19.4190  -22.8780   -7.1510 N.am    1  UNL1       -0.3130
     10  C         18.8790  -22.0290   -6.1970 C.2     1  UNL1        0.2610
     11  O         19.4310  -21.0490   -5.7030 O.2     1  UNL1       -0.2670
     12  C         24.3130  -22.8180  -10.0770 C.3     1  UNL1        0.1790
     13  C         24.0410  -22.9980  -11.5980 C.3     1  UNL1        0.3090
     14  N         25.2190  -22.7980  -12.4750 N.3     1  UNL1        0.0940
     15  C         25.1580  -21.5010  -13.1830 C.3     1  UNL1        0.2920
     16  C         24.7330  -21.5720  -14.6630 C.3     1  UNL1        0.1560
     17  N         25.5640  -22.4990  -15.4340 N.am    1  UNL1       -0.3490
     18  C         25.7590  -22.4370  -16.8020 C.2     1  UNL1        0.2150
     19  C         26.2170  -23.5640  -14.6690 C.3     1  UNL1        0.1560
     20  C         25.0030  -21.3680  -17.5510 C.3     1  UNL1        0.1170
     21  O         26.5130  -23.2010  -17.4030 O.2     1  UNL1       -0.2740
     22  C         25.4130  -23.9310  -13.4080 C.3     1  UNL1        0.2920
     23  O         25.1300  -23.8830   -9.5760 O.3     1  UNL1       -0.3890
     24  H         25.9640  -23.4820   -9.2750 H       1  UNL1        0.2100
     25  C         17.5460  -22.3600   -5.6650 C.2     1  UNL1        0.0710
     26  C         17.4360  -22.8020   -4.3420 C.2     1  UNL1        0.0200
     27  C         16.1770  -23.0940   -3.8140 C.2     1  UNL1        0.0010
     28  C         15.0330  -22.9320   -4.6000 C.2     1  UNL1        0.0030
     29  C         15.1450  -22.4690   -5.9130 C.2     1  UNL1        0.0430
     30  C         16.4020  -22.1780   -6.4380 C.2     1  UNL1        0.1320
     31  F         16.4860  -21.7240   -7.6960 F       1  UNL1       -0.2050
@<TRIPOS>BOND
     1    20    18    1
     2    21    18    2
     3    18    17   am
     4    17    19    1
     5    17    16    1
     6    19    22    1
     7    16    15    1
     8    22    14    1
     9    15    14    1
    10    14    13    1
    11    13    12    1
    12    12    23    1
    13    12     1    1
    14    23    24    1
    15     6     1    2
    16     6     5    1
    17     1     2    1
    18     5     7    1
    19     5     4    2
    20     7     8    2
    21     2     3    2
    22     4     3    1
    23     4     9    1
    24    31    30    1
    25     8     9    1
    26     9    10   am
    27    30    29    1
    28    30    25    2
    29    10    11    2
    30    10    25    1
    31    29    28    2
    32    25    26    1
    33    28    27    1
    34    26    27    2
