@<TRIPOS>MOLECULE
21806_out_ligand_01.pdbqt
 32 35 0 0 0
SMALL
GASTEIGER

@<TRIPOS>ATOM
      1  N         19.4830  -23.5310   -8.1070 N.pl3   1  UNL1       -0.3770
      2  C         20.3280  -22.4950   -7.4820 C.3     1  UNL1        0.1530
      3  C         21.4760  -22.0370   -8.4130 C.3     1  UNL1        0.2920
      4  N         22.3130  -23.1650   -8.8400 N.3     1  UNL1        0.0950
      5  C         21.5040  -24.2040   -9.5020 C.3     1  UNL1        0.2920
      6  C         20.2520  -24.6460   -8.6970 C.3     1  UNL1        0.1530
      7  C         18.3690  -23.0470   -8.7950 C.2     1  UNL1        0.0390
      8  C         18.4880  -22.2360   -9.9380 C.2     1  UNL1        0.0300
      9  C         17.3600  -21.7520  -10.6120 C.2     1  UNL1        0.0020
     10  C         16.0880  -22.0690  -10.1560 C.2     1  UNL1        0.0010
     11  C         15.9430  -22.8740   -9.0280 C.2     1  UNL1        0.0120
     12  C         17.0690  -23.3650   -8.3320 C.2     1  UNL1        0.0010
     13  C         16.8550  -24.2940   -7.1430 C.3     1  UNL1        0.1880
     14  O         15.7600  -25.1630   -7.4710 O.3     1  UNL1       -0.3860
     15  H         15.7150  -25.8100   -6.7480 H       1  UNL1        0.2100
     16  C         16.6080  -23.6070   -5.8130 C.2     1  UNL1       -0.0080
     17  C         15.3540  -23.0960   -5.4590 C.2     1  UNL1        0.0130
     18  C         15.1520  -22.5360   -4.2010 C.2     1  UNL1        0.0200
     19  C         16.2190  -22.5100   -3.3190 C.2     1  UNL1        0.1160
     20  N         17.4430  -22.9930   -3.6090 N.2     1  UNL1       -0.2720
     21  C         17.6040  -23.5330   -4.8430 C.2     1  UNL1        0.1260
     22  C         23.5430  -22.7900   -9.5490 C.3     1  UNL1        0.3110
     23  C         23.4050  -22.3030  -10.9880 C.2     1  UNL1       -0.0150
     24  C         22.1360  -21.9010  -11.4550 C.2     1  UNL1        0.0100
     25  C         21.9360  -21.4770  -12.7700 C.2     1  UNL1        0.0010
     26  C         23.0070  -21.4430  -13.6490 C.2     1  UNL1        0.0010
     27  C         24.2880  -21.7980  -13.2050 C.2     1  UNL1        0.0170
     28  C         24.5100  -22.2080  -11.8720 C.2     1  UNL1        0.0550
     29  C         25.9320  -22.5140  -11.4400 C.3     1  UNL1        0.4180
     30  F         26.0630  -23.7440  -10.8710 F       1  UNL1       -0.1660
     31  F         26.4090  -21.6250  -10.5250 F       1  UNL1       -0.1660
     32  F         26.8300  -22.4960  -12.4670 F       1  UNL1       -0.1660
@<TRIPOS>BOND
     1    26    27    2
     2    26    25    1
     3    27    28    1
     4    25    24    2
     5    32    29    1
     6    28    29    1
     7    28    23    2
     8    24    23    1
     9    29    30    1
    10    29    31    1
    11    23    22    1
    12     9    10    2
    13     9     8    1
    14    10    11    1
    15     8     7    2
    16    22     4    1
    17     5     4    1
    18     5     6    1
    19    11    12    2
    20     4     3    1
    21     7    12    1
    22     7     1    1
    23     6     1    1
    24     3     2    1
    25    12    13    1
    26     1     2    1
    27    14    13    1
    28    14    15    1
    29    13    16    1
    30    16    17    2
    31    16    21    1
    32    17    18    1
    33    21    20    2
    34    18    19    2
    35    20    19    1
