@<TRIPOS>MOLECULE
21832_out_ligand_01.pdbqt
 30 33 0 0 0
SMALL
GASTEIGER

@<TRIPOS>ATOM
      1  C         17.0100  -23.3360   -8.5250 C.2     1  UNL1        0.0030
      2  C         15.9400  -22.7880   -9.2660 C.2     1  UNL1        0.0120
      3  C         16.1740  -21.9130  -10.3260 C.2     1  UNL1        0.0010
      4  C         17.4820  -21.5760  -10.6640 C.2     1  UNL1        0.0020
      5  C         18.5480  -22.0990   -9.9310 C.2     1  UNL1        0.0300
      6  C         18.3390  -22.9640   -8.8440 C.2     1  UNL1        0.0390
      7  N         19.3920  -23.4520   -8.0680 N.pl3   1  UNL1       -0.3770
      8  C         20.3000  -22.4720   -7.4420 C.3     1  UNL1        0.1530
      9  C         21.5940  -22.2050   -8.2480 C.3     1  UNL1        0.2920
     10  N         22.2740  -23.4410   -8.6700 N.3     1  UNL1        0.0950
     11  C         21.3410  -24.3070   -9.4160 C.3     1  UNL1        0.2920
     12  C         20.0710  -24.6500   -8.6030 C.3     1  UNL1        0.1530
     13  C         23.5590  -23.2200   -9.3390 C.3     1  UNL1        0.3110
     14  C         23.5100  -22.7220  -10.7720 C.2     1  UNL1       -0.0270
     15  C         24.6110  -22.8960  -11.6280 C.2     1  UNL1        0.0120
     16  C         24.5770  -22.4160  -12.9400 C.2     1  UNL1        0.0460
     17  C         23.4350  -21.7700  -13.4060 C.2     1  UNL1        0.1540
     18  F         23.4100  -21.2940  -14.6590 F       1  UNL1       -0.2030
     19  C         22.3350  -21.6090  -12.5790 C.2     1  UNL1        0.1550
     20  F         21.2320  -20.9920  -13.0310 F       1  UNL1       -0.2030
     21  C         22.3630  -22.0790  -11.2690 C.2     1  UNL1        0.0540
     22  C         16.7270  -24.2830   -7.3700 C.3     1  UNL1        0.2050
     23  O         15.6570  -25.1880   -7.7350 O.3     1  UNL1       -0.3850
     24  H         15.7030  -25.8850   -7.0470 H       1  UNL1        0.2110
     25  C         16.3620  -23.6610   -6.0230 C.2     1  UNL1        0.0670
     26  C         15.2860  -22.7880   -5.8460 C.2     1  UNL1        0.0300
     27  C         15.0390  -22.2830   -4.5640 C.2     1  UNL1        0.0030
     28  C         15.8650  -22.6380   -3.4990 C.2     1  UNL1        0.0190
     29  C         16.9100  -23.5070   -3.7500 C.2     1  UNL1        0.1170
     30  N         17.1720  -24.0280   -4.9740 N.2     1  UNL1       -0.2630
@<TRIPOS>BOND
     1    18    17    1
     2    17    16    2
     3    17    19    1
     4    20    19    1
     5    16    15    1
     6    19    21    2
     7    15    14    2
     8    21    14    1
     9    14    13    1
    10     4     3    2
    11     4     5    1
    12     3     2    1
    13     5     6    2
    14    11    10    1
    15    11    12    1
    16    13    10    1
    17     2     1    2
    18     6     1    1
    19     6     7    1
    20    10     9    1
    21    12     7    1
    22     1    22    1
    23     9     8    1
    24     7     8    1
    25    23    22    1
    26    23    24    1
    27    22    25    1
    28    25    26    2
    29    25    30    1
    30    26    27    1
    31    30    29    2
    32    27    28    2
    33    29    28    1
