@<TRIPOS>MOLECULE
2189_out_ligand_01.pdbqt
 37 41 0 0 0
SMALL
GASTEIGER

@<TRIPOS>ATOM
      1  N         21.3780  -22.5420  -10.2330 N.ar    1  UNL1       -0.3100
      2  C         22.0920  -23.4550   -9.4790 C.ar    1  UNL1        0.1480
      3  N         21.2640  -24.3700   -9.0130 N.ar    1  UNL1       -0.1320
      4  N         19.9860  -24.0250   -9.3910 N.ar    1  UNL1       -0.1230
      5  C         20.0700  -22.9250  -10.1050 C.ar    1  UNL1        0.1920
      6  S         18.7370  -21.9860  -10.6480 S.3     1  UNL1       -0.0810
      7  C         17.4320  -23.2330  -10.5490 C.3     1  UNL1        0.1850
      8  C         16.5190  -23.0020   -9.3390 C.2     1  UNL1        0.2310
      9  O         15.3470  -22.6280   -9.4820 O.2     1  UNL1       -0.2720
     10  N         17.1700  -23.2470   -8.1340 N.am    1  UNL1       -0.3260
     11  H         18.1780  -23.2410   -8.1850 H       1  UNL1        0.1690
     12  C         16.6170  -23.2110   -6.8330 C.2     1  UNL1        0.0450
     13  C         15.4560  -23.9380   -6.5350 C.2     1  UNL1        0.0300
     14  C         14.9530  -23.9820   -5.2390 C.2     1  UNL1        0.0030
     15  C         15.6090  -23.3040   -4.2170 C.2     1  UNL1        0.0120
     16  C         16.7620  -22.5540   -4.4770 C.2     1  UNL1       -0.0240
     17  C         17.3970  -21.8730   -3.4220 C.2     1  UNL1        0.0120
     18  C         17.2860  -22.4860   -5.7950 C.2     1  UNL1        0.0010
     19  C         18.5400  -21.1070   -3.6400 C.2     1  UNL1        0.0010
     20  C         19.0550  -20.9980   -4.9190 C.2     1  UNL1        0.0010
     21  C         18.4420  -21.6830   -5.9790 C.2     1  UNL1        0.0140
     22  C         21.8930  -21.3970  -10.9480 C.3     1  UNL1        0.1280
     23  C         21.8300  -21.5790  -12.4550 C.3     1  UNL1        0.0270
     24  C         23.5540  -23.3810   -9.2060 C.3     1  UNL1        0.2030
     25  N         24.1350  -22.3130   -9.9860 N.am    1  UNL1       -0.3500
     26  C         25.2670  -22.5830  -10.7510 C.2     1  UNL1        0.2520
     27  O         25.8790  -23.6450  -10.7110 O.2     1  UNL1       -0.2680
     28  H         23.4990  -21.6140  -10.3390 H       1  UNL1        0.1630
     29  C         25.7280  -21.4920  -11.6420 C.2     1  UNL1        0.0340
     30  C         26.3610  -20.3650  -11.0590 C.2     1  UNL1        0.0200
     31  C         26.7590  -19.2880  -11.8500 C.2     1  UNL1        0.0410
     32  C         26.4940  -19.3590  -13.2040 C.2     1  UNL1        0.1050
     33  C         25.8800  -20.4520  -13.7700 C.2     1  UNL1        0.1060
     34  O         26.7580  -18.3800  -14.1130 O.2     1  UNL1       -0.3230
     35  C         25.4860  -21.5410  -13.0220 C.2     1  UNL1        0.0560
     36  O         25.6810  -20.2940  -15.1110 O.2     1  UNL1       -0.3230
     37  C         26.2450  -18.9770  -15.3200 C.3     1  UNL1        0.3520
@<TRIPOS>BOND
     1    37    36    1
     2    37    34    1
     3    36    33    1
     4    34    32    1
     5    33    32    2
     6    33    35    1
     7    32    31    1
     8    35    29    2
     9    23    22    1
    10    31    30    2
    11    29    30    1
    12    29    26    1
    13    22     1    1
    14    26    27    2
    15    26    25   am
    16     6     7    1
    17     6     5    1
    18     7     8    1
    19    28    25    1
    20     1     5   ar
    21     1     2   ar
    22     5     4   ar
    23    25    24    1
    24     9     8    2
    25     2    24    1
    26     2     3   ar
    27     4     3   ar
    28     8    10   am
    29    11    10    1
    30    10    12    1
    31    12    13    2
    32    12    18    1
    33    13    14    1
    34    21    18    1
    35    21    20    2
    36    18    16    2
    37    14    15    2
    38    20    19    1
    39    16    15    1
    40    16    17    1
    41    19    17    2
