@<TRIPOS>MOLECULE
21908_out_ligand_01.pdbqt
 33 36 0 0 0
SMALL
GASTEIGER

@<TRIPOS>ATOM
      1  C         17.9770  -22.8650   -9.9480 C.ar    1  UNL1        0.1390
      2  N         18.9000  -23.5640   -9.3170 N.ar    1  UNL1       -0.1330
      3  N         20.1260  -23.1740   -9.7900 N.ar    1  UNL1       -0.1230
      4  C         19.9290  -22.2520  -10.7000 C.ar    1  UNL1        0.1910
      5  N         18.5890  -22.0130  -10.8390 N.ar    1  UNL1       -0.3150
      6  C         17.9630  -21.0990  -11.7600 C.3     1  UNL1        0.1600
      7  S         21.1460  -21.4020  -11.5780 S.3     1  UNL1       -0.0780
      8  C         22.6820  -22.2820  -11.1100 C.3     1  UNL1        0.1210
      9  C         23.3430  -21.6290   -9.8980 C.3     1  UNL1        0.0300
     10  C         23.6450  -22.5060  -12.2780 C.ar    1  UNL1        0.1210
     11  N         23.5950  -21.7450  -13.3270 N.ar    1  UNL1       -0.2330
     12  C         24.5300  -21.9640  -14.3540 C.ar    1  UNL1        0.0740
     13  C         24.5020  -21.1370  -15.4780 C.2     1  UNL1        0.0320
     14  C         25.4860  -22.9810  -14.2970 C.ar    1  UNL1        0.0610
     15  C         25.4090  -21.3290  -16.5260 C.2     1  UNL1        0.0020
     16  C         26.3550  -22.3540  -16.4580 C.2     1  UNL1        0.0010
     17  C         26.3980  -23.1860  -15.3380 C.2     1  UNL1        0.0190
     18  C         25.4860  -23.8370  -13.1020 C.ar    1  UNL1        0.2590
     19  O         26.1910  -24.8350  -13.0120 O.2     1  UNL1       -0.2670
     20  N         24.6180  -23.4630  -12.1100 N.ar    1  UNL1       -0.3100
     21  H         24.5390  -24.1140  -11.3430 H       1  UNL1        0.1700
     22  C         16.5150  -23.0150   -9.7480 C.3     1  UNL1        0.1830
     23  C         16.2690  -23.4240   -8.3080 C.2     1  UNL1        0.2290
     24  N         16.6650  -22.4520   -7.4040 N.am    1  UNL1       -0.3260
     25  H         17.2030  -21.6900   -7.7970 H       1  UNL1        0.1690
     26  O         15.7910  -24.5270   -8.0530 O.2     1  UNL1       -0.2730
     27  C         16.5190  -22.4510   -6.0000 C.2     1  UNL1        0.0400
     28  C         15.3110  -22.7810   -5.3710 C.2     1  UNL1        0.0300
     29  C         15.1970  -22.7580   -3.9790 C.2     1  UNL1        0.0020
     30  C         16.2870  -22.3970   -3.1940 C.2     1  UNL1        0.0010
     31  C         17.4960  -22.0660   -3.8030 C.2     1  UNL1        0.0090
     32  C         17.6290  -22.0910   -5.2020 C.2     1  UNL1       -0.0350
     33  C         18.9700  -21.7410   -5.7970 C.3     1  UNL1        0.0500
@<TRIPOS>BOND
     1    15    16    2
     2    15    13    1
     3    16    17    1
     4    13    12    2
     5    17    14    2
     6    12    14   ar
     7    12    11   ar
     8    14    18   ar
     9    11    10   ar
    10    18    19    2
    11    18    20   ar
    12    10    20   ar
    13    10     8    1
    14    20    21    1
    15     6     5    1
    16     7     8    1
    17     7     4    1
    18     8     9    1
    19     5     4   ar
    20     5     1   ar
    21     4     3   ar
    22     1    22    1
    23     1     2   ar
    24     3     2   ar
    25    22    23    1
    26    23    26    2
    27    23    24   am
    28    25    24    1
    29    24    27    1
    30    27    28    2
    31    27    32    1
    32    33    32    1
    33    28    29    1
    34    32    31    2
    35    29    30    2
    36    31    30    1
