@<TRIPOS>MOLECULE
21928_out_ligand_01.pdbqt
 27 29 0 0 0
SMALL
GASTEIGER

@<TRIPOS>ATOM
      1  C         20.0950  -23.3660   -9.2870 C.2     1  UNL1        0.2800
      2  O         20.0550  -24.5400   -8.9340 O.2     1  UNL1       -0.2650
      3  N         19.3360  -22.3420   -8.7430 N.am    1  UNL1       -0.3210
      4  H         19.4950  -21.4360   -9.1710 H       1  UNL1        0.1690
      5  C         18.3970  -22.4070   -7.6990 C.2     1  UNL1        0.0350
      6  C         17.0460  -22.4960   -8.0640 C.2     1  UNL1        0.0310
      7  C         16.0450  -22.5670   -7.0910 C.2     1  UNL1        0.0270
      8  C         16.3990  -22.5520   -5.7420 C.2     1  UNL1        0.0740
      9  C         17.7370  -22.4460   -5.3610 C.2     1  UNL1        0.0270
     10  C         18.7330  -22.3790   -6.3420 C.2     1  UNL1        0.0310
     11  S         15.1330  -22.6340   -4.5040 S.O2    1  UNL1        0.2390
     12  O         14.1220  -21.6500   -4.8130 O.2     1  UNL1       -0.2060
     13  O         14.8190  -24.0220   -4.2600 O.2     1  UNL1       -0.2060
     14  N         15.9470  -22.0430   -3.1530 N.3     1  UNL1       -0.2250
     15  H         16.4890  -21.2220   -3.4300 H       1  UNL1        0.1360
     16  H         16.5270  -22.7440   -2.6940 H       1  UNL1        0.1360
     17  C         20.9690  -22.9020  -10.3550 C.ar    1  UNL1        0.1500
     18  O         22.2760  -23.3190  -10.3580 O.2     1  UNL1       -0.3040
     19  C         22.8770  -22.7600  -11.4390 C.ar    1  UNL1        0.0870
     20  C         24.2090  -22.9400  -11.8010 C.2     1  UNL1        0.0390
     21  C         21.9740  -21.9770  -12.1460 C.ar    1  UNL1        0.0070
     22  C         24.6400  -22.2760  -12.9540 C.2     1  UNL1        0.0090
     23  C         23.7740  -21.4620  -13.6980 C.2     1  UNL1       -0.0610
     24  C         24.2620  -20.7900  -14.9500 C.3     1  UNL1        0.0480
     25  C         22.4310  -21.3180  -13.3050 C.2     1  UNL1        0.0210
     26  C         20.7340  -22.0710  -11.4430 C.ar    1  UNL1       -0.0090
     27  C         19.4460  -21.4180  -11.7930 C.3     1  UNL1        0.0520
@<TRIPOS>BOND
     1    24    23    1
     2    23    25    2
     3    23    22    1
     4    25    21    1
     5    22    20    2
     6    21    26   ar
     7    21    19   ar
     8    20    19    1
     9    27    26    1
    10    26    17   ar
    11    19    18   ar
    12    18    17   ar
    13    17     1    1
    14     1     2    2
    15     1     3   am
    16     4     3    1
    17     3     5    1
    18     6     5    2
    19     6     7    1
    20     5    10    1
    21     7     8    2
    22    10     9    2
    23     8     9    1
    24     8    11    1
    25    12    11    2
    26    11    13    2
    27    11    14    1
    28    15    14    1
    29    14    16    1
