@<TRIPOS>MOLECULE
21921_out_ligand_01.pdbqt
 32 35 0 0 0
SMALL
GASTEIGER

@<TRIPOS>ATOM
      1  N         19.3490  -21.4820  -11.6060 N.pl3   1  UNL1       -0.2820
      2  C         18.7770  -22.4130  -10.7930 C.2     1  UNL1        0.1460
      3  C         17.5070  -21.9270  -10.5670 C.2     1  UNL1        0.1580
      4  N         17.3690  -20.7250  -11.2260 N.2     1  UNL1       -0.1530
      5  N         18.5130  -20.4570  -11.8430 N.2     1  UNL1        0.0050
      6  C         20.6900  -21.4740  -12.1460 C.3     1  UNL1        0.1520
      7  C         21.8030  -21.8430  -11.1500 C.3     1  UNL1        0.0230
      8  C         21.2650  -22.3360   -9.7920 C.3     1  UNL1        0.0090
      9  C         22.1250  -23.4400   -9.1730 C.3     1  UNL1        0.0200
     10  C         23.6140  -23.2060   -9.3970 C.3     1  UNL1        0.1260
     11  N         23.9510  -22.9870  -10.8010 N.am    1  UNL1       -0.3470
     12  C         25.3080  -23.0020  -11.1480 C.2     1  UNL1        0.2620
     13  C         22.8370  -22.8120  -11.7400 C.3     1  UNL1        0.1320
     14  O         26.1790  -23.1960  -10.3000 O.2     1  UNL1       -0.2670
     15  C         25.6450  -22.7350  -12.5240 C.2     1  UNL1        0.0980
     16  S         25.7040  -24.0070  -13.6660 S.3     1  UNL1       -0.0750
     17  C         26.1600  -22.8730  -14.8680 C.2     1  UNL1        0.1670
     18  N         26.2600  -21.6210  -14.4770 N.2     1  UNL1       -0.2570
     19  C         25.9990  -21.5360  -13.1160 C.2     1  UNL1        0.0530
     20  C         26.0950  -20.2080  -12.4550 C.3     1  UNL1        0.0720
     21  C         16.4530  -22.5320   -9.7660 C.2     1  UNL1        0.2730
     22  O         15.2620  -22.3950  -10.0290 O.2     1  UNL1       -0.2660
     23  N         16.9290  -23.2620   -8.7040 N.am    1  UNL1       -0.3510
     24  H         17.9340  -23.3360   -8.5970 H       1  UNL1        0.1630
     25  C         16.0700  -24.0410   -7.8440 C.3     1  UNL1        0.1640
     26  C         15.9560  -23.5070   -6.4390 C.2     1  UNL1       -0.0020
     27  C         14.9160  -22.6710   -6.0030 C.2     1  UNL1        0.0120
     28  C         14.8700  -22.2230   -4.6770 C.2     1  UNL1        0.0010
     29  C         15.8570  -22.6060   -3.7690 C.2     1  UNL1        0.0030
     30  C         16.8860  -23.4470   -4.1830 C.2     1  UNL1        0.0430
     31  C         16.9230  -23.8910   -5.5040 C.2     1  UNL1        0.1240
     32  F         17.9200  -24.7060   -5.8780 F       1  UNL1       -0.2050
@<TRIPOS>BOND
     1    17    18    2
     2    17    16    1
     3    18    19    1
     4    16    15    1
     5    19    15    2
     6    19    20    1
     7    15    12    1
     8     6     1    1
     9     6     7    1
    10     5     1    1
    11     5     4    2
    12    13     7    1
    13    13    11    1
    14     1     2    1
    15     4     3    1
    16     7     8    1
    17    12    11   am
    18    12    14    2
    19    11    10    1
    20     2     3    2
    21     3    21    1
    22    22    21    2
    23     8     9    1
    24    21    23   am
    25    10     9    1
    26    23    24    1
    27    23    25    1
    28    25    26    1
    29    26    27    2
    30    26    31    1
    31    27    28    1
    32    32    31    1
    33    31    30    2
    34    28    29    2
    35    30    29    1
