@<TRIPOS>MOLECULE
21925_out_ligand_01.pdbqt
 33 37 0 0 0
SMALL
GASTEIGER

@<TRIPOS>ATOM
      1  C         20.4600  -21.1840  -11.1160 C.2     1  UNL1        0.2290
      2  O         20.4040  -20.0610  -11.6240 O.2     1  UNL1       -0.2730
      3  N         19.3000  -21.8200  -10.6840 N.am    1  UNL1       -0.3470
      4  C         18.0470  -21.0870  -10.8550 C.3     1  UNL1        0.1260
      5  C         16.8300  -21.8810  -10.4010 C.3     1  UNL1        0.0250
      6  C         16.9700  -22.3370   -8.9450 C.3     1  UNL1        0.0650
      7  C         18.3740  -22.9120   -8.6130 C.3     1  UNL1        0.1590
      8  C         19.2280  -23.0660   -9.9030 C.3     1  UNL1        0.1870
      9  N         18.2740  -24.1970   -7.9480 N.am    1  UNL1       -0.3230
     10  C         17.9250  -24.2830   -6.6290 C.2     1  UNL1        0.2560
     11  O         17.4610  -25.3080   -6.1520 O.2     1  UNL1       -0.2670
     12  C         18.1700  -23.0720   -5.8340 C.2     1  UNL1        0.0650
     13  C         17.8540  -23.0270   -4.4740 C.2     1  UNL1        0.0200
     14  C         18.1460  -21.8780   -3.7380 C.2     1  UNL1        0.0010
     15  C         18.7570  -20.7870   -4.3610 C.2     1  UNL1        0.0030
     16  C         19.0720  -20.8400   -5.7200 C.2     1  UNL1        0.0380
     17  C         18.7670  -21.9810   -6.4600 C.2     1  UNL1        0.0870
     18  O         19.0990  -21.9720   -7.7850 O.2     1  UNL1       -0.3170
     19  H         17.9790  -25.0040   -8.4820 H       1  UNL1        0.1650
     20  C         21.8030  -21.8930  -10.9500 C.3     1  UNL1        0.1280
     21  C         21.5580  -23.3720  -10.6370 C.3     1  UNL1        0.0270
     22  C         22.7080  -21.7050  -12.1780 C.ar    1  UNL1        0.0780
     23  N         22.1480  -21.4960  -13.3340 N.ar    1  UNL1       -0.1750
     24  N         22.9420  -21.3210  -14.4230 N.ar    1  UNL1       -0.2420
     25  C         24.3130  -21.3310  -14.4360 C.ar    1  UNL1        0.2720
     26  H         22.4700  -21.1370  -15.3030 H       1  UNL1        0.1920
     27  O         24.9630  -21.1530  -15.4610 O.2     1  UNL1       -0.2660
     28  C         24.9710  -21.5830  -13.1440 C.ar    1  UNL1        0.0460
     29  C         26.3680  -21.6400  -13.0710 C.2     1  UNL1        0.0180
     30  C         24.1880  -21.7760  -12.0070 C.ar    1  UNL1        0.0070
     31  C         26.9880  -21.8950  -11.8480 C.2     1  UNL1        0.0010
     32  C         26.2130  -22.0930  -10.7080 C.2     1  UNL1        0.0010
     33  C         24.8180  -22.0350  -10.7820 C.2     1  UNL1        0.0140
@<TRIPOS>BOND
     1    27    25    2
     2    26    24    1
     3    25    24   ar
     4    25    28   ar
     5    24    23   ar
     6    23    22   ar
     7    28    29    2
     8    28    30   ar
     9    29    31    1
    10    22    30   ar
    11    22    20    1
    12    30    33    2
    13    31    32    2
    14     2     1    2
    15     1    20    1
    16     1     3   am
    17    20    21    1
    18     4     3    1
    19     4     5    1
    20    33    32    1
    21     3     8    1
    22     5     6    1
    23     8     7    1
    24     6     7    1
    25     7     9    1
    26     7    18    1
    27    19     9    1
    28     9    10   am
    29    18    17    1
    30    10    11    2
    31    10    12    1
    32    17    12    2
    33    17    16    1
    34    12    13    1
    35    16    15    2
    36    13    14    2
    37    15    14    1
