@<TRIPOS>MOLECULE
21929_out_ligand_01.pdbqt
 34 38 0 0 0
SMALL
GASTEIGER

@<TRIPOS>ATOM
      1  C         24.1310  -22.8400  -10.8670 C.2     1  UNL1       -0.0160
      2  C         23.6510  -23.2790   -9.6220 C.2     1  UNL1        0.0130
      3  C         22.2800  -23.3010   -9.3410 C.2     1  UNL1        0.0300
      4  C         21.3450  -22.8910  -10.2980 C.2     1  UNL1        0.0350
      5  C         21.8110  -22.4610  -11.5390 C.2     1  UNL1        0.0300
      6  C         23.1850  -22.4410  -11.8210 C.2     1  UNL1        0.0130
      7  N         19.9830  -22.9490   -9.9330 N.am    1  UNL1       -0.3210
      8  C         18.9710  -22.0590  -10.2690 C.2     1  UNL1        0.2790
      9  O         19.1350  -21.0510  -10.9500 O.2     1  UNL1       -0.2650
     10  H         19.7230  -23.7370   -9.3600 H       1  UNL1        0.1690
     11  C         17.6610  -22.4210   -9.7360 C.2     1  UNL1        0.1430
     12  C         16.3610  -22.0360  -10.0290 C.2     1  UNL1        0.0450
     13  C         15.5070  -22.7480   -9.1520 C.2     1  UNL1        0.0370
     14  C         16.3250  -23.5280   -8.3640 C.2     1  UNL1        0.0730
     15  O         17.6260  -23.3390   -8.7170 O.2     1  UNL1       -0.3080
     16  C         16.0700  -24.4910   -7.2640 C.3     1  UNL1        0.2150
     17  N         15.7890  -23.7860   -6.0210 N.pl3   1  UNL1       -0.2750
     18  C         14.9250  -22.7390   -5.8520 C.2     1  UNL1        0.1140
     19  C         15.0030  -22.3890   -4.5250 C.2     1  UNL1        0.0400
     20  C         15.9460  -23.2770   -3.9770 C.2     1  UNL1        0.1400
     21  N         16.4330  -24.1300   -4.8830 N.2     1  UNL1       -0.1850
     22  C         25.6330  -22.8700  -11.1280 C.3     1  UNL1        0.2220
     23  N         26.0100  -24.0370  -11.8700 N.am    1  UNL1       -0.3310
     24  C         26.0330  -24.0680  -13.2340 C.2     1  UNL1        0.2570
     25  H         25.8660  -24.9400  -11.4430 H       1  UNL1        0.1650
     26  C         26.0900  -22.7700  -13.9180 C.2     1  UNL1        0.0770
     27  O         26.0290  -25.1270  -13.8500 O.2     1  UNL1       -0.2670
     28  C         26.0730  -22.6920  -15.3120 C.2     1  UNL1        0.0220
     29  C         26.1770  -21.6140  -13.1430 C.2     1  UNL1        0.1420
     30  C         26.1480  -21.4450  -15.9130 C.2     1  UNL1        0.0200
     31  C         26.2390  -20.3370  -15.0900 C.2     1  UNL1        0.1190
     32  N         26.2560  -20.3970  -13.7380 N.2     1  UNL1       -0.2420
     33  N         26.1920  -21.6910  -11.7560 N.pl3   1  UNL1       -0.3440
     34  C         26.1580  -20.4340  -11.0260 C.3     1  UNL1        0.1540
@<TRIPOS>BOND
     1    30    28    1
     2    30    31    2
     3    28    26    2
     4    31    32    1
     5    26    24    1
     6    26    29    1
     7    27    24    2
     8    32    29    2
     9    24    23   am
    10    29    33    1
    11    23    25    1
    12    23    22    1
    13     6     5    1
    14     6     1    2
    15    33    22    1
    16    33    34    1
    17     5     4    2
    18    22     1    1
    19     9     8    2
    20     1     2    1
    21     4     7    1
    22     4     3    1
    23     8     7   am
    24     8    11    1
    25    12    11    2
    26    12    13    1
    27     7    10    1
    28    11    15    1
    29     2     3    2
    30    13    14    2
    31    15    14    1
    32    14    16    1
    33    16    17    1
    34    17    18    1
    35    17    21    1
    36    18    19    2
    37    21    20    2
    38    19    20    1
