@<TRIPOS>MOLECULE
21922_out_ligand_01.pdbqt
 32 36 0 0 0
SMALL
GASTEIGER

@<TRIPOS>ATOM
      1  C         20.9330  -22.0550  -11.3340 C.2     1  UNL1       -0.0190
      2  C         20.1420  -21.2590  -12.1780 C.2     1  UNL1        0.0110
      3  C         18.8680  -20.8560  -11.7850 C.2     1  UNL1        0.0030
      4  C         18.3640  -21.2500  -10.5450 C.2     1  UNL1        0.0290
      5  C         19.1240  -22.0570   -9.6900 C.2     1  UNL1        0.0350
      6  C         20.4000  -22.4580  -10.0920 C.2     1  UNL1        0.0400
      7  C         22.3140  -22.4870  -11.8040 C.3     1  UNL1        0.1990
      8  N         22.8280  -21.6950  -12.8810 N.am    1  UNL1       -0.3350
      9  C         24.0530  -22.0120  -13.4030 C.2     1  UNL1        0.2560
     10  H         22.1740  -21.3650  -13.5770 H       1  UNL1        0.1640
     11  C         24.9810  -22.6950  -12.4900 C.2     1  UNL1        0.0720
     12  O         24.3590  -21.7300  -14.5540 O.2     1  UNL1       -0.2670
     13  C         26.2590  -23.0700  -12.9070 C.2     1  UNL1        0.0220
     14  C         24.5800  -22.9010  -11.1690 C.2     1  UNL1        0.1220
     15  C         27.1210  -23.6450  -11.9830 C.2     1  UNL1        0.0200
     16  C         26.6640  -23.8080  -10.6850 C.2     1  UNL1        0.1180
     17  N         25.4300  -23.4460  -10.2650 N.2     1  UNL1       -0.2480
     18  N         23.2920  -22.5460  -10.7280 N.pl3   1  UNL1       -0.2450
     19  C         23.3700  -21.4430   -9.7740 C.3     1  UNL1        0.1210
     20  N         18.5330  -22.4170   -8.4640 N.am    1  UNL1       -0.3230
     21  C         17.3260  -23.0520   -8.2470 C.2     1  UNL1        0.2610
     22  O         16.5430  -23.4270   -9.1120 O.2     1  UNL1       -0.2670
     23  H         19.0570  -22.1840   -7.6210 H       1  UNL1        0.1690
     24  C         17.0210  -23.2680   -6.8420 C.2     1  UNL1        0.0990
     25  C         16.1340  -24.2230   -6.3010 C.2     1  UNL1        0.1600
     26  N         16.0590  -24.1820   -4.9710 N.2     1  UNL1       -0.1780
     27  N         16.9060  -23.1890   -4.6190 N.pl3   1  UNL1       -0.2260
     28  C         17.1980  -22.7360   -3.3370 C.2     1  UNL1        0.1220
     29  C         17.5150  -22.6020   -5.7350 C.2     1  UNL1        0.1670
     30  C         18.0660  -21.7320   -3.1530 C.2     1  UNL1        0.0380
     31  C         18.6610  -21.1760   -4.4000 C.2     1  UNL1        0.1200
     32  N         18.4150  -21.5690   -5.6160 N.2     1  UNL1       -0.2400
@<TRIPOS>BOND
     1    12     9    2
     2    10     8    1
     3     9     8   am
     4     9    11    1
     5    13    11    2
     6    13    15    1
     7     8     7    1
     8    11    14    1
     9     2     3    1
    10     2     1    2
    11    15    16    2
    12     7     1    1
    13     7    18    1
    14     3     4    2
    15     1     6    1
    16    14    18    1
    17    14    17    2
    18    18    19    1
    19    16    17    1
    20     4     5    1
    21     6     5    2
    22     5    20    1
    23    22    21    2
    24    20    21   am
    25    20    23    1
    26    21    24    1
    27    24    25    1
    28    24    29    2
    29    25    26    2
    30    29    32    1
    31    29    27    1
    32    32    31    2
    33    26    27    1
    34    27    28    1
    35    31    30    1
    36    28    30    2
