@<TRIPOS>MOLECULE
21933_out_ligand_01.pdbqt
 32 35 0 0 0
SMALL
GASTEIGER

@<TRIPOS>ATOM
      1  C         21.5230  -22.3980  -10.3860 C.3     1  UNL1        0.1210
      2  C         21.8410  -23.7160   -9.6320 C.3     1  UNL1        0.0300
      3  C         20.8780  -23.9710   -8.4560 C.3     1  UNL1        0.0080
      4  C         19.4120  -24.0850   -8.9160 C.3     1  UNL1        0.0590
      5  C         19.1150  -23.0050   -9.8940 C.2     1  UNL1        0.0400
      6  C         20.0500  -22.2480  -10.5710 C.2     1  UNL1        0.0080
      7  C         19.2860  -21.3620  -11.3500 C.2     1  UNL1        0.1500
      8  N         17.9720  -21.5680  -11.2150 N.2     1  UNL1       -0.1840
      9  N         17.8860  -22.5650  -10.3010 N.pl3   1  UNL1       -0.2690
     10  N         22.1560  -22.3850  -11.6880 N.am    1  UNL1       -0.3480
     11  C         23.4680  -22.0040  -11.8490 C.2     1  UNL1        0.2550
     12  O         24.1550  -21.5890  -10.9220 O.2     1  UNL1       -0.2680
     13  H         21.6590  -22.8210  -12.4570 H       1  UNL1        0.1630
     14  C         24.0540  -22.1120  -13.2150 C.2     1  UNL1        0.0700
     15  C         25.0410  -23.0830  -13.4400 C.2     1  UNL1        0.0210
     16  C         25.6240  -23.2230  -14.7040 C.2     1  UNL1        0.0180
     17  C         25.2240  -22.3990  -15.7640 C.2     1  UNL1        0.0340
     18  C         24.2490  -21.4220  -15.5430 C.2     1  UNL1        0.0600
     19  C         23.6740  -21.2900  -14.2780 C.2     1  UNL1        0.1330
     20  F         22.7370  -20.3430  -14.1190 F       1  UNL1       -0.2050
     21  C         25.8760  -22.5820  -17.0870 C.2     1  UNL1        0.2490
     22  N         27.0690  -21.9490  -17.3010 N.am    1  UNL1       -0.3660
     23  H         27.3930  -21.1820  -16.7300 H       1  UNL1        0.1590
     24  H         27.4260  -21.9980  -18.2480 H       1  UNL1        0.1590
     25  O         25.3540  -23.2500  -17.9700 O.2     1  UNL1       -0.2680
     26  C         16.5740  -23.0740   -9.9140 C.3     1  UNL1        0.1890
     27  C         16.4010  -23.1510   -8.4150 C.2     1  UNL1       -0.0380
     28  C         15.9380  -24.3310   -7.8140 C.2     1  UNL1        0.0090
     29  C         15.7600  -24.4000   -6.4310 C.2     1  UNL1        0.0010
     30  C         16.0350  -23.2900   -5.6350 C.2     1  UNL1        0.0000
     31  C         16.4830  -22.1080   -6.2200 C.2     1  UNL1        0.0010
     32  C         16.6610  -22.0370   -7.6030 C.2     1  UNL1        0.0090
@<TRIPOS>BOND
     1    24    22    1
     2    25    21    2
     3    22    21   am
     4    22    23    1
     5    21    17    1
     6    17    18    2
     7    17    16    1
     8    18    19    1
     9    16    15    2
    10    19    20    1
    11    19    14    2
    12    15    14    1
    13    14    11    1
    14    13    10    1
    15    11    10   am
    16    11    12    2
    17    10     1    1
    18     7     8    2
    19     7     6    1
    20     8     9    1
    21     6     1    1
    22     6     5    2
    23     1     2    1
    24     9    26    1
    25     9     5    1
    26    26    27    1
    27     5     4    1
    28     2     3    1
    29     4     3    1
    30    27    28    2
    31    27    32    1
    32    28    29    1
    33    32    31    2
    34    29    30    2
    35    31    30    1
