@<TRIPOS>MOLECULE
21945_out_ligand_01.pdbqt
 34 36 0 0 0
SMALL
GASTEIGER

@<TRIPOS>ATOM
      1  C         20.2400  -22.4230   -8.9480 C.3     1  UNL1        0.0860
      2  C         21.5520  -22.8460   -9.6310 C.2     1  UNL1        0.2270
      3  N         22.2090  -21.8170  -10.2850 N.am    1  UNL1       -0.3270
      4  H         21.7900  -20.8980  -10.2300 H       1  UNL1        0.1690
      5  O         21.9400  -24.0080   -9.5440 O.2     1  UNL1       -0.2730
      6  C         23.4040  -21.8990  -11.0270 C.2     1  UNL1        0.0350
      7  C         23.2920  -21.8210  -12.4230 C.2     1  UNL1        0.0490
      8  C         24.4270  -21.8990  -13.2480 C.2     1  UNL1        0.0720
      9  C         25.6790  -22.0560  -12.6580 C.2     1  UNL1        0.1320
     10  C         25.8050  -22.1370  -11.2750 C.2     1  UNL1        0.0450
     11  F         26.7950  -22.1360  -13.4000 F       1  UNL1       -0.2050
     12  C         24.6700  -22.0590  -10.4610 C.2     1  UNL1        0.0320
     13  C         24.2270  -21.8120  -14.7170 C.2     1  UNL1        0.2520
     14  N         23.7120  -20.6610  -15.2360 N.am    1  UNL1       -0.3660
     15  H         23.5790  -20.6060  -16.2370 H       1  UNL1        0.1590
     16  H         23.4580  -19.8610  -14.6680 H       1  UNL1        0.1590
     17  O         24.5180  -22.7510  -15.4510 O.2     1  UNL1       -0.2680
     18  C         19.9160  -23.3560   -7.7610 C.3     1  UNL1        0.0530
     19  C         19.2500  -22.6660   -6.5920 C.2     1  UNL1       -0.0570
     20  C         19.7060  -21.4180   -6.1490 C.2     1  UNL1        0.0070
     21  C         19.0880  -20.7780   -5.0740 C.2     1  UNL1        0.0010
     22  C         18.0080  -21.3790   -4.4300 C.2     1  UNL1        0.0160
     23  C         17.5290  -22.6260   -4.8570 C.2     1  UNL1        0.0480
     24  C         18.1650  -23.2650   -5.9340 C.2     1  UNL1        0.0230
     25  C         16.3770  -23.2880   -4.1420 C.3     1  UNL1        0.4170
     26  F         15.5340  -22.3990   -3.5450 F       1  UNL1       -0.1660
     27  F         16.7970  -24.1250   -3.1530 F       1  UNL1       -0.1660
     28  F         15.5970  -24.0450   -4.9630 F       1  UNL1       -0.1660
     29  C         19.0820  -22.3260   -9.9870 C.3     1  UNL1       -0.0010
     30  C         19.3660  -21.2090  -11.0210 C.3     1  UNL1        0.0050
     31  C         18.1160  -20.6460  -11.7030 C.3     1  UNL1        0.0000
     32  C         16.9960  -21.6700  -11.7660 C.3     1  UNL1        0.0000
     33  C         16.5700  -22.1150  -10.3690 C.3     1  UNL1        0.0000
     34  C         17.7060  -22.0980   -9.3400 C.3     1  UNL1        0.0050
@<TRIPOS>BOND
     1    15    14    1
     2    17    13    2
     3    14    13   am
     4    14    16    1
     5    13     8    1
     6    11     9    1
     7     8     9    2
     8     8     7    1
     9     9    10    1
    10     7     6    2
    11    32    31    1
    12    32    33    1
    13    31    30    1
    14    10    12    2
    15     6    12    1
    16     6     3    1
    17    30    29    1
    18    33    34    1
    19     3     4    1
    20     3     2   am
    21    29    34    1
    22    29     1    1
    23     2     5    2
    24     2     1    1
    25     1    18    1
    26    18    19    1
    27    19    20    2
    28    19    24    1
    29    20    21    1
    30    24    23    2
    31    21    22    2
    32    28    25    1
    33    23    22    1
    34    23    25    1
    35    25    26    1
    36    25    27    1
