@<TRIPOS>MOLECULE
21967_out_ligand_01.pdbqt
 31 34 0 0 0
SMALL
GASTEIGER

@<TRIPOS>ATOM
      1  C         21.0120  -23.2950   -9.3660 C.2     1  UNL1        0.2590
      2  O         20.9410  -24.4860   -9.0810 O.2     1  UNL1       -0.2670
      3  N         19.9530  -22.4040   -9.3640 N.am    1  UNL1       -0.3230
      4  H         20.1640  -21.4390   -9.5690 H       1  UNL1        0.1690
      5  C         18.5990  -22.6710   -9.0670 C.2     1  UNL1        0.0350
      6  C         17.6980  -22.6530  -10.1390 C.2     1  UNL1        0.0290
      7  C         16.3430  -22.9130   -9.9350 C.2     1  UNL1        0.0030
      8  C         15.8710  -23.1930   -8.6560 C.2     1  UNL1        0.0090
      9  C         16.7500  -23.2120   -7.5640 C.2     1  UNL1       -0.0330
     10  C         18.1160  -22.9540   -7.7870 C.2     1  UNL1        0.0380
     11  C         16.2610  -23.5280   -6.1650 C.3     1  UNL1        0.1170
     12  C         15.4090  -22.3910   -5.5960 C.3     1  UNL1        0.0300
     13  C         15.0080  -22.7340   -4.1680 C.3     1  UNL1        0.0120
     14  C         16.2450  -22.9400   -3.3050 C.3     1  UNL1        0.1030
     15  C         17.2650  -23.8700   -3.9260 C.2     1  UNL1        0.2180
     16  O         18.0470  -24.5320   -3.2490 O.2     1  UNL1       -0.2740
     17  N         17.3700  -23.8570   -5.2880 N.am    1  UNL1       -0.3520
     18  H         18.0440  -24.5310   -5.6350 H       1  UNL1        0.1630
     19  C         22.2940  -22.7020   -9.7380 C.2     1  UNL1        0.0680
     20  C         23.2470  -23.3090  -10.5380 C.2     1  UNL1        0.1310
     21  N         24.2960  -22.4430  -10.6360 N.pl3   1  UNL1       -0.2760
     22  N         24.0830  -21.2820   -9.9810 N.2     1  UNL1       -0.1840
     23  C         22.8750  -21.4490   -9.4360 C.2     1  UNL1        0.1570
     24  C         25.5230  -22.6430  -11.3980 C.3     1  UNL1        0.1890
     25  C         25.2400  -22.8470  -12.8640 C.2     1  UNL1       -0.0380
     26  C         25.5670  -24.0540  -13.4960 C.2     1  UNL1        0.0090
     27  C         25.3050  -24.2370  -14.8560 C.2     1  UNL1        0.0070
     28  C         24.7240  -23.2130  -15.6120 C.2     1  UNL1       -0.0620
     29  C         24.4160  -23.4210  -17.0650 C.3     1  UNL1        0.0480
     30  C         24.3860  -22.0110  -14.9810 C.2     1  UNL1        0.0070
     31  C         24.6470  -21.8270  -13.6210 C.2     1  UNL1        0.0090
@<TRIPOS>BOND
     1    29    28    1
     2    28    30    2
     3    28    27    1
     4    30    31    1
     5    27    26    2
     6    31    25    2
     7    26    25    1
     8    25    24    1
     9    24    21    1
    10    21    20    1
    11    21    22    1
    12    20    19    2
    13     6     7    1
    14     6     5    2
    15    22    23    2
    16     7     8    2
    17    19    23    1
    18    19     1    1
    19     4     3    1
    20     1     3   am
    21     1     2    2
    22     3     5    1
    23     5    10    1
    24     8     9    1
    25    10     9    2
    26     9    11    1
    27    11    12    1
    28    11    17    1
    29    18    17    1
    30    12    13    1
    31    17    15   am
    32    13    14    1
    33    15    14    1
    34    15    16    2
