@<TRIPOS>MOLECULE
21976_out_ligand_01.pdbqt
 38 42 0 0 0
SMALL
GASTEIGER

@<TRIPOS>ATOM
      1  C         19.2440  -21.3630  -11.1820 C.2     1  UNL1        0.2410
      2  O         19.2080  -20.1470  -11.0330 O.2     1  UNL1       -0.2690
      3  N         20.2350  -22.1730  -10.7030 N.am    1  UNL1       -0.3490
      4  H         20.2170  -23.1490  -10.9540 H       1  UNL1        0.1630
      5  C         18.1230  -22.0570  -11.8660 C.2     1  UNL1        0.0750
      6  C         17.0990  -22.7320  -11.3160 C.2     1  UNL1        0.0170
      7  C         16.8650  -22.9550   -9.8890 C.2     1  UNL1       -0.0350
      8  C         17.5840  -22.2050   -8.9470 C.2     1  UNL1        0.0260
      9  C         17.3860  -22.4360   -7.5690 C.ar    1  UNL1        0.0040
     10  C         17.9880  -21.9030   -6.3870 C.ar    1  UNL1        0.0030
     11  C         16.4340  -23.3750   -7.1720 C.ar    1  UNL1        0.0460
     12  C         19.0190  -20.9660   -6.1590 C.2     1  UNL1        0.0140
     13  C         17.3670  -22.5000   -5.2910 C.ar    1  UNL1        0.0460
     14  C         19.3990  -20.6610   -4.8490 C.2     1  UNL1        0.0010
     15  C         18.7710  -21.2740   -3.7710 C.2     1  UNL1        0.0020
     16  C         17.7450  -22.2010   -3.9690 C.2     1  UNL1        0.0300
     17  N         16.3900  -23.3410   -5.7910 N.ar    1  UNL1       -0.3460
     18  C         15.7090  -24.1350   -8.1030 C.2     1  UNL1        0.0310
     19  C         15.9470  -23.9150   -9.4650 C.2     1  UNL1        0.0130
     20  C         15.4080  -24.0390   -4.9740 C.3     1  UNL1        0.1250
     21  C         14.0490  -23.3720   -4.9960 C.3     1  UNL1        0.0270
     22  C         21.4730  -21.6600  -10.1440 C.3     1  UNL1        0.1200
     23  C         21.6130  -22.0900   -8.6740 C.3     1  UNL1        0.0300
     24  C         22.0070  -23.5620   -8.5440 C.3     1  UNL1        0.0080
     25  C         23.3210  -23.8560   -9.2670 C.3     1  UNL1        0.0580
     26  C         23.4490  -23.1500  -10.5900 C.2     1  UNL1        0.0200
     27  N         24.4900  -23.5380  -11.4000 N.am    1  UNL1       -0.3260
     28  C         22.6140  -22.1750  -10.9990 C.2     1  UNL1       -0.0120
     29  C         24.7660  -23.0030  -12.6380 C.2     1  UNL1        0.2610
     30  H         25.1290  -24.2610  -11.0930 H       1  UNL1        0.1690
     31  O         25.7540  -23.3650  -13.2680 O.2     1  UNL1       -0.2670
     32  C         23.8250  -21.9550  -13.1180 C.2     1  UNL1        0.1000
     33  C         22.8160  -21.5770  -12.3120 C.2     1  UNL1        0.0340
     34  C         23.9220  -21.3900  -14.4820 C.2     1  UNL1        0.2540
     35  N         24.2960  -20.0800  -14.5560 N.am    1  UNL1       -0.3660
     36  H         24.5910  -19.5380  -13.7540 H       1  UNL1        0.1590
     37  H         24.4290  -19.6940  -15.4820 H       1  UNL1        0.1590
     38  O         23.6820  -22.0330  -15.4970 O.2     1  UNL1       -0.2680
@<TRIPOS>BOND
     1    38    34    2
     2    37    35    1
     3    35    34   am
     4    35    36    1
     5    34    32    1
     6    31    29    2
     7    32    29    1
     8    32    33    2
     9    29    27   am
    10    33    28    1
    11     5     6    2
    12     5     1    1
    13    27    30    1
    14    27    26    1
    15     6     7    1
    16     1     2    2
    17     1     3   am
    18    28    26    2
    19    28    22    1
    20     4     3    1
    21     3    22    1
    22    26    25    1
    23    22    23    1
    24     7    19    2
    25     7     8    1
    26    19    18    1
    27    25    24    1
    28     8     9    2
    29    23    24    1
    30    18    11    2
    31     9    11   ar
    32     9    10   ar
    33    11    17   ar
    34    10    12    2
    35    10    13   ar
    36    12    14    1
    37    17    13   ar
    38    17    20    1
    39    13    16    2
    40    21    20    1
    41    14    15    2
    42    16    15    1
