@<TRIPOS>MOLECULE
21974_out_ligand_01.pdbqt
 30 33 0 0 0
SMALL
GASTEIGER

@<TRIPOS>ATOM
      1  C         22.1230  -22.4510   -8.7690 C.2     1  UNL1        0.2610
      2  O         22.8290  -21.6650   -8.1400 O.2     1  UNL1       -0.2670
      3  N         22.3890  -22.9390  -10.0320 N.am    1  UNL1       -0.3230
      4  H         21.7030  -23.5890  -10.4190 H       1  UNL1        0.1690
      5  C         20.8490  -22.9610   -8.1630 C.2     1  UNL1        0.1000
      6  C         20.1960  -22.1730   -7.2860 C.2     1  UNL1        0.0320
      7  C         18.9570  -22.5840   -6.6520 C.2     1  UNL1       -0.0340
      8  C         18.3200  -21.6260   -5.6780 C.3     1  UNL1        0.0410
      9  C         18.4270  -23.7840   -6.9480 C.2     1  UNL1        0.0190
     10  C         17.1850  -22.2570   -4.8610 C.3     1  UNL1        0.0130
     11  C         16.2740  -23.1820   -5.6980 C.3     1  UNL1       -0.0420
     12  C         15.5250  -22.3760   -6.7790 C.3     1  UNL1        0.0150
     13  C         15.2270  -23.8330   -4.7770 C.3     1  UNL1        0.0150
     14  C         17.1390  -24.2900   -6.3530 C.3     1  UNL1        0.0660
     15  N         19.0750  -24.6080   -7.8390 N.am    1  UNL1       -0.3260
     16  C         20.2520  -24.2920   -8.4750 C.2     1  UNL1        0.2610
     17  H         18.6850  -25.5150   -8.0650 H       1  UNL1        0.1690
     18  O         20.7810  -25.0750   -9.2620 O.2     1  UNL1       -0.2670
     19  C         23.4940  -22.6570  -10.8600 C.2     1  UNL1        0.0350
     20  C         24.8210  -22.8650  -10.4950 C.2     1  UNL1        0.0290
     21  C         25.8520  -22.5480  -11.3810 C.2     1  UNL1        0.0030
     22  C         25.5590  -22.0260  -12.6410 C.2     1  UNL1        0.0100
     23  C         24.2330  -21.8140  -13.0520 C.2     1  UNL1       -0.0180
     24  C         23.2160  -22.1300  -12.1310 C.2     1  UNL1        0.0390
     25  C         23.9180  -21.2360  -14.4200 C.3     1  UNL1        0.1820
     26  C         25.0670  -20.8440  -15.3210 C.3     1  UNL1        0.0490
     27  C         24.2410  -22.0460  -15.6570 C.3     1  UNL1        0.0490
     28  N         22.7270  -20.3770  -14.4420 N.3     1  UNL1        0.0920
     29  H         21.8730  -20.9280  -14.4050 H       1  UNL1        0.3140
     30  H         22.7140  -19.7780  -13.6180 H       1  UNL1        0.3140
@<TRIPOS>BOND
     1    27    26    1
     2    27    25    1
     3    26    25    1
     4    28    25    1
     5    28    29    1
     6    28    30    1
     7    25    23    1
     8    23    22    2
     9    23    24    1
    10    22    21    1
    11    24    19    2
    12    21    20    2
    13    19    20    1
    14    19     3    1
    15     4     3    1
    16     3     1   am
    17    18    16    2
    18     1     5    1
    19     1     2    2
    20    16     5    1
    21    16    15   am
    22     5     6    2
    23    17    15    1
    24    15     9    1
    25     6     7    1
    26     9     7    2
    27     9    14    1
    28    12    11    1
    29     7     8    1
    30    14    11    1
    31    11    10    1
    32    11    13    1
    33     8    10    1
