@<TRIPOS>MOLECULE
21_out_ligand_01.pdbqt
 29 32 0 0 0
SMALL
GASTEIGER

@<TRIPOS>ATOM
      1  O         17.2010  -22.1790  -10.1520 O.2     1  UNL1       -0.2670
      2  C         17.8580  -22.6020   -9.2010 C.2     1  UNL1        0.2610
      3  N         19.2220  -22.9530   -9.2230 N.am    1  UNL1       -0.3130
      4  C         19.7890  -23.8340   -8.1920 C.3     1  UNL1        0.1330
      5  C         20.7950  -24.8190   -8.7570 C.3     1  UNL1        0.0250
      6  C         21.9440  -24.0500   -9.3760 C.3     1  UNL1        0.0420
      7  C         21.4410  -22.9950  -10.3250 C.2     1  UNL1       -0.0300
      8  C         22.3430  -22.5070  -11.2920 C.2     1  UNL1        0.0190
      9  C         21.9660  -21.5150  -12.2020 C.2     1  UNL1       -0.0270
     10  C         20.6680  -21.0060  -12.1220 C.2     1  UNL1        0.0120
     11  C         19.7710  -21.4760  -11.1550 C.2     1  UNL1        0.0310
     12  C         20.1290  -22.4790  -10.2430 C.2     1  UNL1        0.0430
     13  C         22.9440  -21.0110  -13.2450 C.3     1  UNL1        0.1790
     14  O         22.2210  -20.2420  -14.2150 O.3     1  UNL1       -0.3890
     15  H         22.4640  -19.3110  -14.0730 H       1  UNL1        0.2100
     16  C         23.7150  -22.1780  -13.9240 C.3     1  UNL1        0.3080
     17  N         25.1510  -22.2810  -13.5660 N.3     1  UNL1        0.0910
     18  C         25.5840  -21.1420  -12.7400 C.3     1  UNL1        0.2720
     19  C         25.7020  -21.4670  -11.2530 C.3     1  UNL1        0.0300
     20  C         26.7030  -22.5950  -11.0080 C.3     1  UNL1        0.0030
     21  C         26.7870  -23.5600  -12.1890 C.3     1  UNL1        0.0300
     22  C         25.4780  -23.5900  -12.9750 C.3     1  UNL1        0.2720
     23  C         17.0910  -22.7910   -7.9520 C.2     1  UNL1        0.0710
     24  C         17.4520  -22.0560   -6.8160 C.2     1  UNL1        0.0200
     25  C         16.7580  -22.2440   -5.6190 C.2     1  UNL1        0.0010
     26  C         15.7200  -23.1760   -5.5510 C.2     1  UNL1        0.0030
     27  C         15.3780  -23.9260   -6.6780 C.2     1  UNL1        0.0430
     28  C         16.0710  -23.7370   -7.8710 C.2     1  UNL1        0.1320
     29  F         15.7340  -24.4810   -8.9340 F       1  UNL1       -0.2050
@<TRIPOS>BOND
     1    14    15    1
     2    14    13    1
     3    16    17    1
     4    16    13    1
     5    17    22    1
     6    17    18    1
     7    13     9    1
     8    22    21    1
     9    18    19    1
    10     9    10    2
    11     9     8    1
    12    21    20    1
    13    10    11    1
    14     8     7    2
    15    19    20    1
    16    11    12    2
    17     7    12    1
    18     7     6    1
    19    12     3    1
    20     1     2    2
    21     6     5    1
    22     3     2   am
    23     3     4    1
    24     2    23    1
    25    29    28    1
    26     5     4    1
    27    23    28    2
    28    23    24    1
    29    28    27    1
    30    24    25    2
    31    27    26    2
    32    25    26    1
