@<TRIPOS>MOLECULE
22013_out_ligand_01.pdbqt
 34 37 0 0 0
SMALL
GASTEIGER

@<TRIPOS>ATOM
      1  C         21.3870  -22.2900  -10.3540 C.2     1  UNL1        0.2560
      2  O         21.3610  -22.4350   -9.1380 O.2     1  UNL1       -0.2670
      3  N         20.3130  -22.0270  -11.1840 N.am    1  UNL1       -0.3230
      4  H         20.5140  -21.8110  -12.1510 H       1  UNL1        0.1690
      5  C         22.7100  -22.3570  -11.0400 C.2     1  UNL1        0.0340
      6  C         22.8340  -21.7510  -12.3060 C.2     1  UNL1        0.0420
      7  C         24.0560  -21.7860  -12.9910 C.2     1  UNL1        0.0820
      8  C         25.1450  -22.4190  -12.4000 C.2     1  UNL1       -0.0290
      9  C         25.0180  -23.0000  -11.1300 C.2     1  UNL1       -0.0490
     10  C         26.5590  -22.5430  -12.8860 C.3     1  UNL1        0.0410
     11  C         23.8170  -22.9700  -10.4360 C.2     1  UNL1        0.0240
     12  C         26.3280  -23.5510  -10.6560 C.3     1  UNL1        0.0390
     13  C         27.0990  -23.6550  -11.9760 C.3     1  UNL1        0.0090
     14  S         24.1980  -21.0050  -14.5730 S.O2    1  UNL1        0.2390
     15  O         25.2470  -20.0140  -14.5090 O.2     1  UNL1       -0.2060
     16  O         24.1520  -22.0180  -15.5990 O.2     1  UNL1       -0.2060
     17  N         22.7660  -20.1160  -14.6450 N.3     1  UNL1       -0.2250
     18  H         22.6550  -19.4680  -13.8660 H       1  UNL1        0.1360
     19  H         22.7350  -19.6320  -15.5440 H       1  UNL1        0.1360
     20  C         18.9540  -21.9160  -10.8190 C.2     1  UNL1        0.0350
     21  C         18.0350  -21.0900  -11.4660 C.2     1  UNL1        0.0290
     22  C         16.7020  -21.0550  -11.0490 C.2     1  UNL1        0.0030
     23  C         16.2750  -21.8420   -9.9790 C.2     1  UNL1        0.0080
     24  C         17.1820  -22.6720   -9.3100 C.2     1  UNL1       -0.0440
     25  C         18.5210  -22.6920   -9.7360 C.2     1  UNL1        0.0370
     26  C         16.7280  -23.5290   -8.1540 C.3     1  UNL1        0.1520
     27  S         18.0620  -24.2470   -7.1330 S.O     1  UNL1        0.0540
     28  O         17.4930  -25.3730   -6.3170 O.2     1  UNL1       -0.2520
     29  C         18.3170  -22.8600   -6.0070 C.2     1  UNL1        0.0310
     30  C         17.6600  -22.8450   -4.7710 C.2     1  UNL1        0.0210
     31  C         17.8540  -21.7830   -3.8850 C.2     1  UNL1        0.0010
     32  C         18.7020  -20.7310   -4.2330 C.2     1  UNL1        0.0000
     33  C         19.3500  -20.7370   -5.4670 C.2     1  UNL1        0.0010
     34  C         19.1550  -21.7960   -6.3540 C.2     1  UNL1        0.0210
@<TRIPOS>BOND
     1    16    14    2
     2    19    17    1
     3    17    14    1
     4    17    18    1
     5    14    15    2
     6    14     7    1
     7     7     8    2
     8     7     6    1
     9    10     8    1
    10    10    13    1
    11     8     9    1
    12     6     5    2
    13     4     3    1
    14    13    12    1
    15    21    22    1
    16    21    20    2
    17     3    20    1
    18     3     1   am
    19     9    12    1
    20     9    11    2
    21    22    23    2
    22     5    11    1
    23     5     1    1
    24    20    25    1
    25     1     2    2
    26    23    24    1
    27    25    24    2
    28    24    26    1
    29    26    27    1
    30    27    28    2
    31    27    29    1
    32    34    29    2
    33    34    33    1
    34    29    30    1
    35    33    32    2
    36    30    31    2
    37    32    31    1
