@<TRIPOS>MOLECULE
22027_out_ligand_01.pdbqt
 30 33 0 0 0
SMALL
GASTEIGER

@<TRIPOS>ATOM
      1  C         23.3110  -21.8750  -12.9110 C.2     1  UNL1        0.0490
      2  C         22.0080  -21.4030  -13.0720 C.2     1  UNL1        0.0220
      3  C         21.0350  -21.7430  -12.1270 C.2     1  UNL1        0.0450
      4  C         21.3690  -22.5310  -11.0230 C.2     1  UNL1        0.1050
      5  N         22.6290  -22.9940  -10.8650 N.2     1  UNL1       -0.2480
      6  C         23.5620  -22.6590  -11.7960 C.2     1  UNL1        0.1350
      7  N         20.3690  -22.8680  -10.0890 N.pl3   1  UNL1       -0.2630
      8  C         20.7040  -22.4500   -8.7210 C.3     1  UNL1        0.1020
      9  C         19.7390  -23.1250   -7.7430 C.3     1  UNL1        0.0550
     10  C         18.2840  -22.9780   -8.1440 C.2     1  UNL1       -0.0350
     11  C         17.9710  -22.6560   -9.4830 C.2     1  UNL1       -0.0370
     12  C         17.2410  -23.2270   -7.2160 C.2     1  UNL1        0.0540
     13  C         16.6250  -22.5400   -9.8700 C.2     1  UNL1        0.0090
     14  C         19.0480  -22.3840  -10.5210 C.3     1  UNL1        0.1360
     15  C         15.6010  -22.7700   -8.9580 C.2     1  UNL1        0.0010
     16  C         15.9060  -23.1120   -7.6430 C.2     1  UNL1        0.0170
     17  C         17.5260  -23.6040   -5.7760 C.3     1  UNL1        0.4180
     18  F         18.1630  -24.8050   -5.6440 F       1  UNL1       -0.1660
     19  F         18.3170  -22.6960   -5.1380 F       1  UNL1       -0.1660
     20  F         16.3900  -23.7140   -5.0260 F       1  UNL1       -0.1660
     21  C         24.4350  -21.5800  -13.8410 C.2     1  UNL1        0.2530
     22  O         25.5200  -21.2200  -13.3910 O.2     1  UNL1       -0.2680
     23  N         24.2050  -21.7330  -15.1950 N.am    1  UNL1       -0.3500
     24  H         23.4330  -22.3160  -15.5060 H       1  UNL1        0.1630
     25  C         25.3030  -21.6490  -16.1570 C.3     1  UNL1        0.1140
     26  C         25.3230  -20.2720  -16.8220 C.3     1  UNL1        0.0570
     27  C         24.6000  -20.4570  -18.1530 C.3     1  UNL1        0.2720
     28  N         24.0920  -21.8320  -18.1500 N.3     1  UNL1        0.0850
     29  C         25.0600  -22.5900  -17.3370 C.3     1  UNL1        0.2940
     30  H         24.0540  -22.2020  -19.1010 H       1  UNL1        0.3150
@<TRIPOS>BOND
     1    30    28    1
     2    27    28    1
     3    27    26    1
     4    28    29    1
     5    29    25    1
     6    26    25    1
     7    25    23    1
     8    24    23    1
     9    23    21   am
    10    21    22    2
    11    21     1    1
    12     2     1    2
    13     2     3    1
    14     1     6    1
    15     3     4    2
    16     6     5    2
    17     4     5    1
    18     4     7    1
    19    14     7    1
    20    14    11    1
    21     7     8    1
    22    13    11    1
    23    13    15    2
    24    11    10    2
    25    15    16    1
    26     8     9    1
    27    10     9    1
    28    10    12    1
    29    16    12    2
    30    12    17    1
    31    17    18    1
    32    17    19    1
    33    17    20    1
