@<TRIPOS>MOLECULE
22031_out_ligand_01.pdbqt
 28 31 0 0 0
SMALL
GASTEIGER

@<TRIPOS>ATOM
      1  C         20.3060  -23.2500   -7.9240 C.2     1  UNL1        0.0320
      2  C         20.8640  -24.1010   -8.8830 C.2     1  UNL1        0.0190
      3  C         22.1280  -23.8220   -9.4170 C.2     1  UNL1        0.0300
      4  C         22.8460  -22.6820   -9.0370 C.2     1  UNL1        0.0280
      5  C         22.2740  -21.8490   -8.0640 C.2     1  UNL1        0.0300
      6  C         21.0120  -22.1150   -7.5230 C.2     1  UNL1        0.0190
      7  N         24.1240  -22.3840   -9.4910 N.pl3   1  UNL1       -0.3860
      8  H         24.5250  -21.5360   -9.1020 H       1  UNL1        0.1600
      9  C         24.6080  -22.7040  -10.8270 C.3     1  UNL1        0.1600
     10  C         25.2570  -21.5390  -11.5740 C.2     1  UNL1       -0.0120
     11  C         26.1380  -20.6880  -10.9880 C.2     1  UNL1        0.0120
     12  C         26.7580  -19.5740  -11.6840 C.2     1  UNL1        0.0200
     13  C         26.4560  -19.3660  -12.9730 C.2     1  UNL1        0.1190
     14  N         25.5610  -20.2130  -13.6190 N.pl3   1  UNL1       -0.2450
     15  N         25.1560  -20.1360  -14.9140 N.2     1  UNL1       -0.1800
     16  C         24.9540  -21.2920  -12.9680 C.2     1  UNL1        0.0670
     17  C         24.3110  -21.1530  -15.0690 C.2     1  UNL1        0.1410
     18  C         24.1450  -21.9070  -13.8980 C.2     1  UNL1        0.0530
     19  C         18.9640  -23.5040   -7.3280 C.2     1  UNL1        0.2560
     20  O         18.4650  -24.6130   -7.4780 O.2     1  UNL1       -0.2670
     21  N         18.4010  -22.4170   -6.6860 N.am    1  UNL1       -0.3230
     22  H         18.8870  -21.5340   -6.7700 H       1  UNL1        0.1690
     23  C         17.1700  -22.3700   -5.9970 C.2     1  UNL1        0.0350
     24  C         15.9260  -22.3330   -6.6260 C.2     1  UNL1        0.0290
     25  C         14.7500  -22.2940   -5.8690 C.2     1  UNL1        0.0020
     26  C         14.8090  -22.2950   -4.4780 C.2     1  UNL1        0.0000
     27  C         16.0460  -22.3360   -3.8410 C.2     1  UNL1        0.0020
     28  C         17.2200  -22.3740   -4.5970 C.2     1  UNL1        0.0290
@<TRIPOS>BOND
     1    17    15    2
     2    17    18    1
     3    15    14    1
     4    18    16    2
     5    14    13    1
     6    14    16    1
     7    13    12    2
     8    16    10    1
     9    12    11    1
    10    10    11    2
    11    10     9    1
    12     9     7    1
    13     7     8    1
    14     7     4    1
    15     3     4    2
    16     3     2    1
    17     4     5    1
    18     2     1    2
    19     5     6    2
    20     1     6    1
    21     1    19    1
    22    20    19    2
    23    19    21   am
    24    22    21    1
    25    21    23    1
    26    24    23    2
    27    24    25    1
    28    23    28    1
    29    25    26    2
    30    28    27    2
    31    26    27    1
