@<TRIPOS>MOLECULE
22048_out_ligand_01.pdbqt
 41 45 0 0 0
SMALL
GASTEIGER

@<TRIPOS>ATOM
      1  C         20.4980  -21.1860  -11.5650 C.2     1  UNL1        0.2560
      2  O         20.7000  -20.0070  -11.8270 O.2     1  UNL1       -0.2670
      3  N         21.3710  -22.2450  -11.7580 N.am    1  UNL1       -0.3230
      4  H         21.1060  -23.1320  -11.3510 H       1  UNL1        0.1690
      5  C         19.2080  -21.5570  -10.9150 C.2     1  UNL1        0.0350
      6  C         17.9770  -21.1870  -11.4690 C.2     1  UNL1        0.0180
      7  C         16.7850  -21.5600  -10.8400 C.2     1  UNL1        0.0100
      8  C         16.8030  -22.2990   -9.6470 C.2     1  UNL1       -0.0280
      9  C         15.5050  -22.6730   -8.9940 C.3     1  UNL1        0.0510
     10  C         18.0450  -22.6750   -9.1100 C.2     1  UNL1        0.0830
     11  C         19.2400  -22.2800   -9.7190 C.2     1  UNL1        0.0540
     12  O         18.1460  -23.3760   -7.9290 O.2     1  UNL1       -0.3090
     13  C         18.3040  -22.6360   -6.7710 C.2     1  UNL1        0.0900
     14  C         19.3690  -21.7570   -6.5970 C.2     1  UNL1        0.0570
     15  C         19.4410  -21.0720   -5.4020 C.2     1  UNL1        0.1200
     16  N         18.5380  -21.1930   -4.4060 N.2     1  UNL1       -0.2600
     17  C         17.4930  -22.0160   -4.5900 C.2     1  UNL1        0.0690
     18  C         16.5550  -22.1400   -3.5740 C.2     1  UNL1        0.0340
     19  C         17.3140  -22.7640   -5.7720 C.2     1  UNL1        0.0280
     20  C         15.4420  -22.9770   -3.6970 C.2     1  UNL1        0.0260
     21  C         15.2600  -23.7060   -4.8640 C.2     1  UNL1        0.0350
     22 CL         13.8940  -24.7380   -5.0280 Cl      1  UNL1       -0.0840
     23  C         16.1840  -23.6060   -5.8990 C.2     1  UNL1        0.0400
     24  C         22.6390  -22.2100  -12.3720 C.2     1  UNL1        0.0350
     25  C         22.8720  -21.7430  -13.6620 C.2     1  UNL1        0.0300
     26  C         24.1680  -21.7460  -14.1890 C.2     1  UNL1        0.0120
     27  C         25.2650  -22.2120  -13.4410 C.2     1  UNL1       -0.0150
     28  C         25.0340  -22.7020  -12.1410 C.2     1  UNL1        0.0580
     29  C         23.7200  -22.6920  -11.6270 C.2     1  UNL1        0.0460
     30  C         26.6460  -22.2050  -14.0810 C.3     1  UNL1        0.3110
     31  N         27.0020  -20.9170  -14.6860 N.3     1  UNL1        0.0960
     32  C         26.7260  -19.7990  -13.7560 C.3     1  UNL1        0.3030
     33  C         26.4080  -18.4340  -14.4260 C.3     1  UNL1        0.3020
     34  N         27.1210  -18.2490  -15.6920 N.3     1  UNL1        0.0870
     35  C         26.8560  -16.9450  -16.2880 C.3     1  UNL1        0.3100
     36  C         26.8370  -19.3500  -16.6330 C.3     1  UNL1        0.3020
     37  C         26.3500  -20.6730  -15.9790 C.3     1  UNL1        0.3030
     38  C         26.1540  -23.2330  -11.2760 C.3     1  UNL1        0.4180
     39  F         26.8110  -24.2790  -11.8510 F       1  UNL1       -0.1660
     40  F         27.1010  -22.2930  -11.0030 F       1  UNL1       -0.1660
     41  F         25.7340  -23.6930  -10.0630 F       1  UNL1       -0.1660
@<TRIPOS>BOND
     1    36    37    1
     2    36    34    1
     3    35    34    1
     4    37    31    1
     5    34    33    1
     6    31    30    1
     7    31    32    1
     8    33    32    1
     9    26    25    1
    10    26    27    2
    11    30    27    1
    12    25    24    2
    13    27    28    1
    14    24     3    1
    15    24    29    1
    16    28    29    2
    17    28    38    1
    18    39    38    1
    19     2     1    2
    20     3     1   am
    21     3     4    1
    22     1     5    1
    23     6     5    2
    24     6     7    1
    25    38    40    1
    26    38    41    1
    27     5    11    1
    28     7     8    2
    29    11    10    2
    30     8    10    1
    31     8     9    1
    32    10    12    1
    33    12    13    1
    34    13    14    2
    35    13    19    1
    36    14    15    1
    37    23    19    1
    38    23    21    2
    39    19    17    2
    40    15    16    2
    41    22    21    1
    42    21    20    1
    43    17    16    1
    44    17    18    1
    45    20    18    2
