@<TRIPOS>MOLECULE
22040_out_ligand_01.pdbqt
 29 32 0 0 0
SMALL
GASTEIGER

@<TRIPOS>ATOM
      1  C         16.2210  -23.4560   -6.5810 C.2     1  UNL1       -0.0540
      2  C         17.3930  -24.2020   -6.4050 C.2     1  UNL1        0.0080
      3  C         18.4000  -24.1900   -7.3740 C.2     1  UNL1        0.0100
      4  C         18.2590  -23.4300   -8.5430 C.2     1  UNL1       -0.0340
      5  C         17.0760  -22.6930   -8.7400 C.2     1  UNL1       -0.0480
      6  C         16.0760  -22.7010   -7.7540 C.2     1  UNL1        0.0150
      7  C         16.8990  -21.8530   -9.9820 C.3     1  UNL1        0.0590
      8  C         17.7900  -22.3600  -11.1110 C.3     1  UNL1        0.1310
      9  N         19.1670  -22.4800  -10.6520 N.am    1  UNL1       -0.3430
     10  C         20.0860  -21.4990  -11.0160 C.2     1  UNL1        0.2590
     11  O         19.7290  -20.4690  -11.5870 O.2     1  UNL1       -0.2670
     12  C         19.3730  -23.4450   -9.5740 C.3     1  UNL1        0.1650
     13  C         21.4940  -21.6880  -10.7120 C.2     1  UNL1        0.0990
     14  C         22.0590  -21.7300   -9.4210 C.2     1  UNL1        0.1600
     15  N         23.3830  -21.8830   -9.4280 N.2     1  UNL1       -0.1780
     16  N         23.7120  -21.8770  -10.7390 N.pl3   1  UNL1       -0.2250
     17  C         24.9870  -21.9520  -11.2840 C.2     1  UNL1        0.1390
     18  C         22.5840  -21.7590  -11.5630 C.2     1  UNL1        0.1670
     19  C         25.1680  -21.8960  -12.6140 C.2     1  UNL1        0.0670
     20  C         23.9110  -21.7860  -13.4020 C.2     1  UNL1        0.1370
     21  N         22.7000  -21.7190  -12.9300 N.2     1  UNL1       -0.2390
     22  C         26.5340  -21.9640  -13.1710 C.2     1  UNL1        0.2520
     23  N         27.1200  -23.1910  -13.2100 N.am    1  UNL1       -0.3660
     24  H         28.0220  -23.2360  -13.6710 H       1  UNL1        0.1590
     25  H         26.6350  -24.0650  -13.0690 H       1  UNL1        0.1590
     26  O         27.1210  -20.9800  -13.6050 O.2     1  UNL1       -0.2680
     27  C         15.1460  -23.4770   -5.5080 C.3     1  UNL1        0.0100
     28  C         14.3220  -22.1860   -5.5120 C.3     1  UNL1        0.0150
     29  C         15.7380  -23.7410   -4.1220 C.3     1  UNL1        0.0150
@<TRIPOS>BOND
     1    24    23    1
     2    26    22    2
     3    20    21    2
     4    20    19    1
     5    23    22   am
     6    23    25    1
     7    22    19    1
     8    21    18    1
     9    19    17    2
    10    11    10    2
    11    18    16    1
    12    18    13    2
    13    17    16    1
    14     8     9    1
    15     8     7    1
    16    10    13    1
    17    10     9   am
    18    16    15    1
    19    13    14    1
    20     9    12    1
    21     7     5    1
    22    12     4    1
    23    15    14    2
    24     5     4    2
    25     5     6    1
    26     4     3    1
    27     6     1    2
    28     3     2    2
    29     1     2    1
    30     1    27    1
    31    28    27    1
    32    27    29    1
