@<TRIPOS>MOLECULE
22049_out_ligand_01.pdbqt
 33 35 0 0 0
SMALL
GASTEIGER

@<TRIPOS>ATOM
      1  N         23.8660  -23.1260  -10.3560 N.am    1  UNL1       -0.3510
      2  C         23.2470  -22.0240   -9.8000 C.2     1  UNL1        0.2690
      3  O         23.8140  -20.9430   -9.6830 O.2     1  UNL1       -0.2660
      4  H         23.2740  -23.8550  -10.7250 H       1  UNL1        0.1630
      5  C         21.8720  -22.2530   -9.3970 C.ar    1  UNL1        0.1080
      6  N         21.4610  -22.4800   -8.1030 N.ar    1  UNL1       -0.3510
      7  C         20.1010  -22.6510   -8.0340 C.ar    1  UNL1        0.0430
      8  H         22.0740  -22.4790   -7.3010 H       1  UNL1        0.1660
      9  C         19.2820  -22.9110   -6.9310 C.2     1  UNL1        0.0310
     10  C         19.6080  -22.5060   -9.3270 C.ar    1  UNL1       -0.0000
     11  C         17.9070  -23.0310   -7.1590 C.2     1  UNL1        0.0180
     12  C         17.3630  -22.8850   -8.4410 C.2     1  UNL1        0.0480
     13  C         18.2170  -22.6280   -9.5310 C.2     1  UNL1        0.0300
     14  C         20.7250  -22.2450  -10.1850 C.ar    1  UNL1       -0.0170
     15  C         20.6750  -22.0080  -11.6570 C.3     1  UNL1        0.0520
     16  C         15.8780  -23.0390   -8.6630 C.3     1  UNL1        0.4170
     17  F         15.5030  -24.3430   -8.7690 F       1  UNL1       -0.1660
     18  F         15.4350  -22.4290   -9.7980 F       1  UNL1       -0.1660
     19  F         15.1310  -22.5180   -7.6480 F       1  UNL1       -0.1660
     20  C         25.1860  -23.0220  -10.9380 C.3     1  UNL1        0.1610
     21  C         25.1060  -22.9610  -12.4430 C.2     1  UNL1       -0.0400
     22  C         25.2710  -24.1190  -13.2170 C.2     1  UNL1        0.0170
     23  C         25.1700  -24.0840  -14.6190 C.2     1  UNL1       -0.0390
     24  C         25.3710  -25.3560  -15.3960 C.3     1  UNL1        0.0500
     25  C         24.9010  -22.8490  -15.2430 C.2     1  UNL1        0.0800
     26  C         24.7270  -21.6900  -14.4750 C.2     1  UNL1        0.0260
     27  C         24.8260  -21.7490  -13.0850 C.2     1  UNL1        0.0100
     28  S         24.7830  -22.7570  -17.0120 S.O2    1  UNL1        0.2390
     29  O         23.5650  -23.4150  -17.4220 O.2     1  UNL1       -0.2060
     30  O         26.0730  -23.0710  -17.5790 O.2     1  UNL1       -0.2060
     31  N         24.5460  -21.1270  -17.3570 N.3     1  UNL1       -0.2250
     32  H         23.6740  -20.8160  -16.9280 H       1  UNL1        0.1360
     33  H         25.3640  -20.5980  -17.0540 H       1  UNL1        0.1360
@<TRIPOS>BOND
     1    30    28    2
     2    29    28    2
     3    31    33    1
     4    31    28    1
     5    31    32    1
     6    28    25    1
     7    24    23    1
     8    25    23    2
     9    25    26    1
    10    23    22    1
    11    26    27    2
    12    22    21    2
    13    27    21    1
    14    21    20    1
    15    15    14    1
    16    20     1    1
    17     4     1    1
    18     1     2   am
    19    14     5   ar
    20    14    10   ar
    21     2     3    2
    22     2     5    1
    23    18    16    1
    24    13    10    1
    25    13    12    2
    26     5     6   ar
    27    10     7   ar
    28    17    16    1
    29    16    12    1
    30    16    19    1
    31    12    11    1
    32     6     7   ar
    33     6     8    1
    34     7     9    1
    35    11     9    2
