@<TRIPOS>MOLECULE
22050_out_ligand_01.pdbqt
 41 45 0 0 0
SMALL
GASTEIGER

@<TRIPOS>ATOM
      1  C         20.3420  -21.0170  -11.5410 C.2     1  UNL1        0.2560
      2  O         20.4000  -19.8020  -11.6770 O.2     1  UNL1       -0.2670
      3  N         21.3490  -21.9280  -11.8140 N.am    1  UNL1       -0.3230
      4  H         21.2080  -22.8760  -11.4910 H       1  UNL1        0.1690
      5  C         19.0890  -21.6050  -10.9890 C.2     1  UNL1        0.0350
      6  C         17.8440  -21.4090  -11.6000 C.2     1  UNL1        0.0180
      7  C         16.6890  -21.9510  -11.0290 C.2     1  UNL1        0.0100
      8  C         16.7560  -22.6830   -9.8340 C.2     1  UNL1       -0.0280
      9  C         15.5050  -23.2530   -9.2320 C.3     1  UNL1        0.0510
     10  C         18.0140  -22.8900   -9.2450 C.2     1  UNL1        0.0840
     11  C         19.1680  -22.3350   -9.7990 C.2     1  UNL1        0.0550
     12  O         18.1370  -23.5580   -8.0510 O.2     1  UNL1       -0.2910
     13  C         18.2880  -22.7730   -6.9050 C.2     1  UNL1        0.1830
     14  N         19.3720  -21.9780   -6.7890 N.2     1  UNL1       -0.2170
     15  C         19.4360  -21.2640   -5.6640 C.2     1  UNL1        0.2360
     16  N         18.5410  -21.2760   -4.6650 N.2     1  UNL1       -0.2410
     17  C         17.4740  -22.0710   -4.8120 C.2     1  UNL1        0.0720
     18  C         16.5160  -22.1110   -3.8040 C.2     1  UNL1        0.0340
     19  C         17.2740  -22.8660   -5.9470 C.2     1  UNL1        0.0470
     20  C         15.3700  -22.9090   -3.9050 C.2     1  UNL1        0.0210
     21  C         15.1770  -23.6910   -5.0360 C.2     1  UNL1        0.0120
     22 BR         13.6260  -24.7600   -5.1950 Br      1  UNL1       -0.0510
     23  C         16.1210  -23.6810   -6.0570 C.2     1  UNL1        0.0370
     24  C         22.5890  -21.6680  -12.4340 C.2     1  UNL1        0.0350
     25  C         22.5590  -21.1240  -13.7180 C.2     1  UNL1        0.0300
     26  C         23.7450  -20.8170  -14.3900 C.2     1  UNL1        0.0120
     27  C         24.9950  -21.0440  -13.7920 C.2     1  UNL1       -0.0150
     28  C         25.0410  -21.5800  -12.4850 C.2     1  UNL1        0.0580
     29  C         23.8280  -21.8950  -11.8310 C.2     1  UNL1        0.0460
     30  C         26.2480  -20.6810  -14.5690 C.3     1  UNL1        0.3110
     31  N         26.5670  -21.6490  -15.6200 N.3     1  UNL1        0.0960
     32  C         25.8140  -22.9150  -15.4710 C.3     1  UNL1        0.3030
     33  C         25.6820  -23.7000  -16.7970 C.3     1  UNL1        0.3020
     34  N         24.9840  -22.9580  -17.8680 N.3     1  UNL1        0.0870
     35  C         23.5910  -23.3670  -18.0000 C.3     1  UNL1        0.3100
     36  C         25.0890  -21.4990  -17.6740 C.3     1  UNL1        0.3020
     37  C         26.3990  -21.0790  -16.9730 C.3     1  UNL1        0.3030
     38  C         26.3440  -21.8540  -11.7580 C.3     1  UNL1        0.4180
     39  F         26.1460  -22.3280  -10.4900 F       1  UNL1       -0.1660
     40  F         27.1190  -20.7450  -11.5880 F       1  UNL1       -0.1660
     41  F         27.1210  -22.7910  -12.3670 F       1  UNL1       -0.1660
@<TRIPOS>BOND
     1    35    34    1
     2    34    36    1
     3    34    33    1
     4    36    37    1
     5    37    31    1
     6    33    32    1
     7    31    32    1
     8    31    30    1
     9    30    27    1
    10    26    27    2
    11    26    25    1
    12    27    28    1
    13    25    24    2
    14    28    29    2
    15    28    38    1
    16    24    29    1
    17    24     3    1
    18    41    38    1
    19     3     1   am
    20     3     4    1
    21    38    40    1
    22    38    39    1
    23     2     1    2
    24     6     7    1
    25     6     5    2
    26     1     5    1
    27     7     8    2
    28     5    11    1
    29     8    10    1
    30     8     9    1
    31    11    10    2
    32    10    12    1
    33    12    13    1
    34    13    14    2
    35    13    19    1
    36    14    15    1
    37    23    19    1
    38    23    21    2
    39    19    17    2
    40    15    16    2
    41    22    21    1
    42    21    20    1
    43    17    16    1
    44    17    18    1
    45    20    18    2
