@<TRIPOS>MOLECULE
22081_out_ligand_01.pdbqt
 29 31 0 0 0
SMALL
GASTEIGER

@<TRIPOS>ATOM
      1  C         21.3860  -23.5580   -8.7280 C.2     1  UNL1        0.2610
      2  O         21.1730  -24.7430   -8.9900 O.2     1  UNL1       -0.2690
      3  N         20.5160  -22.6920   -8.0850 N.am    1  UNL1       -0.3240
      4  H         20.8650  -21.7610   -7.8900 H       1  UNL1        0.1690
      5  C         19.2270  -22.9730   -7.5910 C.2     1  UNL1        0.0350
      6  C         18.2140  -23.1690   -8.5290 C.2     1  UNL1        0.0300
      7  C         16.9130  -23.4570   -8.1170 C.2     1  UNL1        0.0100
      8  C         16.5850  -23.5550   -6.7560 C.2     1  UNL1       -0.0490
      9  C         17.5910  -23.3550   -5.7940 C.2     1  UNL1       -0.0210
     10  C         15.1630  -23.8820   -6.3820 C.3     1  UNL1        0.0390
     11  C         18.9070  -23.0700   -6.2360 C.2     1  UNL1        0.0390
     12  C         17.3810  -23.4320   -4.2890 C.3     1  UNL1        0.1510
     13  C         15.9720  -23.2590   -3.7030 C.3     1  UNL1        0.0360
     14  C         15.1340  -22.2050   -4.4120 C.3     1  UNL1        0.0030
     15  C         14.4450  -22.7340   -5.6730 C.3     1  UNL1        0.0050
     16  O         17.8920  -24.6750   -3.7970 O.3     1  UNL1       -0.3910
     17  H         18.3120  -25.1410   -4.5390 H       1  UNL1        0.2100
     18  C         22.7340  -22.9080   -9.1830 C.3     1  UNL1        0.1620
     19  C         23.8540  -23.9220   -8.9190 C.3     1  UNL1        0.0620
     20  O         23.0190  -21.7730   -8.3530 O.3     1  UNL1       -0.3760
     21  H         22.1750  -21.5510   -7.9090 H       1  UNL1        0.2110
     22  C         22.6450  -22.3770  -10.6140 C.2     1  UNL1       -0.0140
     23  C         21.4430  -21.9410  -11.1990 C.2     1  UNL1        0.0140
     24  C         21.4210  -21.4490  -12.5080 C.2     1  UNL1        0.0440
     25  C         22.5960  -21.3880  -13.2490 C.2     1  UNL1        0.1330
     26  F         22.5420  -20.9070  -14.4990 F       1  UNL1       -0.2050
     27  C         23.7970  -21.8180  -12.6980 C.2     1  UNL1        0.0500
     28 BR         25.3990  -21.7410  -13.6970 Br      1  UNL1       -0.0480
     29  C         23.8240  -22.3110  -11.3910 C.2     1  UNL1        0.0330
@<TRIPOS>BOND
     1    26    25    1
     2    28    27    1
     3    25    27    2
     4    25    24    1
     5    27    29    1
     6    24    23    2
     7    29    22    2
     8    23    22    1
     9    22    18    1
    10    18    19    1
    11    18     1    1
    12    18    20    1
    13     2     1    2
    14     1     3   am
    15     6     7    1
    16     6     5    2
    17    20    21    1
    18     7     8    2
    19     3     4    1
    20     3     5    1
    21     5    11    1
    22     8    10    1
    23     8     9    1
    24    10    15    1
    25    11     9    2
    26     9    12    1
    27    15    14    1
    28    17    16    1
    29    14    13    1
    30    12    16    1
    31    12    13    1
