@<TRIPOS>MOLECULE
22088_out_ligand_01.pdbqt
 39 43 0 0 0
SMALL
GASTEIGER

@<TRIPOS>ATOM
      1  C         21.3380  -23.1360   -9.5560 C.2     1  UNL1        0.0840
      2  C         22.1600  -23.2320  -10.6800 C.2     1  UNL1        0.0550
      3  C         23.3210  -22.4570  -10.7550 C.2     1  UNL1        0.0350
      4  C         23.6570  -21.6010   -9.6980 C.2     1  UNL1        0.0180
      5  C         22.8180  -21.4970   -8.5850 C.2     1  UNL1        0.0100
      6  C         21.6370  -22.2460   -8.5110 C.2     1  UNL1       -0.0280
      7  C         20.7510  -22.1340   -7.3020 C.3     1  UNL1        0.0510
      8  C         24.1920  -22.5860  -11.9540 C.2     1  UNL1        0.2560
      9  O         25.2080  -23.2630  -11.8680 O.2     1  UNL1       -0.2670
     10  N         23.7170  -21.9350  -13.0800 N.am    1  UNL1       -0.3230
     11  H         22.7800  -21.5580  -13.0270 H       1  UNL1        0.1690
     12  C         24.3520  -21.8170  -14.3350 C.2     1  UNL1        0.0370
     13  C         24.5520  -22.9940  -15.0600 C.2     1  UNL1        0.0290
     14  C         25.1650  -22.9520  -16.3100 C.2     1  UNL1        0.0040
     15  C         25.5750  -21.7310  -16.8490 C.2     1  UNL1        0.0300
     16  C         25.3830  -20.5330  -16.1530 C.2     1  UNL1        0.0410
     17  C         24.7630  -20.6000  -14.8900 C.2     1  UNL1        0.0590
     18  N         25.7940  -19.2830  -16.6900 N.am    1  UNL1       -0.2980
     19  C         25.6540  -18.9450  -18.0930 C.3     1  UNL1        0.1540
     20  C         25.9550  -17.4580  -18.1530 C.3     1  UNL1        0.1470
     21  N         26.7140  -17.2230  -16.9540 N.am    1  UNL1       -0.3370
     22  C         27.1210  -15.8980  -16.5590 C.3     1  UNL1        0.1540
     23  C         26.4550  -18.2350  -16.0090 C.2     1  UNL1        0.3240
     24  O         26.7570  -18.1550  -14.8290 O.2     1  UNL1       -0.2470
     25  O         20.1760  -23.8710   -9.5250 O.2     1  UNL1       -0.2910
     26  C         18.9940  -23.1690   -9.7710 C.2     1  UNL1        0.1830
     27  N         18.8840  -22.4570  -10.9060 N.2     1  UNL1       -0.2170
     28  C         17.7330  -21.8020  -11.0590 C.2     1  UNL1        0.2360
     29  N         16.7050  -21.8020  -10.2020 N.2     1  UNL1       -0.2410
     30  C         16.8430  -22.5190   -9.0810 C.2     1  UNL1        0.0750
     31  C         15.7980  -22.5460   -8.1680 C.2     1  UNL1        0.0720
     32  C         18.0000  -23.2440   -8.7920 C.2     1  UNL1        0.0490
     33  C         15.8730  -23.2790   -6.9790 C.2     1  UNL1        0.1030
     34  C         17.0360  -24.0100   -6.6870 C.2     1  UNL1        0.1020
     35  C         18.0970  -23.9870   -7.5930 C.2     1  UNL1        0.0570
     36  O         14.8650  -23.3500   -6.0480 O.2     1  UNL1       -0.3530
     37  C         14.6470  -22.2150   -5.2210 C.3     1  UNL1        0.2100
     38  O         17.0390  -24.7030   -5.5060 O.2     1  UNL1       -0.3530
     39  C         17.6190  -24.0800   -4.3700 C.3     1  UNL1        0.2100
@<TRIPOS>BOND
     1    20    19    1
     2    20    21    1
     3    19    18    1
     4    21    22    1
     5    21    23   am
     6    15    14    2
     7    15    16    1
     8    18    16    1
     9    18    23   am
    10    14    13    1
    11    16    17    2
    12    23    24    2
    13    13    12    2
    14    17    12    1
    15    12    10    1
    16    10    11    1
    17    10     8   am
    18     8     9    2
    19     8     3    1
    20    28    27    1
    21    28    29    2
    22    27    26    2
    23     3     2    1
    24     3     4    2
    25     2     1    2
    26    29    30    1
    27    26    25    1
    28    26    32    1
    29     4     5    1
    30     1    25    1
    31     1     6    1
    32    30    32    2
    33    30    31    1
    34    32    35    1
    35     5     6    2
    36     6     7    1
    37    31    33    2
    38    35    34    2
    39    33    34    1
    40    33    36    1
    41    34    38    1
    42    36    37    1
    43    38    39    1
