@<TRIPOS>MOLECULE
22100_out_ligand_01.pdbqt
 31 33 0 0 0
SMALL
GASTEIGER

@<TRIPOS>ATOM
      1  C         21.3330  -22.0650  -11.5060 C.2     1  UNL1        0.0340
      2  C         20.5200  -21.1160  -12.1440 C.2     1  UNL1        0.0170
      3  C         19.1800  -20.9790  -11.7710 C.2     1  UNL1        0.0040
      4  C         18.6450  -21.7940  -10.7750 C.2     1  UNL1        0.0370
      5  C         19.4460  -22.7610  -10.1640 C.2     1  UNL1        0.0770
      6  C         20.7890  -22.8900  -10.5150 C.2     1  UNL1        0.0540
      7  C         22.7660  -22.2480  -11.8670 C.2     1  UNL1        0.2520
      8  O         23.5410  -22.7830  -11.0820 O.2     1  UNL1       -0.2680
      9  N         23.1580  -21.7670  -13.0940 N.am    1  UNL1       -0.3500
     10  H         22.5660  -21.1030  -13.5800 H       1  UNL1        0.1630
     11  C         24.5560  -21.7430  -13.4540 C.3     1  UNL1        0.2030
     12  C         24.7300  -22.5440  -14.6890 C.ar    1  UNL1        0.1450
     13  N         25.5390  -23.5680  -14.8750 N.ar    1  UNL1       -0.1330
     14  N         25.3970  -23.9910  -16.1770 N.ar    1  UNL1       -0.1330
     15  C         24.5030  -23.2220  -16.7580 C.ar    1  UNL1        0.1510
     16  N         24.0600  -22.2940  -15.8540 N.ar    1  UNL1       -0.3270
     17  H         23.4010  -21.5500  -16.0400 H       1  UNL1        0.1680
     18  C         24.0170  -23.2800  -18.1530 C.3     1  UNL1        0.2440
     19  O         22.6440  -23.6540  -18.1090 O.3     1  UNL1       -0.3930
     20  H         22.6310  -24.5960  -17.8570 H       1  UNL1        0.2090
     21  O         18.9800  -23.5680   -9.1500 O.2     1  UNL1       -0.3110
     22  C         18.7270  -22.9680   -7.9380 C.2     1  UNL1        0.0760
     23  C         19.6610  -22.1610   -7.2840 C.2     1  UNL1        0.0370
     24  C         19.3220  -21.5470   -6.0780 C.2     1  UNL1        0.0040
     25  C         18.0490  -21.7290   -5.5340 C.2     1  UNL1        0.0160
     26  C         17.0980  -22.5270   -6.1910 C.2     1  UNL1        0.0500
     27  C         17.4470  -23.1330   -7.4080 C.2     1  UNL1        0.0530
     28  C         15.7110  -22.7000   -5.6250 C.3     1  UNL1        0.4170
     29  F         14.7580  -22.1100   -6.3970 F       1  UNL1       -0.1660
     30  F         15.5690  -22.1650   -4.3800 F       1  UNL1       -0.1660
     31  F         15.3440  -24.0070   -5.5090 F       1  UNL1       -0.1660
@<TRIPOS>BOND
     1    18    19    1
     2    18    15    1
     3    19    20    1
     4    15    14   ar
     5    15    16   ar
     6    14    13   ar
     7    17    16    1
     8    16    12   ar
     9    13    12   ar
    10    12    11    1
    11    10     9    1
    12    11     9    1
    13     9     7   am
    14     2     3    1
    15     2     1    2
    16     7     1    1
    17     7     8    2
    18     3     4    2
    19     1     6    1
    20     4     5    1
    21     6     5    2
    22     5    21    1
    23    21    22    1
    24    22    27    2
    25    22    23    1
    26    27    26    1
    27    23    24    2
    28    29    28    1
    29    26    28    1
    30    26    25    2
    31    24    25    1
    32    28    31    1
    33    28    30    1
