@<TRIPOS>MOLECULE
22129_out_ligand_01.pdbqt
 33 35 0 0 0
SMALL
GASTEIGER

@<TRIPOS>ATOM
      1  C         21.1010  -22.8410  -10.2810 C.2     1  UNL1        0.0340
      2  C         20.9680  -23.8100   -9.2820 C.2     1  UNL1        0.0310
      3  C         19.7340  -24.0220   -8.6580 C.2     1  UNL1        0.0270
      4  C         18.6300  -23.2510   -9.0280 C.2     1  UNL1        0.0800
      5  C         18.7420  -22.2950  -10.0390 C.2     1  UNL1        0.0270
      6  C         19.9770  -22.0920  -10.6590 C.2     1  UNL1        0.0310
      7  N         22.3060  -22.5680  -10.9520 N.am    1  UNL1       -0.3250
      8  C         23.3480  -21.7550  -10.5390 C.2     1  UNL1        0.2510
      9  O         23.4070  -21.1130   -9.4940 O.2     1  UNL1       -0.2700
     10  H         22.4000  -22.9360  -11.8950 H       1  UNL1        0.1690
     11  C         24.5250  -21.7510  -11.5340 C.3     1  UNL1        0.2170
     12  C         25.7800  -21.3090  -10.7870 C.3     1  UNL1        0.0500
     13  O         24.8000  -23.0450  -12.0730 O.2     1  UNL1       -0.3370
     14  C         24.8000  -23.1940  -13.4320 C.2     1  UNL1        0.0700
     15  C         25.2020  -24.3240  -14.1420 C.2     1  UNL1        0.0370
     16  C         25.1640  -24.3280  -15.5400 C.2     1  UNL1        0.0090
     17  C         24.7140  -23.2070  -16.2470 C.2     1  UNL1       -0.0620
     18  C         24.7050  -23.2050  -17.7470 C.3     1  UNL1        0.0480
     19  C         24.3290  -22.0690  -15.5320 C.2     1  UNL1        0.0090
     20  C         24.3690  -22.0660  -14.1360 C.2     1  UNL1        0.0370
     21  S         17.0580  -23.5330   -8.2540 S.O2    1  UNL1        0.2630
     22  O         16.0590  -23.6560   -9.2930 O.2     1  UNL1       -0.2000
     23  O         17.2420  -24.5900   -7.2800 O.2     1  UNL1       -0.2000
     24  N         16.8110  -22.1260   -7.3620 N.pl3   1  UNL1       -0.2800
     25  H         17.1240  -21.2900   -7.8520 H       1  UNL1        0.1790
     26  C         16.9320  -22.1520   -5.9430 C.2     1  UNL1        0.0540
     27  C         18.1540  -21.8230   -5.3230 C.2     1  UNL1       -0.0340
     28  C         19.3870  -21.4200   -6.0850 C.3     1  UNL1        0.0500
     29  C         18.2490  -21.9060   -3.9250 C.2     1  UNL1        0.0090
     30  C         17.1470  -22.2660   -3.1530 C.2     1  UNL1        0.0010
     31  C         15.9290  -22.5330   -3.7700 C.2     1  UNL1        0.0090
     32  C         15.7980  -22.4590   -5.1660 C.2     1  UNL1       -0.0340
     33  C         14.4420  -22.7260   -5.7570 C.3     1  UNL1        0.0500
@<TRIPOS>BOND
     1    18    17    1
     2    17    16    2
     3    17    19    1
     4    16    15    1
     5    19    20    2
     6    15    14    2
     7    20    14    1
     8    14    13    1
     9    13    11    1
    10    10     7    1
    11    11    12    1
    12    11     8    1
    13     7     8   am
    14     7     1    1
    15     6     1    2
    16     6     5    1
    17     8     9    2
    18     1     2    1
    19     5     4    2
    20    22    21    2
    21     2     3    2
    22     4     3    1
    23     4    21    1
    24    21    24    1
    25    21    23    2
    26    25    24    1
    27    24    26    1
    28    28    27    1
    29    26    27    2
    30    26    32    1
    31    33    32    1
    32    27    29    1
    33    32    31    2
    34    29    30    2
    35    31    30    1
