@<TRIPOS>MOLECULE
22149_out_ligand_01.pdbqt
 37 40 0 0 0
SMALL
GASTEIGER

@<TRIPOS>ATOM
      1  C         20.8210  -23.1810   -9.7120 C.2     1  UNL1        0.0340
      2  C         19.9340  -22.5760  -10.6140 C.2     1  UNL1        0.0310
      3  C         18.5560  -22.6140  -10.3930 C.2     1  UNL1        0.0270
      4  C         18.0630  -23.2600   -9.2600 C.2     1  UNL1        0.0800
      5  C         18.9360  -23.8370   -8.3360 C.2     1  UNL1        0.0270
      6  C         20.3140  -23.8050   -8.5710 C.2     1  UNL1        0.0310
      7  N         22.1900  -23.0970  -10.0110 N.am    1  UNL1       -0.3250
      8  C         23.0560  -22.0480   -9.7610 C.2     1  UNL1        0.2460
      9  O         22.7830  -20.9910   -9.1970 O.2     1  UNL1       -0.2710
     10  H         22.6240  -23.9260  -10.4060 H       1  UNL1        0.1690
     11  C         24.4770  -22.3200  -10.2700 C.3     1  UNL1        0.2780
     12  O         24.6500  -22.0430  -11.6560 O.2     1  UNL1       -0.3420
     13  C         25.4420  -20.9860  -12.0260 C.2     1  UNL1        0.0760
     14  C         26.2470  -20.2920  -11.1060 C.2     1  UNL1        0.0370
     15  C         27.0560  -19.2400  -11.5220 C.2     1  UNL1        0.0030
     16  C         27.0750  -18.8780  -12.8610 C.2     1  UNL1        0.0010
     17  C         26.2970  -19.5780  -13.7870 C.2     1  UNL1        0.0110
     18  C         25.4700  -20.6570  -13.4050 C.2     1  UNL1       -0.0170
     19  C         24.6500  -21.4360  -14.4640 C.3     1  UNL1       -0.0210
     20  C         25.0210  -22.9340  -14.4250 C.3     1  UNL1        0.0190
     21  C         24.9110  -20.9660  -15.9200 C.3     1  UNL1        0.0190
     22  C         23.1330  -21.2680  -14.2280 C.3     1  UNL1        0.0190
     23  S         16.3120  -23.3100   -8.9600 S.O2    1  UNL1        0.2630
     24  O         15.6540  -22.8320  -10.1600 O.2     1  UNL1       -0.2000
     25  O         15.9910  -24.6060   -8.4010 O.2     1  UNL1       -0.2000
     26  N         16.0890  -22.1150   -7.7880 N.pl3   1  UNL1       -0.2800
     27  H         16.5710  -21.2460   -8.0110 H       1  UNL1        0.1790
     28  C         15.9990  -22.4960   -6.4120 C.2     1  UNL1        0.0530
     29  C         14.9340  -23.3180   -6.0330 C.2     1  UNL1        0.0310
     30  C         14.8070  -23.7390   -4.7150 C.2     1  UNL1        0.0030
     31  C         15.7450  -23.3400   -3.7670 C.2     1  UNL1        0.0120
     32  C         16.8290  -22.5230   -4.1250 C.2     1  UNL1       -0.0240
     33  C         17.7680  -22.1360   -3.1540 C.2     1  UNL1        0.0120
     34  C         16.9760  -22.0860   -5.4650 C.2     1  UNL1        0.0010
     35  C         18.8570  -21.3290   -3.4880 C.2     1  UNL1        0.0010
     36  C         19.0220  -20.9030   -4.7980 C.2     1  UNL1        0.0010
     37  C         18.0930  -21.2740   -5.7740 C.2     1  UNL1        0.0140
@<TRIPOS>BOND
     1    21    19    1
     2    19    20    1
     3    19    22    1
     4    19    18    1
     5    17    18    1
     6    17    16    2
     7    18    13    2
     8    16    15    1
     9    13    12    1
    10    13    14    1
    11    12    11    1
    12    15    14    2
    13     2     3    1
    14     2     1    2
    15    10     7    1
    16     3     4    2
    17    11     8    1
    18    24    23    2
    19     7     8   am
    20     7     1    1
    21     8     9    2
    22     1     6    1
    23     4    23    1
    24     4     5    1
    25    23    25    2
    26    23    26    1
    27     6     5    2
    28    27    26    1
    29    26    28    1
    30    28    29    2
    31    28    34    1
    32    29    30    1
    33    37    34    1
    34    37    36    2
    35    34    32    2
    36    36    35    1
    37    30    31    2
    38    32    31    1
    39    32    33    1
    40    35    33    2
