@<TRIPOS>MOLECULE
22143_out_ligand_01.pdbqt
 36 39 0 0 0
SMALL
GASTEIGER

@<TRIPOS>ATOM
      1  C         20.7970  -22.4690  -10.8730 C.2     1  UNL1        0.0340
      2  C         19.7070  -21.6980  -11.2820 C.2     1  UNL1        0.0310
      3  C         18.4440  -21.8910  -10.7110 C.2     1  UNL1        0.0270
      4  C         18.2760  -22.8580   -9.7200 C.2     1  UNL1        0.0800
      5  C         19.3500  -23.6510   -9.3130 C.2     1  UNL1        0.0270
      6  C         20.6070  -23.4500   -9.8900 C.2     1  UNL1        0.0310
      7  N         22.0950  -22.3310  -11.3950 N.am    1  UNL1       -0.3250
      8  C         23.2000  -21.7540  -10.7940 C.2     1  UNL1        0.2510
      9  O         23.2460  -21.2500   -9.6750 O.2     1  UNL1       -0.2700
     10  H         22.2840  -22.7890  -12.2830 H       1  UNL1        0.1690
     11  C         24.4410  -21.7550  -11.7090 C.3     1  UNL1        0.2170
     12  C         25.5820  -21.0690  -10.9640 C.3     1  UNL1        0.0500
     13  O         24.2440  -21.0260  -12.9210 O.2     1  UNL1       -0.3370
     14  C         24.5320  -21.6450  -14.1050 C.2     1  UNL1        0.0700
     15  C         24.5700  -21.0450  -15.3640 C.2     1  UNL1        0.0430
     16  C         24.9200  -21.7920  -16.4990 C.2     1  UNL1       -0.0590
     17  C         25.2040  -23.1550  -16.3650 C.2     1  UNL1        0.0130
     18  C         24.9420  -21.1380  -17.8500 C.3     1  UNL1        0.0480
     19  C         25.1560  -23.7740  -15.1110 C.2     1  UNL1       -0.0590
     20  C         25.4970  -25.2250  -14.9630 C.3     1  UNL1        0.0480
     21  C         24.8350  -23.0040  -13.9860 C.2     1  UNL1        0.0430
     22  S         16.6740  -23.0990   -8.9960 S.O2    1  UNL1        0.2630
     23  O         16.2460  -21.8210   -8.4660 O.2     1  UNL1       -0.2000
     24  O         15.8460  -23.8290   -9.9300 O.2     1  UNL1       -0.2000
     25  N         17.0170  -24.0650   -7.6550 N.pl3   1  UNL1       -0.2800
     26  H         17.9080  -24.5470   -7.7580 H       1  UNL1        0.1790
     27  C         16.6850  -23.5650   -6.3580 C.2     1  UNL1        0.0530
     28  C         15.5170  -24.0500   -5.7640 C.2     1  UNL1        0.0310
     29  C         15.1350  -23.5960   -4.5070 C.2     1  UNL1        0.0030
     30  C         15.9210  -22.6590   -3.8390 C.2     1  UNL1        0.0120
     31  C         17.0970  -22.1560   -4.4190 C.2     1  UNL1       -0.0240
     32  C         17.8790  -21.2120   -3.7340 C.2     1  UNL1        0.0120
     33  C         17.4950  -22.6020   -5.7040 C.2     1  UNL1        0.0010
     34  C         19.0440  -20.6980   -4.3020 C.2     1  UNL1        0.0010
     35  C         19.4410  -21.1170   -5.5640 C.2     1  UNL1        0.0010
     36  C         18.6770  -22.0580   -6.2570 C.2     1  UNL1        0.0140
@<TRIPOS>BOND
     1    18    16    1
     2    16    17    2
     3    16    15    1
     4    17    19    1
     5    15    14    2
     6    19    20    1
     7    19    21    2
     8    14    21    1
     9    14    13    1
    10    13    11    1
    11    10     7    1
    12    11    12    1
    13    11     8    1
    14     7     1    1
    15     7     8   am
    16     2     1    2
    17     2     3    1
    18     1     6    1
    19     8     9    2
    20     3     4    2
    21    24    22    2
    22     6     5    2
    23     4     5    1
    24     4    22    1
    25    22    23    2
    26    22    25    1
    27    26    25    1
    28    25    27    1
    29    27    28    2
    30    27    33    1
    31    36    33    1
    32    36    35    2
    33    28    29    1
    34    33    31    2
    35    35    34    1
    36    29    30    2
    37    31    30    1
    38    31    32    1
    39    34    32    2
