@<TRIPOS>MOLECULE
22144_out_ligand_01.pdbqt
 36 38 0 0 0
SMALL
GASTEIGER

@<TRIPOS>ATOM
      1  C         20.9330  -23.0420   -8.0870 C.2     1  UNL1        0.0340
      2  C         20.6770  -21.9350   -7.2740 C.2     1  UNL1        0.0310
      3  C         19.5320  -21.8920   -6.4730 C.2     1  UNL1        0.0270
      4  C         18.6530  -22.9770   -6.4610 C.2     1  UNL1        0.0800
      5  C         18.8850  -24.0830   -7.2800 C.2     1  UNL1        0.0270
      6  C         20.0230  -24.1110   -8.0920 C.2     1  UNL1        0.0310
      7  N         22.0540  -23.1540   -8.9330 N.am    1  UNL1       -0.3250
      8  C         22.9730  -22.1640   -9.2610 C.2     1  UNL1        0.2510
      9  O         22.9650  -21.0140   -8.8290 O.2     1  UNL1       -0.2700
     10  H         22.2410  -24.0780   -9.3040 H       1  UNL1        0.1690
     11  C         24.0350  -22.6560  -10.2720 C.3     1  UNL1        0.2170
     12  C         24.8960  -23.7480   -9.6400 C.3     1  UNL1        0.0500
     13  O         23.4260  -23.2270  -11.4380 O.2     1  UNL1       -0.3360
     14  C         23.7250  -22.5610  -12.5980 C.2     1  UNL1        0.0750
     15  C         25.0050  -22.7580  -13.1220 C.2     1  UNL1        0.0380
     16  C         25.3830  -22.1300  -14.3070 C.2     1  UNL1        0.0090
     17  C         24.4940  -21.2710  -14.9600 C.2     1  UNL1       -0.0610
     18  C         24.8910  -20.6110  -16.2490 C.3     1  UNL1        0.0480
     19  C         23.2260  -21.0470  -14.4040 C.2     1  UNL1        0.0160
     20  C         22.8390  -21.6580  -13.2000 C.2     1  UNL1       -0.0280
     21  C         21.5040  -21.3210  -12.6060 C.3     1  UNL1        0.0510
     22  S         17.1940  -22.9230   -5.4420 S.O2    1  UNL1        0.2630
     23  O         17.3950  -21.8820   -4.4560 O.2     1  UNL1       -0.2000
     24  O         16.8700  -24.2780   -5.0500 O.2     1  UNL1       -0.2000
     25  N         16.0090  -22.3380   -6.4980 N.pl3   1  UNL1       -0.2810
     26  H         15.6780  -21.4120   -6.2300 H       1  UNL1        0.1790
     27  C         16.0980  -22.6430   -7.8820 C.2     1  UNL1        0.0430
     28  C         15.4650  -23.7860   -8.3700 C.2     1  UNL1        0.0300
     29  C         15.4930  -24.0670   -9.7360 C.2     1  UNL1        0.0030
     30  C         16.1620  -23.2100  -10.6120 C.2     1  UNL1        0.0160
     31  C         16.8170  -22.0660  -10.1300 C.2     1  UNL1        0.0500
     32  C         16.7700  -21.7880   -8.7550 C.2     1  UNL1        0.0460
     33  C         17.5280  -21.1250  -11.0680 C.3     1  UNL1        0.4170
     34  F         18.8240  -20.9020  -10.7150 F       1  UNL1       -0.1660
     35  F         17.5690  -21.5760  -12.3530 F       1  UNL1       -0.1660
     36  F         16.9350  -19.9010  -11.1220 F       1  UNL1       -0.1660
@<TRIPOS>BOND
     1    18    17    1
     2    17    19    2
     3    17    16    1
     4    19    20    1
     5    16    15    2
     6    20    21    1
     7    20    14    2
     8    15    14    1
     9    14    13    1
    10    35    33    1
    11    13    11    1
    12    36    33    1
    13    33    34    1
    14    33    31    1
    15    30    31    2
    16    30    29    1
    17    11    12    1
    18    11     8    1
    19    31    32    1
    20    29    28    2
    21    10     7    1
    22     8     7   am
    23     8     9    2
    24     7     1    1
    25    32    27    2
    26    28    27    1
    27     6     1    2
    28     6     5    1
    29     1     2    1
    30    27    25    1
    31     5     4    2
    32     2     3    2
    33    25    26    1
    34    25    22    1
    35     3     4    1
    36     4    22    1
    37    22    24    2
    38    22    23    2
