@<TRIPOS>MOLECULE
22141_out_ligand_01.pdbqt
 32 34 0 0 0
SMALL
GASTEIGER

@<TRIPOS>ATOM
      1  C         21.0220  -22.8340  -10.2340 C.2     1  UNL1        0.0340
      2  C         20.8980  -23.7710   -9.2040 C.2     1  UNL1        0.0310
      3  C         19.6590  -23.9930   -8.5950 C.2     1  UNL1        0.0270
      4  C         18.5440  -23.2580   -9.0010 C.2     1  UNL1        0.0800
      5  C         18.6500  -22.3280  -10.0380 C.2     1  UNL1        0.0270
      6  C         19.8890  -22.1230  -10.6520 C.2     1  UNL1        0.0310
      7  N         22.2280  -22.5730  -10.9080 N.am    1  UNL1       -0.3250
      8  C         23.2830  -21.7860  -10.4810 C.2     1  UNL1        0.2510
      9  O         23.3330  -21.1340   -9.4420 O.2     1  UNL1       -0.2700
     10  H         22.3030  -22.8990  -11.8690 H       1  UNL1        0.1690
     11  C         24.4730  -21.8010  -11.4580 C.3     1  UNL1        0.2170
     12  C         25.7330  -21.4100  -10.6900 C.3     1  UNL1        0.0500
     13  O         24.7140  -23.0940  -12.0190 O.2     1  UNL1       -0.3370
     14  C         24.7750  -23.2010  -13.3810 C.2     1  UNL1        0.0700
     15  C         25.2400  -24.3020  -14.1000 C.2     1  UNL1        0.0370
     16  C         25.2600  -24.2690  -15.4990 C.2     1  UNL1        0.0090
     17  C         24.8100  -23.1420  -16.1960 C.2     1  UNL1       -0.0620
     18  C         24.8560  -23.1010  -17.6940 C.3     1  UNL1        0.0480
     19  C         24.3700  -22.0320  -15.4700 C.2     1  UNL1        0.0090
     20  C         24.3520  -22.0660  -14.0740 C.2     1  UNL1        0.0370
     21  S         16.9630  -23.5630   -8.2530 S.O2    1  UNL1        0.2630
     22  O         15.9790  -23.5540   -9.3170 O.2     1  UNL1       -0.2000
     23  O         17.0810  -24.6970   -7.3640 O.2     1  UNL1       -0.2000
     24  N         16.6850  -22.1490   -7.3640 N.pl3   1  UNL1       -0.2800
     25  H         15.9310  -21.6100   -7.7850 H       1  UNL1        0.1790
     26  C         16.7020  -22.2410   -5.9410 C.2     1  UNL1        0.0480
     27  C         15.5420  -22.6620   -5.2850 C.2     1  UNL1        0.0300
     28  C         15.5030  -22.7200   -3.8930 C.2     1  UNL1        0.0020
     29  C         16.6240  -22.3560   -3.1530 C.2     1  UNL1        0.0010
     30  C         17.7850  -21.9370   -3.8050 C.2     1  UNL1        0.0090
     31  C         17.8380  -21.8680   -5.2060 C.2     1  UNL1       -0.0350
     32  C         19.1070  -21.4180   -5.8740 C.3     1  UNL1        0.0500
@<TRIPOS>BOND
     1    18    17    1
     2    17    16    2
     3    17    19    1
     4    16    15    1
     5    19    20    2
     6    15    14    2
     7    20    14    1
     8    14    13    1
     9    13    11    1
    10    10     7    1
    11    11    12    1
    12    11     8    1
    13     7     8   am
    14     7     1    1
    15     6     1    2
    16     6     5    1
    17     8     9    2
    18     1     2    1
    19     5     4    2
    20    22    21    2
    21     2     3    2
    22     4     3    1
    23     4    21    1
    24    21    24    1
    25    21    23    2
    26    25    24    1
    27    24    26    1
    28    26    27    2
    29    26    31    1
    30    32    31    1
    31    27    28    1
    32    31    30    2
    33    28    29    2
    34    30    29    1
