@<TRIPOS>MOLECULE
22164_out_ligand_01.pdbqt
 41 45 0 0 0
SMALL
GASTEIGER

@<TRIPOS>ATOM
      1  C         20.2550  -22.3110  -10.7070 C.2     1  UNL1        0.0220
      2  C         19.1400  -21.5340  -11.0300 C.2     1  UNL1        0.0260
      3  C         17.8990  -21.8230  -10.4600 C.2     1  UNL1        0.0260
      4  C         17.7820  -22.9050   -9.5860 C.2     1  UNL1        0.0740
      5  C         18.8940  -23.6870   -9.2600 C.2     1  UNL1        0.0260
      6  C         20.1330  -23.3950   -9.8350 C.2     1  UNL1        0.0260
      7  N         21.5090  -22.0360  -11.3430 N.pl3   1  UNL1       -0.1810
      8  H         21.5510  -21.0630  -11.6490 H       1  UNL1        0.1460
      9  S         22.8620  -22.2850  -10.3250 S.O2    1  UNL1        0.2450
     10  O         23.1130  -21.0150   -9.6800 O.2     1  UNL1       -0.2060
     11  O         22.7100  -23.5180   -9.5870 O.2     1  UNL1       -0.2060
     12  C         24.1300  -22.5530  -11.5370 C.2     1  UNL1        0.0760
     13  C         25.2980  -23.2230  -11.1580 C.2     1  UNL1        0.0270
     14  C         26.3070  -23.4540  -12.1010 C.2     1  UNL1        0.0390
     15  C         26.1560  -23.0200  -13.4220 C.2     1  UNL1        0.0840
     16  C         24.9710  -22.3520  -13.7790 C.2     1  UNL1        0.0670
     17  C         23.9600  -22.1040  -12.8440 C.2     1  UNL1        0.0440
     18  O         27.0800  -23.2110  -14.4140 O.2     1  UNL1       -0.3550
     19  C         27.1210  -24.4910  -15.0350 C.3     1  UNL1        0.2100
     20  C         24.7670  -21.8370  -15.1460 C.2     1  UNL1        0.2560
     21  O         24.1410  -22.5340  -15.9410 O.2     1  UNL1       -0.2670
     22  N         25.3500  -20.6300  -15.4710 N.am    1  UNL1       -0.3480
     23  C         25.2110  -20.0690  -16.8020 C.3     1  UNL1        0.1260
     24  C         26.1520  -19.7730  -14.6120 C.3     1  UNL1        0.1260
     25  C         26.2540  -18.9620  -16.8530 C.3     1  UNL1        0.0210
     26  C         26.3120  -18.4850  -15.4070 C.3     1  UNL1        0.0210
     27  S         16.2090  -23.2740   -8.8410 S.O2    1  UNL1        0.2450
     28  O         15.6460  -22.0280   -8.3750 O.2     1  UNL1       -0.2060
     29  O         15.4870  -24.1460   -9.7450 O.2     1  UNL1       -0.2060
     30  N         16.7000  -24.2550   -7.5370 N.pl3   1  UNL1       -0.1810
     31  H         16.1720  -25.1270   -7.6120 H       1  UNL1        0.1460
     32  C         16.5310  -23.6520   -6.2400 C.2     1  UNL1        0.0340
     33  C         15.4070  -24.0040   -5.4840 C.2     1  UNL1        0.0250
     34  C         15.1800  -23.3940   -4.2560 C.2     1  UNL1        0.0030
     35  C         16.0670  -22.4250   -3.7850 C.2     1  UNL1        0.0120
     36  C         17.1970  -22.0540   -4.5320 C.2     1  UNL1       -0.0240
     37  C         18.0830  -21.0740   -4.0520 C.2     1  UNL1        0.0120
     38  C         17.4460  -22.6750   -5.7800 C.2     1  UNL1       -0.0040
     39  C         19.2120  -20.7100   -4.7840 C.2     1  UNL1        0.0010
     40  C         19.4760  -21.3230   -6.0030 C.2     1  UNL1        0.0010
     41  C         18.6040  -22.2960   -6.4940 C.2     1  UNL1        0.0140
@<TRIPOS>BOND
     1    25    23    1
     2    25    26    1
     3    23    22    1
     4    21    20    2
     5    22    20   am
     6    22    24    1
     7    26    24    1
     8    20    16    1
     9    19    18    1
    10    18    15    1
    11    16    15    2
    12    16    17    1
    13    15    14    1
    14    17    12    2
    15    14    13    2
    16     8     7    1
    17    12    13    1
    18    12     9    1
    19     7     1    1
    20     7     9    1
    21     2     1    2
    22     2     3    1
    23     1     6    1
    24     3     4    2
    25     9    10    2
    26     9    11    2
    27     6     5    2
    28    29    27    2
    29     4     5    1
    30     4    27    1
    31    27    28    2
    32    27    30    1
    33    31    30    1
    34    30    32    1
    35    41    40    2
    36    41    38    1
    37    32    38    2
    38    32    33    1
    39    40    39    1
    40    38    36    1
    41    33    34    2
    42    39    37    2
    43    36    37    1
    44    36    35    2
    45    34    35    1
