@<TRIPOS>MOLECULE
22161_out_ligand_01.pdbqt
 34 36 0 0 0
SMALL
GASTEIGER

@<TRIPOS>ATOM
      1  C         18.2910  -23.2880   -8.9630 C.2     1  UNL1        0.0800
      2  C         19.2640  -24.0900   -8.3640 C.2     1  UNL1        0.0270
      3  C         20.5900  -24.0000   -8.7970 C.2     1  UNL1        0.0310
      4  C         20.9530  -23.1070   -9.8150 C.2     1  UNL1        0.0340
      5  C         19.9730  -22.2890  -10.3830 C.2     1  UNL1        0.0310
      6  C         18.6430  -22.3720   -9.9560 C.2     1  UNL1        0.0270
      7  N         22.3060  -23.0870  -10.1950 N.am    1  UNL1       -0.3250
      8  C         23.2380  -22.0860   -9.9910 C.2     1  UNL1        0.2460
      9  O         23.0510  -21.0130   -9.4230 O.2     1  UNL1       -0.2710
     10  H         22.6390  -23.8760  -10.7450 H       1  UNL1        0.1690
     11  C         24.6230  -22.4480  -10.5430 C.3     1  UNL1        0.2780
     12  O         24.8190  -22.1010  -11.9090 O.2     1  UNL1       -0.3420
     13  C         25.5830  -21.0050  -12.2190 C.2     1  UNL1        0.0760
     14  C         26.3810  -20.3430  -11.2730 C.2     1  UNL1        0.0370
     15  C         27.1200  -19.2160  -11.6260 C.2     1  UNL1        0.0030
     16  C         27.0650  -18.7380  -12.9250 C.2     1  UNL1        0.0010
     17  C         26.2650  -19.3830  -13.8720 C.2     1  UNL1        0.0110
     18  C         25.5010  -20.5270  -13.5520 C.2     1  UNL1       -0.0170
     19  C         24.6260  -21.2140  -14.6320 C.3     1  UNL1       -0.0210
     20  C         24.8390  -22.7480  -14.7240 C.3     1  UNL1        0.0190
     21  C         24.9590  -20.6520  -16.0330 C.3     1  UNL1        0.0190
     22  C         23.1250  -21.0110  -14.3250 C.3     1  UNL1        0.0190
     23  S         16.6010  -23.3940   -8.4190 S.O2    1  UNL1        0.2630
     24  O         16.4750  -24.5980   -7.6230 O.2     1  UNL1       -0.2000
     25  O         15.7470  -23.1670   -9.5650 O.2     1  UNL1       -0.2000
     26  N         16.4590  -22.1070   -7.3370 N.pl3   1  UNL1       -0.2800
     27  H         15.8680  -21.3630   -7.7010 H       1  UNL1        0.1790
     28  C         16.4590  -22.3480   -5.9320 C.2     1  UNL1        0.0480
     29  C         15.3000  -22.8330   -5.3180 C.2     1  UNL1        0.0300
     30  C         15.2680  -23.0520   -3.9410 C.2     1  UNL1        0.0020
     31  C         16.3970  -22.7920   -3.1730 C.2     1  UNL1        0.0010
     32  C         17.5610  -22.3200   -3.7800 C.2     1  UNL1        0.0090
     33  C         17.6090  -22.0940   -5.1660 C.2     1  UNL1       -0.0350
     34  C         18.8870  -21.5950   -5.7800 C.3     1  UNL1        0.0500
@<TRIPOS>BOND
     1    21    19    1
     2    20    19    1
     3    19    22    1
     4    19    18    1
     5    17    18    1
     6    17    16    2
     7    18    13    2
     8    16    15    1
     9    13    12    1
    10    13    14    1
    11    12    11    1
    12    15    14    2
    13    10     7    1
    14    11     8    1
    15     5     6    1
    16     5     4    2
    17     7     8   am
    18     7     4    1
    19     8     9    2
    20     6     1    2
    21     4     3    1
    22    25    23    2
    23     1    23    1
    24     1     2    1
    25     3     2    2
    26    23    24    2
    27    23    26    1
    28    27    26    1
    29    26    28    1
    30    28    29    2
    31    28    33    1
    32    34    33    1
    33    29    30    1
    34    33    32    2
    35    30    31    2
    36    32    31    1
