@<TRIPOS>MOLECULE
2218_out_ligand_01.pdbqt
 29 31 0 0 0
SMALL
GASTEIGER

@<TRIPOS>ATOM
      1  N         20.3770  -22.8280  -10.1170 N.am    1  UNL1       -0.3270
      2  C         20.3860  -23.7840   -9.1200 C.2     1  UNL1        0.2260
      3  O         21.3440  -24.5020   -8.8380 O.2     1  UNL1       -0.2730
      4  H         19.5470  -22.2530  -10.1950 H       1  UNL1        0.1690
      5  C         21.4110  -22.5090  -11.0210 C.2     1  UNL1        0.0340
      6  C         22.7300  -22.9570  -10.8950 C.2     1  UNL1        0.0310
      7  C         23.6950  -22.6010  -11.8450 C.2     1  UNL1        0.0270
      8  C         23.3390  -21.7850  -12.9210 C.2     1  UNL1        0.0790
      9  C         22.0260  -21.3390  -13.0670 C.2     1  UNL1        0.0270
     10  C         21.0670  -21.7040  -12.1170 C.2     1  UNL1        0.0310
     11  S         24.5710  -21.3380  -14.1150 S.O2    1  UNL1        0.2590
     12  O         24.5710  -19.8970  -14.2260 O.2     1  UNL1       -0.2010
     13  O         25.7800  -22.0840  -13.8380 O.2     1  UNL1       -0.2010
     14  N         23.9100  -21.9250  -15.5350 N.3     1  UNL1       -0.3110
     15  H         22.9680  -21.6000  -15.7420 H       1  UNL1        0.1720
     16  C         24.7620  -22.4610  -16.5960 C.3     1  UNL1        0.0850
     17  C         25.2040  -21.3230  -17.5060 C.3     1  UNL1        0.0320
     18  C         23.9610  -23.5010  -17.3730 C.3     1  UNL1        0.0320
     19  C         19.1010  -23.9280   -8.3060 C.3     1  UNL1        0.1420
     20  C         18.9000  -22.9640   -7.1500 C.2     1  UNL1       -0.0380
     21  C         19.8890  -21.9860   -6.9330 C.2     1  UNL1        0.0080
     22  C         19.7850  -21.0940   -5.8720 C.2     1  UNL1        0.0010
     23  C         18.6950  -21.1660   -5.0090 C.2     1  UNL1        0.0120
     24  C         17.6950  -22.1330   -5.1880 C.2     1  UNL1       -0.0250
     25  C         16.6110  -22.1960   -4.2970 C.2     1  UNL1        0.0120
     26  C         17.7840  -23.0510   -6.2670 C.2     1  UNL1       -0.0190
     27  C         15.6110  -23.1560   -4.4500 C.2     1  UNL1        0.0010
     28  C         15.6840  -24.0670   -5.4950 C.2     1  UNL1        0.0010
     29  C         16.7550  -24.0160   -6.3910 C.2     1  UNL1        0.0130
@<TRIPOS>BOND
     1    17    16    1
     2    18    16    1
     3    16    14    1
     4    15    14    1
     5    14    11    1
     6    12    11    2
     7    11    13    2
     8    11     8    1
     9     9     8    2
    10     9    10    1
    11     8     7    1
    12    10     5    2
    13     7     6    2
    14     5     6    1
    15     5     1    1
    16     4     1    1
    17     1     2   am
    18     2     3    2
    19     2    19    1
    20    19    20    1
    21    20    21    2
    22    20    26    1
    23    21    22    1
    24    29    26    1
    25    29    28    2
    26    26    24    2
    27    22    23    2
    28    28    27    1
    29    24    23    1
    30    24    25    1
    31    27    25    2
