@<TRIPOS>MOLECULE
22274_out_ligand_01.pdbqt
 33 36 0 0 0
SMALL
GASTEIGER

@<TRIPOS>ATOM
      1  C         20.0750  -23.1470  -10.1260 C.2     1  UNL1        0.0350
      2  C         18.7500  -22.8370  -10.4670 C.2     1  UNL1        0.0310
      3  C         17.6940  -23.1770   -9.6160 C.2     1  UNL1        0.0270
      4  C         17.9640  -23.8430   -8.4190 C.2     1  UNL1        0.0800
      5  C         19.2790  -24.1340   -8.0550 C.2     1  UNL1        0.0270
      6  C         20.3300  -23.7940   -8.9140 C.2     1  UNL1        0.0310
      7  N         21.0720  -22.7720  -11.0440 N.am    1  UNL1       -0.3210
      8  C         21.1860  -21.5920  -11.7590 C.2     1  UNL1        0.2800
      9  O         20.4120  -20.6420  -11.6990 O.2     1  UNL1       -0.2650
     10  H         21.8150  -23.4410  -11.2220 H       1  UNL1        0.1690
     11  C         22.3570  -21.5780  -12.6170 C.2     1  UNL1        0.1440
     12  C         22.5900  -20.9630  -13.8310 C.2     1  UNL1        0.0570
     13  C         23.9150  -21.2920  -14.2140 C.2     1  UNL1        0.0030
     14  C         24.7410  -20.9950  -15.3110 C.2     1  UNL1        0.0140
     15  C         24.4200  -22.0980  -13.1990 C.2     1  UNL1        0.1190
     16  C         26.0370  -21.5240  -15.3330 C.2     1  UNL1        0.0040
     17  C         26.5100  -22.3330  -14.2910 C.2     1  UNL1        0.0400
     18  C         25.7080  -22.6470  -13.1840 C.2     1  UNL1        0.1020
     19  O         23.4740  -22.2710  -12.2300 O.2     1  UNL1       -0.3010
     20  O         26.0690  -23.4210  -12.1180 O.2     1  UNL1       -0.3530
     21  C         26.7700  -22.7770  -11.0640 C.3     1  UNL1        0.2100
     22  S         16.6270  -24.2630   -7.3220 S.O2    1  UNL1        0.2630
     23  O         15.5250  -24.7500   -8.1240 O.2     1  UNL1       -0.2000
     24  O         17.1840  -25.0680   -6.2530 O.2     1  UNL1       -0.2000
     25  N         16.2180  -22.7860   -6.6170 N.pl3   1  UNL1       -0.2800
     26  H         15.2150  -22.6150   -6.6290 H       1  UNL1        0.1790
     27  C         16.9810  -22.2760   -5.5270 C.2     1  UNL1        0.0480
     28  C         18.1520  -21.5560   -5.7840 C.2     1  UNL1        0.0300
     29  C         18.9300  -21.0730   -4.7330 C.2     1  UNL1        0.0020
     30  C         18.5370  -21.3030   -3.4170 C.2     1  UNL1        0.0010
     31  C         17.3640  -22.0100   -3.1540 C.2     1  UNL1        0.0090
     32  C         16.5700  -22.5040   -4.2020 C.2     1  UNL1       -0.0350
     33  C         15.3100  -23.2540   -3.8730 C.3     1  UNL1        0.0500
@<TRIPOS>BOND
     1    16    14    1
     2    16    17    2
     3    14    13    2
     4    17    18    1
     5    13    12    1
     6    13    15    1
     7    12    11    2
     8    15    18    2
     9    15    19    1
    10    18    20    1
    11    11    19    1
    12    11     8    1
    13    20    21    1
    14     8     9    2
    15     8     7   am
    16    10     7    1
    17     7     1    1
    18     2     1    2
    19     2     3    1
    20     1     6    1
    21     3     4    2
    22     6     5    2
    23     4     5    1
    24     4    22    1
    25    23    22    2
    26    22    25    1
    27    22    24    2
    28    26    25    1
    29    25    27    1
    30    28    27    2
    31    28    29    1
    32    27    32    1
    33    29    30    2
    34    32    33    1
    35    32    31    2
    36    30    31    1
