@<TRIPOS>MOLECULE
22276_out_ligand_01.pdbqt
 36 40 0 0 0
SMALL
GASTEIGER

@<TRIPOS>ATOM
      1  C         20.2450  -22.3750  -11.0590 C.2     1  UNL1        0.0350
      2  C         19.0950  -21.6290  -11.3310 C.2     1  UNL1        0.0310
      3  C         17.8990  -21.8880  -10.6520 C.2     1  UNL1        0.0270
      4  C         17.8560  -22.8930   -9.6860 C.2     1  UNL1        0.0800
      5  C         18.9900  -23.6590   -9.4110 C.2     1  UNL1        0.0270
      6  C         20.1790  -23.3950  -10.0970 C.2     1  UNL1        0.0310
      7  N         21.4880  -22.1840  -11.7000 N.am    1  UNL1       -0.3210
      8  C         22.6840  -21.7600  -11.1310 C.2     1  UNL1        0.2800
      9  O         22.8310  -21.5320   -9.9340 O.2     1  UNL1       -0.2650
     10  H         21.5110  -22.4190  -12.6800 H       1  UNL1        0.1690
     11  C         23.7760  -21.6230  -12.0890 C.2     1  UNL1        0.1440
     12  C         25.0860  -21.1820  -11.9900 C.2     1  UNL1        0.0570
     13  C         25.6640  -21.2870  -13.2850 C.2     1  UNL1        0.0030
     14  C         26.9240  -21.0100  -13.8390 C.2     1  UNL1        0.0140
     15  C         24.6680  -21.7930  -14.1090 C.2     1  UNL1        0.1190
     16  C         27.1210  -21.2550  -15.2030 C.2     1  UNL1        0.0040
     17  C         26.0920  -21.7640  -16.0040 C.2     1  UNL1        0.0400
     18  C         24.8250  -22.0520  -15.4770 C.2     1  UNL1        0.1020
     19  O         23.5310  -21.9970  -13.3840 O.2     1  UNL1       -0.3010
     20  O         23.7570  -22.5480  -16.1690 O.2     1  UNL1       -0.3530
     21  C         24.0370  -23.2810  -17.3530 C.3     1  UNL1        0.2100
     22  S         16.3360  -23.2200   -8.8310 S.O2    1  UNL1        0.2630
     23  O         15.8630  -21.9590   -8.3010 O.2     1  UNL1       -0.2000
     24  O         15.4930  -24.0340   -9.6800 O.2     1  UNL1       -0.2000
     25  N         16.8490  -24.1220   -7.4990 N.pl3   1  UNL1       -0.2800
     26  H         17.7290  -24.5980   -7.6820 H       1  UNL1        0.1790
     27  C         16.6560  -23.5730   -6.1940 C.2     1  UNL1        0.0530
     28  C         15.5510  -24.0230   -5.4650 C.2     1  UNL1        0.0310
     29  C         15.3040  -23.5220   -4.1920 C.2     1  UNL1        0.0030
     30  C         16.1600  -22.5680   -3.6450 C.2     1  UNL1        0.0120
     31  C         17.2720  -22.0980   -4.3610 C.2     1  UNL1       -0.0240
     32  C         18.1250  -21.1360   -3.7950 C.2     1  UNL1        0.0120
     33  C         17.5340  -22.5950   -5.6620 C.2     1  UNL1        0.0010
     34  C         19.2300  -20.6560   -4.4960 C.2     1  UNL1        0.0010
     35  C         19.4970  -21.1280   -5.7750 C.2     1  UNL1        0.0010
     36  C         18.6600  -22.0860   -6.3520 C.2     1  UNL1        0.0140
@<TRIPOS>BOND
     1    21    20    1
     2    20    18    1
     3    17    18    2
     4    17    16    1
     5    18    15    1
     6    16    14    2
     7    15    19    1
     8    15    13    2
     9    14    13    1
    10    19    11    1
    11    13    12    1
    12    10     7    1
    13    11    12    2
    14    11     8    1
    15     7     8   am
    16     7     1    1
    17     2     1    2
    18     2     3    1
    19     8     9    2
    20     1     6    1
    21     3     4    2
    22     6     5    2
    23     4     5    1
    24     4    22    1
    25    24    22    2
    26    22    23    2
    27    22    25    1
    28    26    25    1
    29    25    27    1
    30    36    35    2
    31    36    33    1
    32    27    33    2
    33    27    28    1
    34    35    34    1
    35    33    31    1
    36    28    29    2
    37    34    32    2
    38    31    32    1
    39    31    30    2
    40    29    30    1
