@<TRIPOS>MOLECULE
222_out_ligand_01.pdbqt
 33 35 0 0 0
SMALL
GASTEIGER

@<TRIPOS>ATOM
      1  C         18.0640  -23.7300   -8.3680 C.2     1  UNL1        0.0740
      2  C         19.3830  -24.1240   -8.1210 C.2     1  UNL1        0.0260
      3  C         20.3970  -23.6960   -8.9800 C.2     1  UNL1        0.0180
      4  C         20.0960  -22.8820  -10.0830 C.2     1  UNL1        0.0320
      5  C         18.7640  -22.5290  -10.3450 C.2     1  UNL1        0.0180
      6  C         17.7470  -22.9530   -9.4860 C.2     1  UNL1        0.0260
      7  C         21.2160  -22.4390  -10.9640 C.2     1  UNL1        0.2560
      8  O         20.9370  -21.8500  -12.0010 O.2     1  UNL1       -0.2670
      9  N         22.4800  -22.7950  -10.5250 N.am    1  UNL1       -0.3230
     10  H         22.5310  -23.4040   -9.7200 H       1  UNL1        0.1690
     11  C         23.7130  -22.4810  -11.1330 C.2     1  UNL1        0.0350
     12  C         24.6340  -21.5730  -10.6100 C.2     1  UNL1        0.0290
     13  C         25.8400  -21.3230  -11.2710 C.2     1  UNL1        0.0030
     14  C         26.1370  -21.9780  -12.4630 C.2     1  UNL1        0.0160
     15  C         25.2280  -22.8910  -13.0110 C.2     1  UNL1        0.0500
     16  C         24.0220  -23.1410  -12.3310 C.2     1  UNL1        0.0450
     17  C         25.5460  -23.6240  -14.2890 C.3     1  UNL1        0.4170
     18  F         24.8530  -23.1330  -15.3520 F       1  UNL1       -0.1660
     19  F         25.2610  -24.9540  -14.2340 F       1  UNL1       -0.1660
     20  F         26.8630  -23.5410  -14.6320 F       1  UNL1       -0.1660
     21  S         16.7710  -24.2670   -7.2650 S.O2    1  UNL1        0.2450
     22  O         15.7060  -24.8250   -8.0720 O.2     1  UNL1       -0.2060
     23  O         17.3980  -25.0420   -6.2140 O.2     1  UNL1       -0.2060
     24  N         16.2390  -22.8280   -6.5550 N.pl3   1  UNL1       -0.1790
     25  H         15.2650  -22.9190   -6.2580 H       1  UNL1        0.1460
     26  C         17.0790  -22.2130   -5.5720 C.2     1  UNL1        0.0560
     27  C         18.2290  -21.5260   -5.9590 C.2     1  UNL1        0.0270
     28  C         19.0590  -20.9660   -4.9900 C.2     1  UNL1        0.0020
     29  C         18.7380  -21.0950   -3.6390 C.2     1  UNL1        0.0030
     30  C         17.5850  -21.7850   -3.2480 C.2     1  UNL1        0.0380
     31  C         16.7470  -22.3500   -4.2110 C.2     1  UNL1        0.0900
     32  O         15.5960  -23.0540   -3.9520 O.2     1  UNL1       -0.3540
     33  C         15.7200  -24.2240   -3.1530 C.3     1  UNL1        0.2100
@<TRIPOS>BOND
     1    18    17    1
     2    20    17    1
     3    17    19    1
     4    17    15    1
     5    15    14    2
     6    15    16    1
     7    14    13    1
     8    16    11    2
     9     8     7    2
    10    13    12    2
    11    11    12    1
    12    11     9    1
    13     7     9   am
    14     7     4    1
    15     9    10    1
    16     5     4    2
    17     5     6    1
    18     4     3    1
    19     6     1    2
    20     3     2    2
    21     1     2    1
    22     1    21    1
    23    22    21    2
    24    21    24    1
    25    21    23    2
    26    24    25    1
    27    24    26    1
    28    27    26    2
    29    27    28    1
    30    26    31    1
    31    28    29    2
    32    31    32    1
    33    31    30    2
    34    32    33    1
    35    29    30    1
