@<TRIPOS>MOLECULE
2231_out_ligand_01.pdbqt
 30 34 0 0 0
SMALL
GASTEIGER

@<TRIPOS>ATOM
      1  O         18.2310  -20.9820  -12.1720 O.2     1  UNL1       -0.2670
      2  C         18.3410  -21.6850  -11.1730 C.ar    1  UNL1        0.2610
      3  N         17.2680  -21.9980  -10.3760 N.ar    1  UNL1       -0.3020
      4  C         17.3770  -22.7610   -9.2460 C.ar    1  UNL1        0.1700
      5  N         18.4660  -23.2990   -8.8030 N.ar    1  UNL1       -0.2160
      6  C         19.5590  -23.0270   -9.5650 C.ar    1  UNL1        0.1170
      7  S         21.1040  -23.6290   -9.1580 S.2     1  UNL1       -0.0720
      8  C         21.8140  -22.8830  -10.5120 C.ar    1  UNL1        0.0200
      9  C         20.9040  -22.1660  -11.2650 C.ar    1  UNL1       -0.0230
     10  C         19.5910  -22.2580  -10.7140 C.ar    1  UNL1        0.0750
     11  C         21.3410  -21.4450  -12.5050 C.3     1  UNL1        0.0710
     12  C         22.8840  -21.3280  -12.5720 C.3     1  UNL1        0.2780
     13  N         23.5460  -22.5970  -12.2150 N.3     1  UNL1        0.0970
     14  C         23.2850  -22.9740  -10.8110 C.3     1  UNL1        0.3190
     15  H         16.3710  -21.6160  -10.6300 H       1  UNL1        0.1710
     16  S         15.8530  -22.9560   -8.4380 S.3     1  UNL1       -0.0870
     17  C         16.3370  -24.1960   -7.2000 C.3     1  UNL1        0.1210
     18  C         16.3010  -23.6490   -5.7950 C.2     1  UNL1       -0.0490
     19  C         17.3910  -23.8340   -4.9310 C.2     1  UNL1        0.0080
     20  C         17.3690  -23.3050   -3.6380 C.2     1  UNL1        0.0010
     21  C         16.2590  -22.5880   -3.1970 C.2     1  UNL1        0.0000
     22  C         15.1710  -22.3970   -4.0450 C.2     1  UNL1        0.0010
     23  C         15.1900  -22.9230   -5.3380 C.2     1  UNL1        0.0080
     24  C         24.9690  -22.6500  -12.5720 C.3     1  UNL1        0.3110
     25  C         25.7210  -21.3370  -12.6030 C.2     1  UNL1       -0.0300
     26  C         26.0970  -20.7010  -11.4110 C.2     1  UNL1        0.0090
     27  C         26.7910  -19.4890  -11.4380 C.2     1  UNL1        0.0010
     28  C         27.1210  -18.9020  -12.6580 C.2     1  UNL1        0.0000
     29  C         26.7600  -19.5260  -13.8500 C.2     1  UNL1        0.0010
     30  C         26.0660  -20.7360  -13.8240 C.2     1  UNL1        0.0090
@<TRIPOS>BOND
     1    29    30    1
     2    29    28    2
     3    30    25    2
     4    28    27    1
     5    25    24    1
     6    25    26    1
     7    24    13    1
     8    12    11    1
     9    12    13    1
    10    11     9    1
    11    13    14    1
    12     1     2    2
    13    27    26    2
    14     9    10   ar
    15     9     8   ar
    16     2    10   ar
    17     2     3   ar
    18    14     8    1
    19    10     6   ar
    20    15     3    1
    21     8     7   ar
    22     3     4   ar
    23     6     7   ar
    24     6     5   ar
    25     4     5   ar
    26     4    16    1
    27    16    17    1
    28    17    18    1
    29    18    23    2
    30    18    19    1
    31    23    22    1
    32    19    20    2
    33    22    21    2
    34    20    21    1
