@<TRIPOS>MOLECULE
22353_out_ligand_01.pdbqt
 40 44 0 0 0
SMALL
GASTEIGER

@<TRIPOS>ATOM
      1  N         22.4630  -23.7370  -10.3800 N.am    1  UNL1       -0.3270
      2  C         21.8830  -23.5760   -9.1340 C.2     1  UNL1        0.2220
      3  O         22.0930  -22.6590   -8.3480 O.2     1  UNL1       -0.2730
      4  H         22.1940  -24.5640  -10.8990 H       1  UNL1        0.1690
      5  C         23.3660  -22.8690  -11.0290 C.2     1  UNL1        0.0340
      6  C         22.9380  -22.2850  -12.2290 C.2     1  UNL1        0.0310
      7  C         23.7710  -21.4160  -12.9390 C.2     1  UNL1        0.0270
      8  C         25.0490  -21.1400  -12.4510 C.2     1  UNL1        0.0800
      9  C         25.4800  -21.6930  -11.2440 C.2     1  UNL1        0.0270
     10  C         24.6390  -22.5610  -10.5410 C.2     1  UNL1        0.0310
     11  S         26.1220  -20.0440  -13.3500 S.O2    1  UNL1        0.2630
     12  O         25.2950  -19.1320  -14.1110 O.2     1  UNL1       -0.2000
     13  O         27.1200  -19.5520  -12.4230 O.2     1  UNL1       -0.2000
     14  N         26.9360  -21.0810  -14.4050 N.pl3   1  UNL1       -0.2800
     15  H         27.9430  -21.0840  -14.2600 H       1  UNL1        0.1790
     16  C         26.2950  -22.2670  -14.8630 C.2     1  UNL1        0.0500
     17  C         26.5740  -23.4640  -14.1900 C.2     1  UNL1        0.0310
     18  C         26.0130  -24.6640  -14.6110 C.2     1  UNL1        0.0040
     19  C         25.1670  -24.6770  -15.7150 C.2     1  UNL1        0.0240
     20  C         24.8850  -23.4870  -16.3930 C.2     1  UNL1        0.0420
     21  C         25.4380  -22.2580  -15.9800 C.2     1  UNL1       -0.0130
     22 CL         23.8370  -23.5940  -17.7670 Cl      1  UNL1       -0.0840
     23  C         25.1240  -21.0020  -16.7480 C.3     1  UNL1        0.0520
     24  C         20.9390  -24.7180   -8.7960 C.3     1  UNL1        0.1050
     25  C         19.6490  -24.2500   -8.1170 C.3     1  UNL1        0.0300
     26  C         18.9190  -23.1330   -8.8680 C.3     1  UNL1        0.1420
     27  N         17.8540  -22.5550   -8.0260 N.pl3   1  UNL1       -0.2710
     28  C         18.1340  -22.1460   -6.6710 C.2     1  UNL1        0.0570
     29  C         19.2600  -21.4630   -6.2360 C.2     1  UNL1        0.0310
     30  C         17.0730  -22.3260   -5.7990 C.2     1  UNL1        0.0250
     31  C         19.3150  -21.0290   -4.9010 C.2     1  UNL1        0.0030
     32  C         18.2390  -21.2490   -4.0210 C.2     1  UNL1        0.0120
     33  C         17.0780  -21.9030   -4.4690 C.2     1  UNL1       -0.0220
     34  C         15.9160  -22.1660   -3.7110 C.2     1  UNL1        0.0120
     35  C         14.8100  -22.8220   -4.2900 C.2     1  UNL1        0.0020
     36  C         14.8370  -23.2320   -5.6280 C.2     1  UNL1        0.0260
     37  C         15.9870  -22.9670   -6.3470 C.2     1  UNL1        0.0930
     38  S         16.3340  -23.3820   -8.0060 S.O2    1  UNL1        0.2660
     39  O         16.5530  -24.8090   -8.0730 O.2     1  UNL1       -0.2000
     40  O         15.4190  -22.6760   -8.8730 O.2     1  UNL1       -0.2000
@<TRIPOS>BOND
     1    22    20    1
     2    23    21    1
     3    20    21    1
     4    20    19    2
     5    21    16    2
     6    19    18    1
     7    16    14    1
     8    16    17    1
     9    18    17    2
    10    14    15    1
    11    14    11    1
    12    12    11    2
    13    11     8    1
    14    11    13    2
    15     7     8    2
    16     7     6    1
    17     8     9    1
    18     6     5    2
    19     9    10    2
    20     5    10    1
    21     5     1    1
    22     4     1    1
    23     1     2   am
    24     2    24    1
    25     2     3    2
    26    40    38    2
    27    26    25    1
    28    26    27    1
    29    24    25    1
    30    39    38    2
    31    27    38    1
    32    27    28    1
    33    38    37    1
    34    28    29    2
    35    28    30    1
    36    37    30    2
    37    37    36    1
    38    29    31    1
    39    30    33    1
    40    36    35    2
    41    31    32    2
    42    33    32    1
    43    33    34    2
    44    35    34    1
