@<TRIPOS>MOLECULE
22354_out_ligand_01.pdbqt
 40 44 0 0 0
SMALL
GASTEIGER

@<TRIPOS>ATOM
      1  O         22.1870  -22.5980   -8.4170 O.2     1  UNL1       -0.2730
      2  C         21.9150  -23.5130   -9.1890 C.2     1  UNL1        0.2220
      3  N         22.3900  -23.6680  -10.4790 N.am    1  UNL1       -0.3270
      4  H         22.0630  -24.4840  -10.9840 H       1  UNL1        0.1690
      5  C         23.2330  -22.7970  -11.1980 C.2     1  UNL1        0.0340
      6  C         22.8610  -22.1500  -12.3800 C.2     1  UNL1        0.0310
      7  C         23.7590  -21.3040  -13.0410 C.2     1  UNL1        0.0270
      8  C         25.0310  -21.0940  -12.5070 C.2     1  UNL1        0.0800
      9  C         25.4250  -21.7470  -11.3390 C.2     1  UNL1        0.0270
     10  C         24.5220  -22.5910  -10.6860 C.2     1  UNL1        0.0310
     11  S         26.1710  -20.0200  -13.3510 S.O2    1  UNL1        0.2630
     12  O         25.3990  -19.1040  -14.1650 O.2     1  UNL1       -0.2000
     13  O         27.1210  -19.5380  -12.3720 O.2     1  UNL1       -0.2000
     14  N         27.0220  -21.0790  -14.3620 N.pl3   1  UNL1       -0.2790
     15  H         27.9890  -21.1820  -14.0440 H       1  UNL1        0.1790
     16  C         26.3780  -22.2850  -14.7990 C.2     1  UNL1        0.0660
     17  C         26.6280  -23.4820  -14.1210 C.2     1  UNL1        0.0320
     18  C         26.0380  -24.6690  -14.5500 C.2     1  UNL1        0.0040
     19  C         25.1930  -24.6660  -15.6600 C.2     1  UNL1        0.0260
     20  C         24.9290  -23.4720  -16.3400 C.2     1  UNL1        0.0580
     21 CL         23.8690  -23.5510  -17.7020 Cl      1  UNL1       -0.0820
     22  C         25.5160  -22.2760  -15.9100 C.2     1  UNL1        0.0830
     23 CL         25.2000  -20.7740  -16.7220 Cl      1  UNL1       -0.0800
     24  C         20.9960  -24.6520   -8.7770 C.3     1  UNL1        0.1040
     25  C         19.7420  -24.1710   -8.0420 C.3     1  UNL1        0.0250
     26  C         18.8300  -23.2730   -8.8840 C.3     1  UNL1        0.1140
     27  N         17.7830  -22.6580   -8.0440 N.pl3   1  UNL1       -0.1710
     28  C         18.0990  -22.2160   -6.7060 C.2     1  UNL1        0.0380
     29  C         19.2310  -21.5160   -6.3210 C.2     1  UNL1        0.0250
     30  C         17.0690  -22.3900   -5.7970 C.2     1  UNL1        0.0190
     31  C         19.3290  -21.0590   -4.9970 C.2     1  UNL1        0.0030
     32  C         18.2860  -21.2730   -4.0770 C.2     1  UNL1        0.0120
     33  C         17.1160  -21.9450   -4.4740 C.2     1  UNL1       -0.0230
     34  C         15.9850  -22.2060   -3.6720 C.2     1  UNL1        0.0120
     35  C         14.8650  -22.8810   -4.2020 C.2     1  UNL1        0.0020
     36  C         14.8500  -23.3110   -5.5340 C.2     1  UNL1        0.0260
     37  C         15.9710  -23.0480   -6.2970 C.2     1  UNL1        0.0870
     38  S         16.2630  -23.4820   -7.9610 S.O2    1  UNL1        0.2490
     39  O         16.4760  -24.9110   -8.0200 O.2     1  UNL1       -0.2050
     40  O         15.3190  -22.7820   -8.8030 O.2     1  UNL1       -0.2050
@<TRIPOS>BOND
     1    21    20    1
     2    23    22    1
     3    20    22    1
     4    20    19    2
     5    22    16    2
     6    19    18    1
     7    16    14    1
     8    16    17    1
     9    18    17    2
    10    14    15    1
    11    14    11    1
    12    12    11    2
    13    11     8    1
    14    11    13    2
    15     7     8    2
    16     7     6    1
    17     8     9    1
    18     6     5    2
    19     9    10    2
    20     5    10    1
    21     5     3    1
    22     4     3    1
    23     3     2   am
    24     2    24    1
    25     2     1    2
    26    26    27    1
    27    26    25    1
    28    40    38    2
    29    24    25    1
    30    27    38    1
    31    27    28    1
    32    39    38    2
    33    38    37    1
    34    28    29    2
    35    28    30    1
    36    29    31    1
    37    37    30    2
    38    37    36    1
    39    30    33    1
    40    36    35    2
    41    31    32    2
    42    33    32    1
    43    33    34    2
    44    35    34    1
