@<TRIPOS>MOLECULE
22351_out_ligand_01.pdbqt
 40 44 0 0 0
SMALL
GASTEIGER

@<TRIPOS>ATOM
      1  N         21.5580  -22.7360  -10.5000 N.am    1  UNL1       -0.3270
      2  C         21.5230  -23.7150   -9.5230 C.2     1  UNL1        0.2220
      3  O         22.4900  -24.2260   -8.9670 O.2     1  UNL1       -0.2730
      4  H         20.6630  -22.4460  -10.8790 H       1  UNL1        0.1690
      5  C         22.6950  -22.1390  -11.0790 C.2     1  UNL1        0.0340
      6  C         23.8630  -21.8340  -10.3750 C.2     1  UNL1        0.0310
      7  C         24.9510  -21.2410  -11.0240 C.2     1  UNL1        0.0270
      8  C         24.8660  -20.9360  -12.3830 C.2     1  UNL1        0.0800
      9  C         23.7140  -21.2530  -13.1060 C.2     1  UNL1        0.0270
     10  C         22.6320  -21.8450  -12.4500 C.2     1  UNL1        0.0310
     11  S         26.2570  -20.2040  -13.2170 S.O2    1  UNL1        0.2630
     12  O         27.1200  -19.6390  -12.2000 O.2     1  UNL1       -0.2000
     13  O         25.7510  -19.3870  -14.2990 O.2     1  UNL1       -0.2000
     14  N         27.0890  -21.5330  -13.8380 N.pl3   1  UNL1       -0.2800
     15  H         27.9320  -21.7470  -13.3110 H       1  UNL1        0.1790
     16  C         26.3770  -22.6070  -14.4460 C.2     1  UNL1        0.0490
     17  C         26.2700  -23.8460  -13.7940 C.2     1  UNL1       -0.0350
     18  C         25.5560  -24.8790  -14.4210 C.2     1  UNL1        0.0090
     19  C         26.9130  -24.1090  -12.4610 C.3     1  UNL1        0.0500
     20  C         24.9530  -24.6800  -15.6650 C.2     1  UNL1        0.0070
     21  C         25.0510  -23.4450  -16.3100 C.2     1  UNL1       -0.0600
     22  C         24.4490  -23.2430  -17.6680 C.3     1  UNL1        0.0480
     23  C         25.7810  -22.4180  -15.6980 C.2     1  UNL1        0.0370
     24  C         20.1000  -24.1090   -9.1550 C.3     1  UNL1        0.1040
     25  C         19.0510  -23.3960  -10.0110 C.3     1  UNL1        0.0250
     26  C         18.1660  -22.4260   -9.2220 C.3     1  UNL1        0.1140
     27  N         17.8000  -23.0000   -7.9120 N.pl3   1  UNL1       -0.1710
     28  C         18.0830  -22.2750   -6.6970 C.2     1  UNL1        0.0380
     29  C         19.2530  -21.5900   -6.4030 C.2     1  UNL1        0.0250
     30  C         17.1360  -22.4540   -5.7010 C.2     1  UNL1        0.0190
     31  C         19.4120  -21.0420   -5.1200 C.2     1  UNL1        0.0030
     32  C         18.4260  -21.2080   -4.1310 C.2     1  UNL1        0.0120
     33  C         17.2570  -21.9390   -4.4090 C.2     1  UNL1       -0.0230
     34  C         16.2030  -22.2100   -3.5110 C.2     1  UNL1        0.0120
     35  C         15.0870  -22.9700   -3.9180 C.2     1  UNL1        0.0020
     36  C         14.9960  -23.4710   -5.2210 C.2     1  UNL1        0.0260
     37  C         16.0390  -23.1890   -6.0830 C.2     1  UNL1        0.0870
     38  S         16.1960  -23.6370   -7.7610 S.O2    1  UNL1        0.2490
     39  O         16.2650  -25.0780   -7.8620 O.2     1  UNL1       -0.2050
     40  O         15.2760  -22.8290   -8.5270 O.2     1  UNL1       -0.2050
@<TRIPOS>BOND
     1    22    21    1
     2    21    23    1
     3    21    20    2
     4    23    16    2
     5    20    18    1
     6    16    14    1
     7    16    17    1
     8    18    17    2
     9    13    11    2
    10    14    15    1
    11    14    11    1
    12    17    19    1
    13    11     8    1
    14    11    12    2
    15     9    10    1
    16     9     8    2
    17    10     5    2
    18     8     7    1
    19     5     1    1
    20     5     6    1
    21     7     6    2
    22     4     1    1
    23     1     2   am
    24    25    26    1
    25    25    24    1
    26     2    24    1
    27     2     3    2
    28    26    27    1
    29    40    38    2
    30    27    38    1
    31    27    28    1
    32    39    38    2
    33    38    37    1
    34    28    29    2
    35    28    30    1
    36    29    31    1
    37    37    30    2
    38    37    36    1
    39    30    33    1
    40    36    35    2
    41    31    32    2
    42    33    32    1
    43    33    34    2
    44    35    34    1
