@<TRIPOS>MOLECULE
22352_out_ligand_01.pdbqt
 40 44 0 0 0
SMALL
GASTEIGER

@<TRIPOS>ATOM
      1  N         20.4180  -22.1170  -11.9860 N.am    1  UNL1       -0.3270
      2  C         19.6000  -21.0300  -11.7360 C.2     1  UNL1        0.2220
      3  O         19.9610  -19.8970  -11.4370 O.2     1  UNL1       -0.2730
      4  H         19.9530  -22.9960  -12.1820 H       1  UNL1        0.1690
      5  C         21.8260  -22.1630  -11.9400 C.2     1  UNL1        0.0340
      6  C         22.5550  -22.8890  -10.9940 C.2     1  UNL1        0.0310
      7  C         23.9540  -22.8740  -11.0080 C.2     1  UNL1        0.0270
      8  C         24.6260  -22.1180  -11.9690 C.2     1  UNL1        0.0800
      9  C         23.9150  -21.4000  -12.9310 C.2     1  UNL1        0.0270
     10  C         22.5180  -21.4210  -12.9090 C.2     1  UNL1        0.0310
     11  S         26.4000  -22.0840  -11.9870 S.O2    1  UNL1        0.2630
     12  O         26.8450  -20.8220  -12.5360 O.2     1  UNL1       -0.2000
     13  O         26.8500  -22.5230  -10.6820 O.2     1  UNL1       -0.2000
     14  N         26.7870  -23.3370  -13.0570 N.pl3   1  UNL1       -0.2810
     15  H         27.7860  -23.5370  -13.0220 H       1  UNL1        0.1790
     16  C         26.1730  -23.3270  -14.3400 C.2     1  UNL1        0.0430
     17  C         25.2650  -24.3240  -14.6770 C.2     1  UNL1        0.0300
     18  C         24.6240  -24.2880  -15.9150 C.2     1  UNL1        0.0090
     19  C         24.8820  -23.2540  -16.8280 C.2     1  UNL1       -0.0560
     20  C         24.1660  -23.2450  -18.1510 C.3     1  UNL1        0.0490
     21  C         25.8000  -22.2400  -16.4810 C.2     1  UNL1       -0.0540
     22  C         26.4360  -22.2860  -15.2300 C.2     1  UNL1        0.0370
     23  C         26.1090  -21.1070  -17.4240 C.3     1  UNL1        0.0490
     24  C         18.1260  -21.3690  -11.8960 C.3     1  UNL1        0.1040
     25  C         17.4790  -21.8080  -10.5810 C.3     1  UNL1        0.0250
     26  C         17.6630  -23.2940  -10.2650 C.3     1  UNL1        0.1140
     27  N         17.7520  -23.5180   -8.8060 N.pl3   1  UNL1       -0.1710
     28  C         18.6770  -22.7360   -8.0190 C.2     1  UNL1        0.0380
     29  C         19.9930  -22.4490   -8.3500 C.2     1  UNL1        0.0250
     30  C         18.2070  -22.4030   -6.7590 C.2     1  UNL1        0.0190
     31  C         20.7930  -21.7710   -7.4180 C.2     1  UNL1        0.0030
     32  C         20.2900  -21.4120   -6.1530 C.2     1  UNL1        0.0120
     33  C         18.9690  -21.7380   -5.7960 C.2     1  UNL1       -0.0230
     34  C         18.3430  -21.4690   -4.5600 C.2     1  UNL1        0.0120
     35  C         17.0090  -21.8650   -4.3260 C.2     1  UNL1        0.0020
     36  C         16.2740  -22.5310   -5.3130 C.2     1  UNL1        0.0260
     37  C         16.9080  -22.7770   -6.5160 C.2     1  UNL1        0.0870
     38  S         16.2520  -23.5510   -7.9350 S.O2    1  UNL1        0.2490
     39  O         15.9390  -24.9270   -7.6190 O.2     1  UNL1       -0.2050
     40  O         15.3110  -22.6420   -8.5470 O.2     1  UNL1       -0.2050
@<TRIPOS>BOND
     1    20    19    1
     2    23    21    1
     3    19    21    2
     4    19    18    1
     5    21    22    1
     6    18    17    2
     7    22    16    2
     8    17    16    1
     9    16    14    1
    10    14    15    1
    11    14    11    1
    12     9    10    1
    13     9     8    2
    14    10     5    2
    15    12    11    2
    16     4     1    1
    17    11     8    1
    18    11    13    2
    19     1     5    1
    20     1     2   am
    21     8     7    1
    22     5     6    1
    23    24     2    1
    24    24    25    1
    25     2     3    2
    26     7     6    2
    27    25    26    1
    28    26    27    1
    29    27    28    1
    30    27    38    1
    31    40    38    2
    32    29    28    2
    33    29    31    1
    34    28    30    1
    35    38    39    2
    36    38    37    1
    37    31    32    2
    38    30    37    2
    39    30    33    1
    40    37    36    1
    41    32    33    1
    42    33    34    2
    43    36    35    2
    44    34    35    1
