@<TRIPOS>MOLECULE
22372_out_ligand_01.pdbqt
 39 44 0 0 0
SMALL
GASTEIGER

@<TRIPOS>ATOM
      1  C         25.6100  -20.7470  -11.4710 C.3     1  UNL1        0.0700
      2  C         24.4500  -21.6150  -11.0620 C.3     1  UNL1        0.0370
      3  C         23.4170  -21.9370  -11.8770 C.2     1  UNL1        0.0620
      4  C         22.2740  -22.8340  -11.4290 C.2     1  UNL1        0.2020
      5  N         22.5670  -23.4320  -10.1230 N.pl3   1  UNL1       -0.0840
      6  N         21.8580  -24.4330   -9.5640 N.2     1  UNL1       -0.1490
      7  C         22.5160  -24.5870   -8.4080 C.2     1  UNL1        0.2750
      8  N         23.5990  -23.7660   -8.2240 N.2     1  UNL1       -0.0540
      9  C         23.6230  -23.0630   -9.3290 C.cat   1  UNL1        0.7250
     10  N         24.4840  -22.1190   -9.7650 N.pl3   1  UNL1       -0.1920
     11  H         25.3210  -21.9400   -9.2170 H       1  UNL1        0.1840
     12  C         20.9540  -22.0650  -11.3810 C.2     1  UNL1       -0.0250
     13  C         20.7350  -20.9270  -12.1760 C.2     1  UNL1        0.0100
     14  C         19.4960  -20.2880  -12.1700 C.2     1  UNL1        0.0030
     15  C         18.4540  -20.7770  -11.3790 C.2     1  UNL1        0.0370
     16  C         18.6480  -21.9100  -10.5890 C.2     1  UNL1        0.0690
     17  C         19.8970  -22.5400  -10.5850 C.2     1  UNL1        0.0460
     18  O         17.7150  -22.4840   -9.7680 O.2     1  UNL1       -0.3470
     19  C         18.1870  -23.3480   -8.7230 C.3     1  UNL1        0.2150
     20  C         18.2250  -22.6770   -7.3600 C.2     1  UNL1       -0.0230
     21  C         19.3610  -21.9160   -7.0240 C.2     1  UNL1        0.0100
     22  C         19.4680  -21.2920   -5.7870 C.2     1  UNL1        0.0020
     23  C         18.4460  -21.4270   -4.8550 C.2     1  UNL1        0.0120
     24  C         17.3080  -22.1930   -5.1410 C.2     1  UNL1       -0.0250
     25  C         16.2960  -22.3180   -4.1750 C.2     1  UNL1        0.0120
     26  C         17.1820  -22.8420   -6.3990 C.2     1  UNL1       -0.0180
     27  C         15.1580  -23.0820   -4.4210 C.2     1  UNL1        0.0010
     28  C         15.0180  -23.7330   -5.6390 C.2     1  UNL1        0.0010
     29  C         16.0150  -23.6160   -6.6120 C.2     1  UNL1        0.0130
     30  C         23.4160  -21.5300  -13.3010 C.2     1  UNL1        0.2560
     31  O         22.6100  -20.6870  -13.6770 O.2     1  UNL1       -0.2670
     32  N         24.3430  -22.2240  -14.0470 N.am    1  UNL1       -0.3230
     33  H         24.9310  -22.8860  -13.5560 H       1  UNL1        0.1690
     34  C         24.5810  -22.1180  -15.4320 C.2     1  UNL1        0.0350
     35  C         24.2880  -23.1240  -16.3550 C.2     1  UNL1        0.0290
     36  C         24.5770  -22.9440  -17.7110 C.2     1  UNL1        0.0020
     37  C         25.1570  -21.7570  -18.1530 C.2     1  UNL1        0.0000
     38  C         25.4440  -20.7420  -17.2420 C.2     1  UNL1        0.0020
     39  C         25.1590  -20.9240  -15.8860 C.2     1  UNL1        0.0290
@<TRIPOS>BOND
     1    37    36    2
     2    37    38    1
     3    36    35    1
     4    38    39    2
     5    35    34    2
     6    39    34    1
     7    34    32    1
     8    32    33    1
     9    32    30   am
    10    31    30    2
    11    30     3    1
    12    13    14    1
    13    13    12    2
    14    14    15    2
    15     3     4    2
    16     3     2    1
    17     1     2    1
    18     4    12    1
    19     4     5    1
    20    12    17    1
    21    15    16    1
    22     2    10    1
    23    16    17    2
    24    16    18    1
    25     5     6    1
    26     5     9    1
    27    18    19    1
    28    10     9    1
    29    10    11    1
    30     6     7    2
    31     9     8    2
    32    19    20    1
    33     7     8    1
    34    20    21    2
    35    20    26    1
    36    21    22    1
    37    29    26    1
    38    29    28    2
    39    26    24    2
    40    22    23    2
    41    28    27    1
    42    24    23    1
    43    24    25    1
    44    27    25    2
