@<TRIPOS>MOLECULE
22384_out_ligand_01.pdbqt
 35 38 0 0 0
SMALL
GASTEIGER

@<TRIPOS>ATOM
      1  C         20.8080  -22.5440  -10.6610 C.2     1  UNL1        0.0340
      2  C         20.5630  -23.5100   -9.6820 C.2     1  UNL1        0.0310
      3  C         19.2770  -23.6830   -9.1600 C.2     1  UNL1        0.0270
      4  C         18.2330  -22.8780   -9.6170 C.2     1  UNL1        0.0800
      5  C         18.4560  -21.9210  -10.6070 C.2     1  UNL1        0.0270
      6  C         19.7450  -21.7560  -11.1240 C.2     1  UNL1        0.0310
      7  S         16.6020  -23.0990   -8.9530 S.O2    1  UNL1        0.2630
      8  O         16.1010  -21.8150   -8.5160 O.2     1  UNL1       -0.2000
      9  O         15.8580  -23.9040   -9.9000 O.2     1  UNL1       -0.2000
     10  N         16.8800  -24.0940   -7.6180 N.pl3   1  UNL1       -0.2800
     11  H         16.6490  -25.0660   -7.8180 H       1  UNL1        0.1790
     12  C         16.5490  -23.5950   -6.3210 C.2     1  UNL1        0.0530
     13  C         15.3850  -24.0890   -5.7220 C.2     1  UNL1        0.0310
     14  C         15.0140  -23.6520   -4.4550 C.2     1  UNL1        0.0030
     15  C         15.8040  -22.7220   -3.7840 C.2     1  UNL1        0.0120
     16  C         16.9780  -22.2150   -4.3650 C.2     1  UNL1       -0.0240
     17  C         17.7640  -21.2760   -3.6750 C.2     1  UNL1        0.0120
     18  C         17.3740  -22.6550   -5.6530 C.2     1  UNL1        0.0010
     19  C         18.9350  -20.7700   -4.2360 C.2     1  UNL1        0.0010
     20  C         19.3400  -21.1970   -5.4940 C.2     1  UNL1        0.0010
     21  C         18.5700  -22.1280   -6.1940 C.2     1  UNL1        0.0140
     22  N         22.0720  -22.3090  -11.2320 N.am    1  UNL1       -0.3250
     23  C         23.1550  -21.6540  -10.6700 C.2     1  UNL1        0.2510
     24  O         23.2020  -21.1390   -9.5560 O.2     1  UNL1       -0.2700
     25  H         22.1920  -22.5740  -12.2050 H       1  UNL1        0.1690
     26  C         24.3880  -21.6540  -11.5930 C.3     1  UNL1        0.2170
     27  C         25.6030  -21.2360  -10.7680 C.3     1  UNL1        0.0500
     28  O         24.6780  -22.9470  -12.1280 O.2     1  UNL1       -0.3370
     29  C         24.8860  -23.0590  -13.4750 C.2     1  UNL1        0.0700
     30  C         25.1910  -24.3530  -13.9060 C.2     1  UNL1        0.0370
     31  C         25.4110  -24.6200  -15.2560 C.2     1  UNL1        0.0030
     32  C         25.3280  -23.5890  -16.1900 C.2     1  UNL1        0.0070
     33  C         25.0320  -22.2850  -15.7760 C.2     1  UNL1       -0.0590
     34  C         24.9080  -21.1820  -16.7880 C.3     1  UNL1        0.0480
     35  C         24.7980  -22.0300  -14.4150 C.2     1  UNL1        0.0430
@<TRIPOS>BOND
     1    34    33    1
     2    32    33    2
     3    32    31    1
     4    33    35    1
     5    31    30    2
     6    35    29    2
     7    30    29    1
     8    29    28    1
     9    25    22    1
    10    28    26    1
    11    26    27    1
    12    26    23    1
    13    22    23   am
    14    22     1    1
    15     6     1    2
    16     6     5    1
    17    23    24    2
    18     1     2    1
    19     5     4    2
    20     9     7    2
    21     2     3    2
    22     4     3    1
    23     4     7    1
    24     7     8    2
    25     7    10    1
    26    11    10    1
    27    10    12    1
    28    12    13    2
    29    12    18    1
    30    21    18    1
    31    21    20    2
    32    13    14    1
    33    18    16    2
    34    20    19    1
    35    14    15    2
    36    16    15    1
    37    16    17    1
    38    19    17    2
