@<TRIPOS>MOLECULE
22400_out_ligand_01.pdbqt
 33 35 0 0 0
SMALL
GASTEIGER

@<TRIPOS>ATOM
      1  C         20.2680  -23.2630   -7.9040 C.2     1  UNL1        0.0800
      2  C         20.7340  -24.3670   -8.6250 C.2     1  UNL1        0.0270
      3  C         22.0210  -24.3380   -9.1620 C.2     1  UNL1        0.0260
      4  C         22.8400  -23.2260   -8.9580 C.2     1  UNL1        0.0220
      5  C         22.3770  -22.1320   -8.2200 C.2     1  UNL1        0.0260
      6  C         21.0910  -22.1550   -7.6770 C.2     1  UNL1        0.0270
      7  N         24.1180  -23.1660   -9.6060 N.pl3   1  UNL1       -0.1810
      8  H         24.8530  -22.9660   -8.9240 H       1  UNL1        0.1460
      9  S         24.2050  -21.9520  -10.8060 S.O2    1  UNL1        0.2460
     10  O         22.8880  -21.6490  -11.3210 O.2     1  UNL1       -0.2060
     11  O         25.0620  -20.9170  -10.2670 O.2     1  UNL1       -0.2060
     12  C         25.1170  -22.7990  -12.0920 C.2     1  UNL1        0.0830
     13  C         24.6190  -22.7160  -13.4040 C.2     1  UNL1        0.0610
     14  C         25.2890  -23.3780  -14.4400 C.2     1  UNL1        0.1040
     15  C         26.4430  -24.1220  -14.1790 C.2     1  UNL1        0.0370
     16  C         26.9280  -24.2060  -12.8710 C.2     1  UNL1        0.0110
     17  C         26.2800  -23.5480  -11.8100 C.2     1  UNL1       -0.0390
     18  C         26.8450  -23.7080  -10.4250 C.3     1  UNL1        0.0500
     19  N         24.7760  -23.2900  -15.8140 N.pl3   1  UNL1       -0.1160
     20  O         23.9540  -22.3980  -16.0650 O.2     1  UNL1       -0.5320
     21  O         25.1940  -24.1150  -16.6370 O.2     1  UNL1       -0.5320
     22  S         18.5930  -23.2590   -7.3000 S.O2    1  UNL1        0.2630
     23  O         18.2750  -21.9140   -6.8700 O.2     1  UNL1       -0.2000
     24  O         18.4570  -24.3860   -6.4010 O.2     1  UNL1       -0.2000
     25  N         17.6930  -23.6410   -8.6830 N.pl3   1  UNL1       -0.2810
     26  H         17.8120  -24.6170   -8.9500 H       1  UNL1        0.1790
     27  C         17.6400  -22.6820   -9.7350 C.2     1  UNL1        0.0430
     28  C         16.4850  -21.9300   -9.9410 C.2     1  UNL1        0.0300
     29  C         16.4750  -20.9290  -10.9130 C.2     1  UNL1        0.0030
     30  C         17.6230  -20.6700  -11.6630 C.2     1  UNL1        0.0070
     31  C         18.7850  -21.4240  -11.4650 C.2     1  UNL1       -0.0600
     32  C         20.0390  -21.1050  -12.2260 C.3     1  UNL1        0.0480
     33  C         18.7870  -22.4310  -10.4910 C.2     1  UNL1        0.0370
@<TRIPOS>BOND
     1    21    19    2
     2    20    19    2
     3    19    14    1
     4    14    15    2
     5    14    13    1
     6    15    16    1
     7    13    12    2
     8    16    17    2
     9    32    31    1
    10    12    17    1
    11    12     9    1
    12    17    18    1
    13    30    31    2
    14    30    29    1
    15    31    33    1
    16    10     9    2
    17    29    28    2
    18     9    11    2
    19     9     7    1
    20    33    27    2
    21    28    27    1
    22    27    25    1
    23     7     4    1
    24     7     8    1
    25     3     4    2
    26     3     2    1
    27     4     5    1
    28    26    25    1
    29    25    22    1
    30     2     1    2
    31     5     6    2
    32     1     6    1
    33     1    22    1
    34    22    23    2
    35    22    24    2
