@<TRIPOS>MOLECULE
22403_out_ligand_01.pdbqt
 33 35 0 0 0
SMALL
GASTEIGER

@<TRIPOS>ATOM
      1  C         18.3530  -23.2650   -9.4110 C.2     1  UNL1        0.0800
      2  C         19.4210  -24.0240   -8.9260 C.2     1  UNL1        0.0270
      3  C         20.7030  -23.8270   -9.4500 C.2     1  UNL1        0.0310
      4  C         20.9200  -22.8840  -10.4590 C.2     1  UNL1        0.0340
      5  C         19.8320  -22.1560  -10.9600 C.2     1  UNL1        0.0310
      6  C         18.5480  -22.3470  -10.4450 C.2     1  UNL1        0.0270
      7  N         22.1810  -22.6120  -11.0180 N.am    1  UNL1       -0.3250
      8  C         23.1590  -21.7540  -10.5410 C.2     1  UNL1        0.2510
      9  O         23.1110  -21.0870   -9.5110 O.2     1  UNL1       -0.2700
     10  H         22.3710  -23.0100  -11.9330 H       1  UNL1        0.1690
     11  C         24.4060  -21.7220  -11.4440 C.3     1  UNL1        0.2170
     12  C         25.5820  -21.1920  -10.6300 C.3     1  UNL1        0.0500
     13  O         24.7780  -23.0210  -11.9140 O.2     1  UNL1       -0.3370
     14  C         24.8530  -23.2260  -13.2640 C.2     1  UNL1        0.0700
     15  C         24.4580  -22.1260  -14.0340 C.2     1  UNL1        0.0400
     16  C         24.4930  -22.1860  -15.4280 C.2     1  UNL1        0.0450
     17  C         24.9260  -23.3490  -16.0500 C.2     1  UNL1        0.1160
     18  F         24.9580  -23.4130  -17.3870 F       1  UNL1       -0.2060
     19  C         25.3230  -24.4490  -15.3010 C.2     1  UNL1        0.0450
     20  C         25.2890  -24.3900  -13.9030 C.2     1  UNL1        0.0400
     21  S         16.7280  -23.4880   -8.7230 S.O2    1  UNL1        0.2630
     22  O         15.7820  -23.5260   -9.8170 O.2     1  UNL1       -0.2000
     23  O         16.8030  -24.5650   -7.7590 O.2     1  UNL1       -0.2000
     24  N         16.4970  -22.0760   -7.8250 N.pl3   1  UNL1       -0.2800
     25  H         15.9170  -21.3920   -8.3080 H       1  UNL1        0.1790
     26  C         16.4500  -22.1420   -6.4030 C.2     1  UNL1        0.0500
     27  C         15.2160  -22.4220   -5.8010 C.2     1  UNL1        0.0310
     28  C         15.0960  -22.4690   -4.4150 C.2     1  UNL1        0.0040
     29  C         16.2140  -22.2380   -3.6220 C.2     1  UNL1        0.0240
     30  C         17.4490  -21.9560   -4.2140 C.2     1  UNL1        0.0420
     31  C         17.5910  -21.8970   -5.6160 C.2     1  UNL1       -0.0130
     32 CL         18.7880  -21.6800   -3.1530 Cl      1  UNL1       -0.0840
     33  C         18.9350  -21.5790   -6.2160 C.3     1  UNL1        0.0520
@<TRIPOS>BOND
     1    18    17    1
     2    17    16    2
     3    17    19    1
     4    16    15    1
     5    19    20    2
     6    15    14    2
     7    20    14    1
     8    14    13    1
     9    10     7    1
    10    13    11    1
    11    11    12    1
    12    11     8    1
    13     7     8   am
    14     7     4    1
    15     5     4    2
    16     5     6    1
    17     8     9    2
    18     4     3    1
    19     6     1    2
    20    22    21    2
    21     3     2    2
    22     1     2    1
    23     1    21    1
    24    21    24    1
    25    21    23    2
    26    25    24    1
    27    24    26    1
    28    26    27    2
    29    26    31    1
    30    33    31    1
    31    27    28    1
    32    31    30    2
    33    28    29    2
    34    30    29    1
    35    30    32    1
