@<TRIPOS>MOLECULE
22409_out_ligand_01.pdbqt
 33 35 0 0 0
SMALL
GASTEIGER

@<TRIPOS>ATOM
      1  C         18.5460  -23.3150   -9.0220 C.2     1  UNL1        0.0800
      2  C         18.6930  -22.4400  -10.1000 C.2     1  UNL1        0.0270
      3  C         19.9470  -22.2860  -10.6960 C.2     1  UNL1        0.0310
      4  C         21.0600  -22.9910  -10.2150 C.2     1  UNL1        0.0340
      5  C         20.9050  -23.8360   -9.1130 C.2     1  UNL1        0.0310
      6  C         19.6520  -23.9960   -8.5110 C.2     1  UNL1        0.0270
      7  N         22.2820  -22.7860  -10.8800 N.am    1  UNL1       -0.3250
      8  C         23.3090  -21.9270  -10.5290 C.2     1  UNL1        0.2510
      9  O         23.3390  -21.1780   -9.5570 O.2     1  UNL1       -0.2700
     10  H         22.4860  -23.4010  -11.6620 H       1  UNL1        0.1690
     11  C         24.4790  -21.9620  -11.5320 C.3     1  UNL1        0.2170
     12  C         25.6840  -21.2780  -10.8920 C.3     1  UNL1        0.0500
     13  O         24.1940  -21.2530  -12.7400 O.2     1  UNL1       -0.3370
     14  C         24.5370  -21.8320  -13.9310 C.2     1  UNL1        0.0700
     15  C         24.8870  -23.1710  -14.1300 C.2     1  UNL1        0.0400
     16  C         25.1980  -23.6270  -15.4150 C.2     1  UNL1        0.0450
     17  C         25.1610  -22.7480  -16.4900 C.2     1  UNL1        0.1160
     18  F         25.4590  -23.1910  -17.7170 F       1  UNL1       -0.2060
     19  C         24.8160  -21.4160  -16.3070 C.2     1  UNL1        0.0450
     20  C         24.5030  -20.9600  -15.0250 C.2     1  UNL1        0.0400
     21  S         16.9550  -23.5050   -8.2550 S.O2    1  UNL1        0.2630
     22  O         17.0320  -24.6460   -7.3700 O.2     1  UNL1       -0.2000
     23  O         15.9570  -23.4500   -9.3050 O.2     1  UNL1       -0.2000
     24  N         16.7490  -22.0870   -7.3590 N.pl3   1  UNL1       -0.2800
     25  H         17.0850  -21.2640   -7.8550 H       1  UNL1        0.1790
     26  C         16.8690  -22.1090   -5.9370 C.2     1  UNL1        0.0540
     27  C         18.1090  -21.8190   -5.3330 C.2     1  UNL1       -0.0340
     28  C         18.2310  -21.9340   -3.9370 C.2     1  UNL1        0.0090
     29  C         19.3410  -21.4000   -6.0890 C.3     1  UNL1        0.0500
     30  C         17.1460  -22.3130   -3.1540 C.2     1  UNL1        0.0010
     31  C         15.9160  -22.5660   -3.7530 C.2     1  UNL1        0.0090
     32  C         15.7560  -22.4510   -5.1430 C.2     1  UNL1       -0.0340
     33  C         14.3840  -22.6990   -5.7090 C.3     1  UNL1        0.0500
@<TRIPOS>BOND
     1    18    17    1
     2    17    19    2
     3    17    16    1
     4    19    20    1
     5    16    15    2
     6    20    14    2
     7    15    14    1
     8    14    13    1
     9    13    11    1
    10    10     7    1
    11    11    12    1
    12    11     8    1
    13     7     8   am
    14     7     4    1
    15     3     4    2
    16     3     2    1
    17     8     9    2
    18     4     5    1
    19     2     1    2
    20    23    21    2
    21     5     6    2
    22     1     6    1
    23     1    21    1
    24    21    22    2
    25    21    24    1
    26    25    24    1
    27    24    26    1
    28    29    27    1
    29    26    27    2
    30    26    32    1
    31    33    32    1
    32    27    28    1
    33    32    31    2
    34    28    30    2
    35    31    30    1
