@<TRIPOS>MOLECULE
22419_out_ligand_01.pdbqt
 33 36 0 0 0
SMALL
GASTEIGER

@<TRIPOS>ATOM
      1  O         17.3520  -21.0050  -12.2570 O.2     1  UNL1       -0.2730
      2  C         18.2900  -21.4200  -11.5810 C.2     1  UNL1        0.2380
      3  C         18.0810  -21.9290  -10.1650 C.3     1  UNL1        0.1410
      4  C         19.0880  -22.9960   -9.7470 C.3     1  UNL1        0.2290
      5  N         20.4060  -22.6400  -10.2340 N.ar    1  UNL1       -0.0820
      6  N         21.5580  -23.0770   -9.7150 N.ar    1  UNL1       -0.1280
      7  C         22.4420  -22.5800  -10.5930 C.ar    1  UNL1        0.2260
      8  N         21.8900  -21.8510  -11.6190 N.ar    1  UNL1       -0.0350
      9  C         20.6090  -21.8920  -11.3520 C.ar    1  UNL1        0.7290
     10  N         19.5740  -21.3460  -12.0450 N.am    1  UNL1       -0.1560
     11  H         19.7540  -20.9070  -12.9400 H       1  UNL1        0.1870
     12  C         18.9880  -23.1980   -8.2380 C.2     1  UNL1        0.2480
     13  O         19.4410  -24.2400   -7.7600 O.2     1  UNL1       -0.2710
     14  N         18.2890  -22.2330   -7.5310 N.am    1  UNL1       -0.3250
     15  H         18.1690  -21.3390   -8.0110 H       1  UNL1        0.1690
     16  C         17.9180  -22.2420   -6.1610 C.2     1  UNL1        0.0490
     17  C         18.6750  -21.5790   -5.1830 C.2     1  UNL1        0.0300
     18  C         18.2950  -21.5880   -3.8380 C.2     1  UNL1        0.0020
     19  C         17.1530  -22.2670   -3.4390 C.2     1  UNL1        0.0010
     20  C         16.3950  -22.9440   -4.3880 C.2     1  UNL1        0.0180
     21  C         16.7670  -22.9510   -5.7510 C.2     1  UNL1        0.0740
     22  C         15.8830  -23.7340   -6.6910 C.3     1  UNL1        0.4190
     23  F         15.5080  -23.0150   -7.7840 F       1  UNL1       -0.1660
     24  F         16.4570  -24.8760   -7.1690 F       1  UNL1       -0.1660
     25  F         14.7230  -24.1390   -6.0970 F       1  UNL1       -0.1660
     26  S         24.1450  -22.8620  -10.4020 S.3     1  UNL1       -0.0830
     27  C         24.6990  -22.6530  -12.1170 C.3     1  UNL1        0.1210
     28  C         25.4660  -21.3650  -12.2980 C.2     1  UNL1       -0.0490
     29  C         25.6600  -20.8250  -13.5790 C.2     1  UNL1        0.0080
     30  C         26.3830  -19.6430  -13.7460 C.2     1  UNL1        0.0010
     31  C         26.9200  -18.9900  -12.6380 C.2     1  UNL1        0.0000
     32  C         26.7370  -19.5190  -11.3620 C.2     1  UNL1        0.0010
     33  C         26.0170  -20.7010  -11.1910 C.2     1  UNL1        0.0080
@<TRIPOS>BOND
     1    30    29    1
     2    30    31    2
     3    29    28    2
     4    11    10    1
     5    31    32    1
     6    28    27    1
     7    28    33    1
     8     1     2    2
     9    27    26    1
    10    10     2   am
    11    10     9    1
    12     8     9   ar
    13     8     7   ar
    14     2     3    1
    15    32    33    2
    16     9     5   ar
    17     7    26    1
    18     7     6   ar
    19     5     4    1
    20     5     6   ar
    21     3     4    1
    22     4    12    1
    23    12    13    2
    24    12    14   am
    25    15    14    1
    26    23    22    1
    27    14    16    1
    28    24    22    1
    29    22    25    1
    30    22    21    1
    31    16    21    2
    32    16    17    1
    33    21    20    1
    34    17    18    2
    35    20    19    2
    36    18    19    1
