@<TRIPOS>MOLECULE
22418_out_ligand_01.pdbqt
 32 35 0 0 0
SMALL
GASTEIGER

@<TRIPOS>ATOM
      1  C         20.1400  -21.9290  -10.8010 C.2     1  UNL1        0.1790
      2  S         19.3480  -20.7590  -11.6980 S.2     1  UNL1       -0.0400
      3  N         19.6340  -22.2400   -9.5710 N.am    1  UNL1       -0.2990
      4  C         19.6510  -23.4680   -8.9160 C.2     1  UNL1        0.2580
      5  O         20.2430  -24.4810   -9.2640 O.2     1  UNL1       -0.2670
      6  H         18.8830  -21.6180   -9.2990 H       1  UNL1        0.1710
      7  N         21.1930  -22.5860  -11.3390 N.am    1  UNL1       -0.3260
      8  H         20.9710  -23.4330  -11.8640 H       1  UNL1        0.1690
      9  C         22.4780  -22.1120  -11.5750 C.ar    1  UNL1        0.0930
     10  C         23.5390  -22.1330  -10.6660 C.ar    1  UNL1        0.0720
     11  C         24.7090  -21.6110  -11.2950 C.ar    1  UNL1       -0.0260
     12  C         24.4920  -21.2670  -12.6000 C.ar    1  UNL1       -0.0080
     13  C         26.1280  -21.3740  -10.9220 C.3     1  UNL1        0.0410
     14  S         22.9380  -21.5480  -13.1310 S.2     1  UNL1       -0.0750
     15  C         25.6860  -20.7440  -13.3020 C.3     1  UNL1        0.0470
     16  C         26.8110  -21.1610  -12.3090 C.3     1  UNL1        0.0100
     17  C         23.3890  -22.6360   -9.3060 C.2     1  UNL1        0.2520
     18  N         24.0810  -23.7750   -9.0060 N.am    1  UNL1       -0.3660
     19  H         24.8800  -24.0350   -9.5650 H       1  UNL1        0.1590
     20  H         24.1090  -24.0120   -8.0230 H       1  UNL1        0.1590
     21  O         22.7100  -22.0770   -8.4490 O.2     1  UNL1       -0.2680
     22  C         18.7480  -23.5420   -7.7350 C.2     1  UNL1        0.0430
     23  C         17.8100  -24.5830   -7.7700 C.2     1  UNL1        0.0180
     24  C         16.8780  -24.7110   -6.7540 C.2     1  UNL1        0.0020
     25  C         16.8830  -23.8010   -5.6980 C.2     1  UNL1        0.0140
     26  C         17.8280  -22.7490   -5.6130 C.2     1  UNL1       -0.0030
     27  C         17.8580  -21.8250   -4.5360 C.2     1  UNL1        0.0450
     28  C         18.7950  -22.6220   -6.6500 C.2     1  UNL1       -0.0090
     29 CL         16.7120  -21.8880   -3.2340 Cl      1  UNL1       -0.0830
     30  C         18.8180  -20.8130   -4.4670 C.2     1  UNL1        0.0240
     31  C         19.7760  -20.7030   -5.4610 C.2     1  UNL1        0.0030
     32  C         19.7660  -21.5970   -6.5320 C.2     1  UNL1        0.0130
@<TRIPOS>BOND
     1    15    12    1
     2    15    16    1
     3    14    12   ar
     4    14     9   ar
     5    12    11   ar
     6    16    13    1
     7     8     7    1
     8     2     1    2
     9     9     7    1
    10     9    10   ar
    11     7     1    1
    12    11    13    1
    13    11    10   ar
    14     1     3    1
    15    10    17    1
    16     3     6    1
    17     3     4   am
    18    19    18    1
    19    17    18   am
    20    17    21    2
    21     5     4    2
    22    18    20    1
    23     4    22    1
    24    23    22    2
    25    23    24    1
    26    22    28    1
    27    24    25    2
    28    28    32    1
    29    28    26    2
    30    32    31    2
    31    25    26    1
    32    26    27    1
    33    31    30    1
    34    27    30    2
    35    27    29    1
