@<TRIPOS>MOLECULE
22428_out_ligand_01.pdbqt
 29 32 0 0 0
SMALL
GASTEIGER

@<TRIPOS>ATOM
      1  C         23.8430  -21.7440  -12.7930 C.2     1  UNL1        0.0350
      2  C         24.9290  -21.6420  -11.9180 C.2     1  UNL1        0.0170
      3  C         24.7100  -21.6690  -10.5410 C.2     1  UNL1        0.0030
      4  C         23.4130  -21.7880  -10.0340 C.2     1  UNL1        0.0290
      5  C         22.3180  -21.8700  -10.8950 C.2     1  UNL1        0.0350
      6  C         22.5420  -21.8450  -12.2760 C.2     1  UNL1        0.0460
      7  N         20.9820  -21.9800  -10.4610 N.am    1  UNL1       -0.3230
      8  C         20.3830  -23.0650   -9.8480 C.2     1  UNL1        0.2570
      9  O         20.9040  -24.1260   -9.5290 O.2     1  UNL1       -0.2670
     10  H         20.3990  -21.1590  -10.5900 H       1  UNL1        0.1690
     11  C         18.9570  -22.8460   -9.5070 C.2     1  UNL1        0.0430
     12  C         18.0470  -22.9350  -10.5710 C.2     1  UNL1        0.0180
     13  C         16.6860  -22.8040  -10.3290 C.2     1  UNL1        0.0020
     14  C         16.2320  -22.5830   -9.0300 C.2     1  UNL1        0.0120
     15  C         17.1300  -22.4680   -7.9540 C.2     1  UNL1       -0.0250
     16  C         16.6500  -22.2280   -6.6570 C.2     1  UNL1        0.0120
     17  C         18.5240  -22.5850   -8.1810 C.2     1  UNL1       -0.0100
     18  C         17.5250  -22.0870   -5.5810 C.2     1  UNL1        0.0010
     19  C         18.8960  -22.1730   -5.7890 C.2     1  UNL1        0.0010
     20  C         19.3900  -22.4150   -7.0720 C.2     1  UNL1        0.0130
     21  C         24.0080  -21.7280  -14.2740 C.2     1  UNL1        0.2700
     22  O         23.3930  -20.9110  -14.9480 O.2     1  UNL1       -0.2660
     23  N         24.8410  -22.6870  -14.8020 N.am    1  UNL1       -0.2570
     24  H         25.1460  -23.4940  -14.2790 H       1  UNL1        0.1910
     25  N         24.8920  -22.8180  -16.1440 N.pl3   1  UNL1       -0.2370
     26  C         24.0740  -23.5900  -16.9010 C.2     1  UNL1        0.2580
     27  N         24.5540  -23.6310  -18.1260 N.2     1  UNL1       -0.1420
     28  N         25.7060  -22.8620  -18.1530 N.2     1  UNL1       -0.1420
     29  C         25.8920  -22.3790  -16.9430 C.2     1  UNL1        0.2580
@<TRIPOS>BOND
     1    28    27    1
     2    28    29    2
     3    27    26    2
     4    29    25    1
     5    26    25    1
     6    25    23    1
     7    22    21    2
     8    23    24    1
     9    23    21   am
    10    21     1    1
    11     1     6    2
    12     1     2    1
    13     6     5    1
    14     2     3    2
    15     5     7    1
    16     5     4    2
    17    10     7    1
    18    12    13    1
    19    12    11    2
    20     3     4    1
    21     7     8   am
    22    13    14    2
    23     8     9    2
    24     8    11    1
    25    11    17    1
    26    14    15    1
    27    17    15    2
    28    17    20    1
    29    15    16    1
    30    20    19    2
    31    16    18    2
    32    19    18    1
