@<TRIPOS>MOLECULE
22425_out_ligand_01.pdbqt
 30 33 0 0 0
SMALL
GASTEIGER

@<TRIPOS>ATOM
      1  C         21.7430  -23.4220   -8.9310 C.2     1  UNL1        0.0340
      2  C         21.3720  -22.3650   -8.0980 C.2     1  UNL1        0.0300
      3  C         20.1780  -22.4200   -7.3680 C.2     1  UNL1        0.0190
      4  C         19.3320  -23.5270   -7.4760 C.2     1  UNL1        0.0330
      5  C         19.7050  -24.5970   -8.2960 C.2     1  UNL1        0.0190
      6  C         20.9030  -24.5400   -9.0190 C.2     1  UNL1        0.0300
      7  N         22.9220  -23.4430   -9.7060 N.am    1  UNL1       -0.3270
      8  C         23.0920  -22.9620  -10.9970 C.2     1  UNL1        0.2260
      9  O         22.2410  -22.3870  -11.6710 O.2     1  UNL1       -0.2730
     10  H         23.7270  -23.8720   -9.2700 H       1  UNL1        0.1690
     11  C         24.4960  -23.2000  -11.5430 C.3     1  UNL1        0.1420
     12  C         25.1810  -21.9150  -11.9640 C.2     1  UNL1       -0.0380
     13  C         25.7980  -21.1520  -10.9540 C.2     1  UNL1        0.0080
     14  C         26.4270  -19.9480  -11.2510 C.2     1  UNL1        0.0010
     15  C         26.4410  -19.4810  -12.5610 C.2     1  UNL1        0.0120
     16  C         25.8270  -20.2080  -13.5910 C.2     1  UNL1       -0.0250
     17  C         25.8480  -19.7070  -14.9040 C.2     1  UNL1        0.0120
     18  C         25.1840  -21.4420  -13.3080 C.2     1  UNL1       -0.0190
     19  C         25.2440  -20.4020  -15.9490 C.2     1  UNL1        0.0010
     20  C         24.6110  -21.6100  -15.6930 C.2     1  UNL1        0.0010
     21  C         24.5820  -22.1230  -14.3930 C.2     1  UNL1        0.0130
     22  C         18.0640  -23.5320   -6.6970 C.2     1  UNL1        0.2700
     23  O         17.3050  -24.4900   -6.7630 O.2     1  UNL1       -0.2660
     24  N         17.8480  -22.4310   -5.9010 N.am    1  UNL1       -0.2570
     25  H         18.5960  -21.8010   -5.6500 H       1  UNL1        0.1910
     26  N         16.8170  -22.4700   -5.0310 N.pl3   1  UNL1       -0.2370
     27  C         15.5290  -22.1730   -5.3250 C.2     1  UNL1        0.2580
     28  N         14.8490  -22.0940   -4.2000 N.2     1  UNL1       -0.1420
     29  N         15.7290  -22.3460   -3.1590 N.2     1  UNL1       -0.1420
     30  C         16.9150  -22.5750   -3.6830 C.2     1  UNL1        0.2580
@<TRIPOS>BOND
     1    19    20    1
     2    19    17    2
     3    20    21    2
     4    17    16    1
     5    21    18    1
     6    16    18    1
     7    16    15    2
     8    18    12    2
     9    15    14    1
    10    12    11    1
    11    12    13    1
    12     9     8    2
    13    11     8    1
    14    14    13    2
    15     8     7   am
    16     7    10    1
    17     7     1    1
    18     6     1    2
    19     6     5    1
    20     1     2    1
    21     5     4    2
    22     2     3    2
    23     4     3    1
    24     4    22    1
    25    23    22    2
    26    22    24   am
    27    24    25    1
    28    24    26    1
    29    27    26    1
    30    27    28    2
    31    26    30    1
    32    28    29    1
    33    30    29    2
