@<TRIPOS>MOLECULE
22434_out_ligand_01.pdbqt
 29 32 0 0 0
SMALL
GASTEIGER

@<TRIPOS>ATOM
      1  C         19.2870  -23.5670   -7.3970 C.2     1  UNL1        0.0330
      2  C         19.5820  -24.5690   -8.3280 C.2     1  UNL1        0.0190
      3  C         20.7250  -24.4610   -9.1310 C.2     1  UNL1        0.0300
      4  C         21.5800  -23.3570   -9.0200 C.2     1  UNL1        0.0350
      5  C         21.2710  -22.3550   -8.0980 C.2     1  UNL1        0.0300
      6  C         20.1290  -22.4560   -7.2960 C.2     1  UNL1        0.0190
      7  N         22.7100  -23.3310   -9.8620 N.am    1  UNL1       -0.3230
      8  C         23.5740  -22.2730  -10.0740 C.2     1  UNL1        0.2570
      9  O         23.5080  -21.1450   -9.6070 O.2     1  UNL1       -0.2670
     10  H         22.8990  -24.1760  -10.3880 H       1  UNL1        0.1690
     11  C         24.6620  -22.5780  -11.0360 C.2     1  UNL1        0.0430
     12  C         25.7990  -23.2020  -10.5030 C.2     1  UNL1        0.0180
     13  C         26.8900  -23.4650  -11.3220 C.2     1  UNL1        0.0020
     14  C         26.8450  -23.1080  -12.6690 C.2     1  UNL1        0.0120
     15  C         25.7060  -22.5030  -13.2260 C.2     1  UNL1       -0.0250
     16  C         25.6770  -22.1700  -14.5890 C.2     1  UNL1        0.0120
     17  C         24.5770  -22.2390  -12.4120 C.2     1  UNL1       -0.0100
     18  C         24.5450  -21.5930  -15.1660 C.2     1  UNL1        0.0010
     19  C         23.4220  -21.3510  -14.3880 C.2     1  UNL1        0.0010
     20  C         23.4330  -21.6720  -13.0290 C.2     1  UNL1        0.0130
     21  C         18.0850  -23.6300   -6.5180 C.2     1  UNL1        0.2700
     22  O         17.6110  -24.7120   -6.2000 O.2     1  UNL1       -0.2660
     23  N         17.5550  -22.4170   -6.1400 N.am    1  UNL1       -0.2570
     24  H         17.7910  -21.5550   -6.6100 H       1  UNL1        0.1910
     25  N         16.3710  -22.4150   -5.4950 N.pl3   1  UNL1       -0.2370
     26  C         16.2040  -22.2810   -4.1580 C.2     1  UNL1        0.2580
     27  N         14.9240  -22.0950   -3.9120 N.2     1  UNL1       -0.1420
     28  N         14.2550  -22.1140   -5.1240 N.2     1  UNL1       -0.1420
     29  C         15.1480  -22.3120   -6.0710 C.2     1  UNL1        0.2580
@<TRIPOS>BOND
     1    18    16    2
     2    18    19    1
     3    16    15    1
     4    19    20    2
     5    15    14    2
     6    15    17    1
     7    20    17    1
     8    14    13    1
     9    17    11    2
    10    13    12    2
    11    11    12    1
    12    11     8    1
    13    10     7    1
    14     8     7   am
    15     8     9    2
    16     7     4    1
    17     3     4    2
    18     3     2    1
    19     4     5    1
    20     2     1    2
    21     5     6    2
    22     1     6    1
    23     1    21    1
    24    24    23    1
    25    21    22    2
    26    21    23   am
    27    23    25    1
    28    29    25    1
    29    29    28    2
    30    25    26    1
    31    28    27    1
    32    26    27    2
