@<TRIPOS>MOLECULE
22437_out_ligand_01.pdbqt
 26 29 0 0 0
SMALL
GASTEIGER

@<TRIPOS>ATOM
      1  C         22.2880  -23.3580   -8.7780 C.2     1  UNL1       -0.0400
      2  C         22.0220  -22.1950   -8.0450 C.2     1  UNL1        0.0100
      3  C         20.7620  -21.9870   -7.4730 C.2     1  UNL1        0.0160
      4  C         19.7450  -22.9420   -7.6110 C.2     1  UNL1        0.0170
      5  C         20.0220  -24.1100   -8.3380 C.2     1  UNL1        0.0160
      6  C         21.2790  -24.3200   -8.9120 C.2     1  UNL1        0.0100
      7  C         23.6540  -23.5940   -9.3630 C.3     1  UNL1        0.1610
      8  N         23.6800  -23.2190  -10.7550 N.am    1  UNL1       -0.3510
      9  C         24.1270  -21.9680  -11.1370 C.2     1  UNL1        0.2750
     10  O         24.5880  -21.1810  -10.3140 O.2     1  UNL1       -0.2650
     11  H         23.1620  -23.7870  -11.4080 H       1  UNL1        0.1630
     12  C         23.9950  -21.6740  -12.5520 C.2     1  UNL1        0.1440
     13  C         22.9110  -21.4080  -13.3730 C.2     1  UNL1        0.0460
     14  C         23.4220  -21.1940  -14.6780 C.2     1  UNL1        0.0480
     15  C         24.7850  -21.3450  -14.5840 C.2     1  UNL1        0.1220
     16 BR         26.0130  -21.1730  -16.0260 Br      1  UNL1       -0.0230
     17  O         25.1400  -21.6360  -13.3060 O.2     1  UNL1       -0.2980
     18  C         18.4210  -22.7560   -7.0230 C.2     1  UNL1        0.1820
     19  N         17.2570  -22.6180   -7.6370 N.2     1  UNL1       -0.2010
     20  C         16.3700  -22.4820   -6.6090 C.2     1  UNL1        0.1860
     21  N         15.0320  -22.3130   -6.7180 N.2     1  UNL1       -0.2390
     22  C         17.0310  -22.5430   -5.3950 C.2     1  UNL1        0.1250
     23  C         14.3990  -22.2080   -5.5260 C.2     1  UNL1        0.1190
     24  C         15.0070  -22.2610   -4.2700 C.3     1  UNL1        0.0220
     25  C         16.3880  -22.4360   -4.1730 C.2     1  UNL1        0.0430
     26  O         18.3560  -22.7210   -5.6490 O.2     1  UNL1       -0.2870
@<TRIPOS>BOND
     1    16    15    1
     2    14    15    2
     3    14    13    1
     4    15    17    1
     5    13    12    2
     6    17    12    1
     7    12     9    1
     8    11     8    1
     9     9     8   am
    10     9    10    2
    11     8     7    1
    12     7     1    1
    13     6     1    2
    14     6     5    1
    15     1     2    1
    16     5     4    2
    17     2     3    2
    18    19    18    2
    19    19    20    2
    20     4     3    1
    21     4    18    1
    22    18    26    1
    23    21    20    1
    24    21    23    2
    25    20    22    1
    26    26    22    1
    27    23    24    1
    28    22    25    2
    29    24    25    1
