@<TRIPOS>MOLECULE
22438_out_ligand_01.pdbqt
 31 35 0 0 0
SMALL
GASTEIGER

@<TRIPOS>ATOM
      1  C         23.8290  -23.3890   -9.3950 C.3     1  UNL1        0.1610
      2  N         23.9210  -22.7950  -10.7090 N.am    1  UNL1       -0.3530
      3  C         25.0390  -22.9460  -11.4990 C.2     1  UNL1        0.2520
      4  O         25.9820  -23.6800  -11.2330 O.2     1  UNL1       -0.2680
      5  H         23.2090  -22.1300  -10.9770 H       1  UNL1        0.1630
      6  C         25.0400  -22.1230  -12.7340 C.2     1  UNL1        0.0430
      7  C         24.3230  -22.6280  -13.8280 C.2     1  UNL1        0.0180
      8  C         24.2810  -21.9110  -15.0120 C.2     1  UNL1        0.0020
      9  C         24.9490  -20.6900  -15.1030 C.2     1  UNL1        0.0130
     10  C         25.6790  -20.1440  -14.0160 C.2     1  UNL1       -0.0070
     11  C         26.3700  -18.9020  -14.0790 C.2     1  UNL1        0.0220
     12  C         25.7200  -20.8780  -12.8000 C.2     1  UNL1       -0.0090
     13 BR         26.3920  -17.8190  -15.6510 Br      1  UNL1       -0.0500
     14  C         27.0790  -18.4030  -12.9840 C.2     1  UNL1        0.0200
     15  C         27.1210  -19.1230  -11.8010 C.2     1  UNL1        0.0020
     16  C         26.4530  -20.3430  -11.7120 C.2     1  UNL1        0.0130
     17  C         22.4420  -23.2070   -8.8340 C.2     1  UNL1       -0.0400
     18  C         21.4520  -24.1680   -9.0790 C.2     1  UNL1        0.0100
     19  C         20.1700  -24.0230   -8.5400 C.2     1  UNL1        0.0160
     20  C         19.8510  -22.9170   -7.7390 C.2     1  UNL1        0.0170
     21  C         20.8480  -21.9640   -7.4900 C.2     1  UNL1        0.0160
     22  C         22.1320  -22.1060   -8.0280 C.2     1  UNL1        0.0100
     23  C         18.5210  -22.7370   -7.1590 C.2     1  UNL1        0.1820
     24  N         17.3590  -22.6220   -7.7790 N.2     1  UNL1       -0.2010
     25  C         16.4650  -22.4770   -6.7590 C.2     1  UNL1        0.1860
     26  N         15.1270  -22.3220   -6.8750 N.2     1  UNL1       -0.2390
     27  C         17.1230  -22.5090   -5.5410 C.2     1  UNL1        0.1250
     28  C         14.4890  -22.2030   -5.6870 C.2     1  UNL1        0.1190
     29  C         15.0920  -22.2270   -4.4270 C.3     1  UNL1        0.0220
     30  C         16.4750  -22.3870   -4.3230 C.2     1  UNL1        0.0430
     31  O         18.4510  -22.6760   -5.7860 O.2     1  UNL1       -0.2870
@<TRIPOS>BOND
     1    13    11    1
     2     9     8    2
     3     9    10    1
     4     8     7    1
     5    11    10    2
     6    11    14    1
     7    10    12    1
     8     7     6    2
     9    14    15    2
    10    12     6    1
    11    12    16    2
    12     6     3    1
    13    15    16    1
    14     3     4    2
    15     3     2   am
    16     5     2    1
    17     2     1    1
    18     1    17    1
    19    18    17    2
    20    18    19    1
    21    17    22    1
    22    19    20    2
    23    22    21    2
    24    24    23    2
    25    24    25    2
    26    20    21    1
    27    20    23    1
    28    23    31    1
    29    26    25    1
    30    26    28    2
    31    25    27    1
    32    31    27    1
    33    28    29    1
    34    27    30    2
    35    29    30    1
