@<TRIPOS>MOLECULE
22439_out_ligand_01.pdbqt
 27 30 0 0 0
SMALL
GASTEIGER

@<TRIPOS>ATOM
      1  C         22.3780  -23.3990   -8.7260 C.2     1  UNL1       -0.0400
      2  C         21.3540  -24.3390   -8.8960 C.2     1  UNL1        0.0100
      3  C         20.0830  -24.1070   -8.3650 C.2     1  UNL1        0.0160
      4  C         19.8080  -22.9400   -7.6380 C.2     1  UNL1        0.0170
      5  C         20.8410  -22.0060   -7.4600 C.2     1  UNL1        0.0160
      6  C         22.1130  -22.2340   -7.9970 C.2     1  UNL1        0.0100
      7  C         23.7540  -23.6700   -9.2770 C.3     1  UNL1        0.1610
      8  N         23.8340  -23.2520  -10.6580 N.am    1  UNL1       -0.3530
      9  C         24.2850  -22.0050  -11.0200 C.2     1  UNL1        0.2530
     10  O         24.7150  -21.1770  -10.2250 O.2     1  UNL1       -0.2680
     11  H         23.4020  -23.8440  -11.3550 H       1  UNL1        0.1630
     12  C         24.1580  -21.6470  -12.4570 C.2     1  UNL1        0.0490
     13  C         25.3580  -21.5970  -13.1870 C.2     1  UNL1        0.0180
     14  C         25.3560  -21.2580  -14.5420 C.2     1  UNL1        0.0010
     15  C         24.1540  -20.9740  -15.1820 C.2     1  UNL1        0.0010
     16  C         22.9540  -21.0380  -14.4700 C.2     1  UNL1        0.0200
     17  C         22.9480  -21.3790  -13.1110 C.2     1  UNL1        0.0260
     18 BR         21.2470  -21.5060  -12.2760 Br      1  UNL1       -0.0500
     19  C         18.4710  -22.7320   -7.0870 C.2     1  UNL1        0.1820
     20  N         17.3210  -22.6180   -7.7320 N.2     1  UNL1       -0.2010
     21  C         16.4090  -22.4650   -6.7300 C.2     1  UNL1        0.1860
     22  N         15.0720  -22.3090   -6.8750 N.2     1  UNL1       -0.2390
     23  C         17.0400  -22.4950   -5.4980 C.2     1  UNL1        0.1250
     24  C         14.4090  -22.1870   -5.7000 C.2     1  UNL1        0.1190
     25  C         14.9850  -22.2160   -4.4280 C.3     1  UNL1        0.0220
     26  C         16.3670  -22.3730   -4.2940 C.2     1  UNL1        0.0430
     27  O         18.3740  -22.6620   -5.7160 O.2     1  UNL1       -0.2870
@<TRIPOS>BOND
     1    15    14    2
     2    15    16    1
     3    14    13    1
     4    16    17    2
     5    13    12    2
     6    17    12    1
     7    17    18    1
     8    12     9    1
     9    11     8    1
    10     9     8   am
    11     9    10    2
    12     8     7    1
    13     7     1    1
    14     2     1    2
    15     2     3    1
    16     1     6    1
    17     3     4    2
    18     6     5    2
    19    20    19    2
    20    20    21    2
    21     4     5    1
    22     4    19    1
    23    19    27    1
    24    22    21    1
    25    22    24    2
    26    21    23    1
    27    27    23    1
    28    24    25    1
    29    23    26    2
    30    25    26    1
