@<TRIPOS>MOLECULE
22433_out_ligand_01.pdbqt
 32 35 0 0 0
SMALL
GASTEIGER

@<TRIPOS>ATOM
      1  C         22.0610  -21.5990  -12.5560 C.2     1  UNL1        0.0320
      2  C         22.5570  -22.3340  -11.4770 C.2     1  UNL1        0.0190
      3  C         21.7350  -22.6270  -10.3820 C.2     1  UNL1        0.0300
      4  C         20.4150  -22.1740  -10.3470 C.2     1  UNL1        0.0350
      5  C         19.9280  -21.4200  -11.4240 C.2     1  UNL1        0.0300
      6  C         20.7430  -21.1290  -12.5220 C.2     1  UNL1        0.0190
      7  N         19.5260  -22.4240   -9.2830 N.am    1  UNL1       -0.3230
      8  C         19.4020  -23.5870   -8.5460 C.2     1  UNL1        0.2570
      9  O         20.0620  -24.6130   -8.6440 O.2     1  UNL1       -0.2670
     10  H         18.9200  -21.6570   -9.0150 H       1  UNL1        0.1690
     11  C         18.3690  -23.5120   -7.4850 C.2     1  UNL1        0.0430
     12  C         17.3090  -24.4230   -7.5910 C.2     1  UNL1        0.0180
     13  C         16.3310  -24.4640   -6.6040 C.2     1  UNL1        0.0020
     14  C         16.4110  -23.5960   -5.5150 C.2     1  UNL1        0.0120
     15  C         17.4550  -22.6610   -5.4040 C.2     1  UNL1       -0.0250
     16  C         17.5040  -21.7840   -4.3070 C.2     1  UNL1        0.0120
     17  C         18.4540  -22.5940   -6.4060 C.2     1  UNL1       -0.0100
     18  C         18.5160  -20.8340   -4.1920 C.2     1  UNL1        0.0010
     19  C         19.4900  -20.7380   -5.1780 C.2     1  UNL1        0.0010
     20  C         19.4580  -21.6040   -6.2730 C.2     1  UNL1        0.0130
     21  C         22.9660  -21.3080  -13.7040 C.2     1  UNL1        0.2560
     22  N         24.0450  -22.1590  -13.8080 N.am    1  UNL1       -0.3190
     23  H         24.2110  -22.7990  -13.0440 H       1  UNL1        0.1690
     24  O         22.7080  -20.3450  -14.4130 O.2     1  UNL1       -0.2670
     25  C         25.0140  -22.1630  -14.7990 C.ar    1  UNL1        0.0850
     26  C         26.2350  -21.5400  -14.6150 C.ar    1  UNL1        0.0520
     27  N         26.9320  -21.7340  -15.7720 N.ar    1  UNL1       -0.2800
     28  C         26.8120  -20.7790  -13.4830 C.3     1  UNL1        0.0720
     29  N         26.2720  -22.4490  -16.6870 N.ar    1  UNL1       -0.1770
     30  H         27.8660  -21.4120  -16.0060 H       1  UNL1        0.1890
     31  C         25.0930  -22.7230  -16.1080 C.ar    1  UNL1        0.0790
     32  C         24.1170  -23.5400  -16.8730 C.3     1  UNL1        0.0750
@<TRIPOS>BOND
     1    32    31    1
     2    29    31   ar
     3    29    27   ar
     4    31    25   ar
     5    30    27    1
     6    27    26   ar
     7    25    26   ar
     8    25    22    1
     9    26    28    1
    10    24    21    2
    11    22    21   am
    12    22    23    1
    13    21     1    1
    14     1     6    2
    15     1     2    1
    16     6     5    1
    17     2     3    2
    18     5     4    2
    19     3     4    1
    20     4     7    1
    21     7    10    1
    22     7     8   am
    23     9     8    2
    24     8    11    1
    25    12    11    2
    26    12    13    1
    27    11    17    1
    28    13    14    2
    29    17    20    1
    30    17    15    2
    31    20    19    2
    32    14    15    1
    33    15    16    1
    34    19    18    1
    35    16    18    2
