@<TRIPOS>MOLECULE
22442_out_ligand_01.pdbqt
 27 30 0 0 0
SMALL
GASTEIGER

@<TRIPOS>ATOM
      1  C         17.7020  -22.2940  -10.2700 C.2     1  UNL1       -0.0400
      2  C         17.9520  -21.3870  -11.3090 C.2     1  UNL1        0.0100
      3  C         19.2380  -21.2520  -11.8430 C.2     1  UNL1        0.0160
      4  C         20.3010  -22.0250  -11.3540 C.2     1  UNL1        0.0170
      5  C         20.0430  -22.9370  -10.3200 C.2     1  UNL1        0.0160
      6  C         18.7580  -23.0740   -9.7850 C.2     1  UNL1        0.0100
      7  C         16.3080  -22.4490   -9.7180 C.3     1  UNL1        0.1610
      8  N         16.3350  -22.5300   -8.2770 N.am    1  UNL1       -0.3530
      9  C         16.0230  -23.6880   -7.6020 C.2     1  UNL1        0.2550
     10  O         15.6030  -24.6950   -8.1660 O.2     1  UNL1       -0.2680
     11  H         16.7770  -21.7680   -7.7760 H       1  UNL1        0.1630
     12  C         16.2180  -23.6960   -6.1230 C.2     1  UNL1        0.0700
     13  C         15.0790  -23.7090   -5.3030 C.2     1  UNL1        0.0200
     14  C         15.2050  -23.7170   -3.9100 C.2     1  UNL1        0.0010
     15  C         16.4700  -23.7130   -3.3240 C.2     1  UNL1        0.0030
     16  C         17.6070  -23.7010   -4.1290 C.2     1  UNL1        0.0430
     17  C         17.4770  -23.6920   -5.5190 C.2     1  UNL1        0.1320
     18  F         18.6000  -23.6830   -6.2510 F       1  UNL1       -0.2050
     19  C         21.6560  -21.9090  -11.8910 C.2     1  UNL1        0.1820
     20  N         22.7980  -22.2830  -11.3380 N.2     1  UNL1       -0.2010
     21  C         23.7310  -21.9380  -12.2710 C.2     1  UNL1        0.1860
     22  N         25.0690  -22.1160  -12.1770 N.2     1  UNL1       -0.2390
     23  C         23.1180  -21.3580  -13.3690 C.2     1  UNL1        0.1250
     24  C         25.7530  -21.6740  -13.2590 C.2     1  UNL1        0.1190
     25  C         25.1960  -21.0820  -14.3950 C.3     1  UNL1        0.0220
     26  C         23.8130  -20.9050  -14.4780 C.2     1  UNL1        0.0430
     27  O         21.7780  -21.3340  -13.1360 O.2     1  UNL1       -0.2870
@<TRIPOS>BOND
     1    26    25    1
     2    26    23    2
     3    25    24    1
     4    23    27    1
     5    23    21    1
     6    24    22    2
     7    27    19    1
     8    21    22    1
     9    21    20    2
    10    19     4    1
    11    19    20    2
    12     3     4    2
    13     3     2    1
    14     4     5    1
    15     2     1    2
    16     5     6    2
    17     1     6    1
    18     1     7    1
    19     7     8    1
    20     8    11    1
    21     8     9   am
    22    10     9    2
    23     9    12    1
    24    18    17    1
    25    12    17    2
    26    12    13    1
    27    17    16    1
    28    13    14    2
    29    16    15    2
    30    14    15    1
