@<TRIPOS>MOLECULE
22448_out_ligand_01.pdbqt
 34 36 0 0 0
SMALL
GASTEIGER

@<TRIPOS>ATOM
      1  C         21.1420  -22.8200  -10.3100 C.2     1  UNL1        0.0340
      2  C         20.0140  -22.0670  -10.6680 C.2     1  UNL1        0.0310
      3  C         18.7860  -22.2740  -10.0330 C.2     1  UNL1        0.0270
      4  C         18.6870  -23.2370   -9.0280 C.2     1  UNL1        0.0800
      5  C         19.7950  -24.0100   -8.6770 C.2     1  UNL1        0.0270
      6  C         21.0210  -23.7950   -9.3160 C.2     1  UNL1        0.0310
      7  N         22.3380  -22.5460  -10.9970 N.am    1  UNL1       -0.3250
      8  C         23.4070  -21.7750  -10.5750 C.2     1  UNL1        0.2510
      9  O         23.4950  -21.1640   -9.5130 O.2     1  UNL1       -0.2700
     10  H         22.4010  -22.8720  -11.9580 H       1  UNL1        0.1690
     11  C         24.5700  -21.7680  -11.5870 C.3     1  UNL1        0.2200
     12  C         25.8760  -21.3660  -10.8830 C.3     1  UNL1        0.0380
     13  C         26.4010  -20.0100  -11.3250 C.3     1  UNL1        0.0080
     14  O         24.7960  -23.0770  -12.1280 O.2     1  UNL1       -0.3370
     15  C         24.8010  -23.2250  -13.4880 C.2     1  UNL1        0.0700
     16  C         24.4380  -22.0750  -14.1950 C.2     1  UNL1        0.0370
     17  C         24.4120  -22.0740  -15.5910 C.2     1  UNL1        0.0090
     18  C         24.7650  -23.2240  -16.3030 C.2     1  UNL1       -0.0620
     19  C         24.7070  -23.2380  -17.8030 C.3     1  UNL1        0.0480
     20  C         25.1180  -24.3770  -15.5950 C.2     1  UNL1        0.0090
     21  C         25.1430  -24.3770  -14.1950 C.2     1  UNL1        0.0370
     22  S         17.1250  -23.5300   -8.2410 S.O2    1  UNL1        0.2630
     23  O         16.1190  -23.6780   -9.2710 O.2     1  UNL1       -0.2000
     24  O         17.3300  -24.5730   -7.2550 O.2     1  UNL1       -0.2000
     25  N         16.8660  -22.1150   -7.3610 N.pl3   1  UNL1       -0.2800
     26  H         17.1880  -21.2850   -7.8550 H       1  UNL1        0.1790
     27  C         16.9960  -22.1320   -5.9420 C.2     1  UNL1        0.0540
     28  C         18.2170  -21.7870   -5.3300 C.2     1  UNL1       -0.0340
     29  C         19.4430  -21.3810   -6.1020 C.3     1  UNL1        0.0500
     30  C         18.3220  -21.8610   -3.9320 C.2     1  UNL1        0.0090
     31  C         17.2280  -22.2270   -3.1530 C.2     1  UNL1        0.0010
     32  C         16.0080  -22.5120   -3.7620 C.2     1  UNL1        0.0090
     33  C         15.8700  -22.4470   -5.1570 C.2     1  UNL1       -0.0340
     34  C         14.5130  -22.7330   -5.7390 C.3     1  UNL1        0.0500
@<TRIPOS>BOND
     1    19    18    1
     2    18    20    2
     3    18    17    1
     4    20    21    1
     5    17    16    2
     6    21    15    2
     7    16    15    1
     8    15    14    1
     9    14    11    1
    10    10     7    1
    11    11    12    1
    12    11     8    1
    13    13    12    1
    14     7     8   am
    15     7     1    1
    16     2     1    2
    17     2     3    1
    18     8     9    2
    19     1     6    1
    20     3     4    2
    21     6     5    2
    22    23    22    2
    23     4     5    1
    24     4    22    1
    25    22    25    1
    26    22    24    2
    27    26    25    1
    28    25    27    1
    29    29    28    1
    30    27    28    2
    31    27    33    1
    32    34    33    1
    33    28    30    1
    34    33    32    2
    35    30    31    2
    36    32    31    1
