@<TRIPOS>MOLECULE
22454_out_ligand_01.pdbqt
 36 39 0 0 0
SMALL
GASTEIGER

@<TRIPOS>ATOM
      1  C         20.7710  -22.2660  -10.9820 C.2     1  UNL1        0.0340
      2  C         20.6050  -23.2990  -10.0480 C.2     1  UNL1        0.0310
      3  C         19.3610  -23.5390   -9.4600 C.2     1  UNL1        0.0270
      4  C         18.2700  -22.7410   -9.8130 C.2     1  UNL1        0.0800
      5  C         18.4240  -21.6960  -10.7250 C.2     1  UNL1        0.0270
      6  C         19.6740  -21.4650  -11.3100 C.2     1  UNL1        0.0310
      7  N         22.0560  -22.0940  -11.5230 N.am    1  UNL1       -0.3250
      8  C         23.1960  -21.6280  -10.8890 C.2     1  UNL1        0.2510
      9  O         23.2840  -21.2510   -9.7240 O.2     1  UNL1       -0.2700
     10  H         22.1600  -22.2540  -12.5210 H       1  UNL1        0.1690
     11  C         24.4340  -21.6620  -11.8040 C.3     1  UNL1        0.2170
     12  C         25.6490  -22.0390  -10.9600 C.3     1  UNL1        0.0500
     13  O         24.3210  -22.6510  -12.8290 O.2     1  UNL1       -0.3360
     14  C         24.6940  -22.3140  -14.1050 C.2     1  UNL1        0.0750
     15  C         24.2930  -21.1580  -14.7800 C.2     1  UNL1        0.0380
     16  C         24.7270  -20.9140  -16.0880 C.2     1  UNL1        0.0090
     17  C         25.5670  -21.8200  -16.7400 C.2     1  UNL1       -0.0610
     18  C         26.0110  -21.5720  -18.1520 C.3     1  UNL1        0.0480
     19  C         25.9470  -22.9920  -16.0740 C.2     1  UNL1        0.0160
     20  C         25.5220  -23.2440  -14.7590 C.2     1  UNL1       -0.0280
     21  C         25.9550  -24.5100  -14.0720 C.3     1  UNL1        0.0510
     22  S         16.6820  -23.0350   -9.0810 S.O2    1  UNL1        0.2630
     23  O         15.9400  -23.8830   -9.9920 O.2     1  UNL1       -0.2000
     24  O         16.1380  -21.7750   -8.6270 O.2     1  UNL1       -0.2000
     25  N         17.0660  -24.0050   -7.7530 N.pl3   1  UNL1       -0.2800
     26  H         16.9090  -24.9910   -7.9500 H       1  UNL1        0.1790
     27  C         16.7280  -23.5330   -6.4480 C.2     1  UNL1        0.0530
     28  C         15.5830  -24.0650   -5.8470 C.2     1  UNL1        0.0310
     29  C         15.2030  -23.6490   -4.5760 C.2     1  UNL1        0.0030
     30  C         15.9680  -22.6980   -3.9010 C.2     1  UNL1        0.0120
     31  C         17.1280  -22.1580   -4.4810 C.2     1  UNL1       -0.0240
     32  C         17.8900  -21.2060   -3.7860 C.2     1  UNL1        0.0120
     33  C         17.5310  -22.5790   -5.7730 C.2     1  UNL1        0.0010
     34  C         19.0510  -20.6690   -4.3420 C.2     1  UNL1        0.0010
     35  C         19.4660  -21.0810   -5.6030 C.2     1  UNL1        0.0010
     36  C         18.7160  -22.0210   -6.3110 C.2     1  UNL1        0.0140
@<TRIPOS>BOND
     1    18    17    1
     2    17    16    2
     3    17    19    1
     4    16    15    1
     5    19    20    2
     6    15    14    2
     7    20    14    1
     8    20    21    1
     9    14    13    1
    10    13    11    1
    11    10     7    1
    12    11    12    1
    13    11     8    1
    14     7     1    1
    15     7     8   am
    16     6     1    2
    17     6     5    1
    18     1     2    1
    19     8     9    2
    20     5     4    2
    21     2     3    2
    22    23    22    2
    23     4     3    1
    24     4    22    1
    25    22    24    2
    26    22    25    1
    27    26    25    1
    28    25    27    1
    29    27    28    2
    30    27    33    1
    31    36    33    1
    32    36    35    2
    33    28    29    1
    34    33    31    2
    35    35    34    1
    36    29    30    2
    37    31    30    1
    38    31    32    1
    39    34    32    2
