@<TRIPOS>MOLECULE
22450_out_ligand_01.pdbqt
 36 38 0 0 0
SMALL
GASTEIGER

@<TRIPOS>ATOM
      1  C         22.6440  -23.2050   -8.8780 C.2     1  UNL1        0.0340
      2  C         22.1140  -22.1340   -8.1440 C.2     1  UNL1        0.0310
      3  C         20.8120  -22.1890   -7.6380 C.2     1  UNL1        0.0270
      4  C         20.0370  -23.3260   -7.8650 C.2     1  UNL1        0.0800
      5  C         20.5440  -24.3930   -8.6070 C.2     1  UNL1        0.0270
      6  C         21.8490  -24.3300   -9.1070 C.2     1  UNL1        0.0310
      7  N         23.9650  -23.0630   -9.3470 N.am    1  UNL1       -0.3250
      8  C         24.4120  -23.0510  -10.6620 C.2     1  UNL1        0.2510
      9  O         23.7090  -23.1870  -11.6580 O.2     1  UNL1       -0.2700
     10  H         24.6770  -22.9230   -8.6410 H       1  UNL1        0.1690
     11  C         25.9470  -22.8980  -10.7470 C.3     1  UNL1        0.2170
     12  C         26.6510  -24.1110  -10.1500 C.3     1  UNL1        0.0500
     13  O         26.3280  -22.8060  -12.1280 O.2     1  UNL1       -0.3340
     14  C         26.4580  -21.5380  -12.6270 C.2     1  UNL1        0.1030
     15  C         26.8500  -20.5680  -11.7000 C.2     1  UNL1        0.0400
     16  C         27.0230  -19.2420  -12.0990 C.2     1  UNL1        0.0030
     17  C         26.7910  -18.8770  -13.4240 C.2     1  UNL1        0.0030
     18  C         26.3600  -19.8320  -14.3440 C.2     1  UNL1        0.0390
     19  C         26.1630  -21.1550  -13.9390 C.2     1  UNL1        0.1010
     20  O         25.7150  -22.0730  -14.8500 O.2     1  UNL1       -0.3530
     21  C         24.3060  -21.9330  -15.0460 C.3     1  UNL1        0.2100
     22  S         18.3800  -23.3930   -7.2350 S.O2    1  UNL1        0.2630
     23  O         18.0670  -22.1350   -6.5910 O.2     1  UNL1       -0.2000
     24  O         18.2340  -24.6480   -6.5280 O.2     1  UNL1       -0.2000
     25  N         17.4590  -23.5480   -8.6460 N.pl3   1  UNL1       -0.2810
     26  H         16.4970  -23.8010   -8.4210 H       1  UNL1        0.1790
     27  C         17.6610  -22.5970   -9.6820 C.2     1  UNL1        0.0430
     28  C         16.6020  -21.8040  -10.1230 C.2     1  UNL1        0.0300
     29  C         16.8170  -20.8580  -11.1240 C.2     1  UNL1        0.0030
     30  C         18.0890  -20.7030  -11.6780 C.2     1  UNL1        0.0160
     31  C         19.1630  -21.4870  -11.2280 C.2     1  UNL1        0.0500
     32  C         18.9340  -22.4410  -10.2240 C.2     1  UNL1        0.0460
     33  C         20.5320  -21.3400  -11.8430 C.3     1  UNL1        0.4170
     34  F         21.4320  -20.7410  -11.0150 F       1  UNL1       -0.1660
     35  F         21.0760  -22.5430  -12.1760 F       1  UNL1       -0.1660
     36  F         20.5300  -20.6020  -12.9870 F       1  UNL1       -0.1660
@<TRIPOS>BOND
     1    21    20    1
     2    20    19    1
     3    18    19    1
     4    18    17    2
     5    19    14    2
     6    17    16    1
     7    36    33    1
     8    14    13    1
     9    14    15    1
    10    35    33    1
    11    13    11    1
    12    16    15    2
    13    33    31    1
    14    33    34    1
    15    30    31    2
    16    30    29    1
    17     9     8    2
    18    31    32    1
    19    29    28    2
    20    11     8    1
    21    11    12    1
    22     8     7   am
    23    32    27    2
    24    28    27    1
    25    27    25    1
    26     7     1    1
    27     7    10    1
    28     6     1    2
    29     6     5    1
    30     1     2    1
    31    25    26    1
    32    25    22    1
    33     5     4    2
    34     2     3    2
    35     4     3    1
    36     4    22    1
    37    22    23    2
    38    22    24    2
