@<TRIPOS>MOLECULE
22478_out_ligand_01.pdbqt
 34 36 0 0 0
SMALL
GASTEIGER

@<TRIPOS>ATOM
      1  C         21.0500  -22.9180  -10.2190 C.2     1  UNL1        0.0340
      2  C         19.9450  -22.1790  -10.6630 C.2     1  UNL1        0.0310
      3  C         18.6910  -22.3410  -10.0670 C.2     1  UNL1        0.0270
      4  C         18.5440  -23.2440   -9.0130 C.2     1  UNL1        0.0800
      5  C         19.6300  -24.0070   -8.5790 C.2     1  UNL1        0.0270
      6  C         20.8820  -23.8370   -9.1790 C.2     1  UNL1        0.0310
      7  N         22.2750  -22.6900  -10.8710 N.am    1  UNL1       -0.3250
      8  C         23.2900  -21.8230  -10.5000 C.2     1  UNL1        0.2510
      9  O         23.2970  -21.0760   -9.5250 O.2     1  UNL1       -0.2700
     10  H         22.4080  -23.1400  -11.7720 H       1  UNL1        0.1690
     11  C         24.5070  -21.9000  -11.4410 C.3     1  UNL1        0.2170
     12  C         25.5640  -22.7850  -10.7860 C.3     1  UNL1        0.0500
     13  O         24.1970  -22.4960  -12.7030 O.2     1  UNL1       -0.3370
     14  C         24.6040  -21.8550  -13.8410 C.2     1  UNL1        0.0700
     15  C         25.1050  -20.5600  -13.9240 C.2     1  UNL1        0.0370
     16  C         25.4690  -20.0290  -15.1650 C.2     1  UNL1        0.0100
     17  C         25.3400  -20.7810  -16.3420 C.2     1  UNL1       -0.0560
     18  C         25.7450  -20.1720  -17.6550 C.3     1  UNL1        0.0490
     19  C         24.8230  -22.0880  -16.2650 C.2     1  UNL1       -0.0530
     20  C         24.4650  -22.6080  -15.0100 C.2     1  UNL1        0.0440
     21  C         24.6650  -22.9450  -17.4900 C.3     1  UNL1        0.0490
     22  S         16.9520  -23.4800   -8.2660 S.O2    1  UNL1        0.2630
     23  O         15.9660  -23.4070   -9.3270 O.2     1  UNL1       -0.2000
     24  O         17.0200  -24.6400   -7.4050 O.2     1  UNL1       -0.2000
     25  N         16.7400  -22.0760   -7.3550 N.pl3   1  UNL1       -0.2800
     26  H         16.0380  -21.4550   -7.7510 H       1  UNL1        0.1790
     27  C         16.8510  -22.1300   -5.9350 C.2     1  UNL1        0.0540
     28  C         15.7320  -22.4430   -5.1380 C.2     1  UNL1       -0.0340
     29  C         14.3650  -22.7200   -5.7020 C.3     1  UNL1        0.0500
     30  C         15.8940  -22.5380   -3.7470 C.2     1  UNL1        0.0090
     31  C         17.1270  -22.2890   -3.1530 C.2     1  UNL1        0.0010
     32  C         18.2140  -21.9260   -3.9410 C.2     1  UNL1        0.0090
     33  C         18.0870  -21.8210   -5.3360 C.2     1  UNL1       -0.0340
     34  C         19.2980  -21.3850   -6.1140 C.3     1  UNL1        0.0500
@<TRIPOS>BOND
     1    18    17    1
     2    21    19    1
     3    17    19    2
     4    17    16    1
     5    19    20    1
     6    16    15    2
     7    20    14    2
     8    15    14    1
     9    14    13    1
    10    13    11    1
    11    10     7    1
    12    11    12    1
    13    11     8    1
    14     7     8   am
    15     7     1    1
    16     2     1    2
    17     2     3    1
    18     8     9    2
    19     1     6    1
    20     3     4    2
    21    23    22    2
    22     6     5    2
    23     4     5    1
    24     4    22    1
    25    22    24    2
    26    22    25    1
    27    26    25    1
    28    25    27    1
    29    34    33    1
    30    27    33    2
    31    27    28    1
    32    29    28    1
    33    33    32    1
    34    28    30    2
    35    32    31    2
    36    30    31    1
