@<TRIPOS>MOLECULE
22486_out_ligand_01.pdbqt
 35 38 0 0 0
SMALL
GASTEIGER

@<TRIPOS>ATOM
      1  C         21.0130  -22.5880  -10.7090 C.2     1  UNL1        0.0340
      2  C         20.7340  -23.5410   -9.7190 C.2     1  UNL1        0.0310
      3  C         19.4420  -23.6780   -9.2040 C.2     1  UNL1        0.0270
      4  C         18.4220  -22.8540   -9.6830 C.2     1  UNL1        0.0800
      5  C         18.6790  -21.9200  -10.6880 C.2     1  UNL1        0.0270
      6  C         19.9760  -21.7850  -11.1930 C.2     1  UNL1        0.0310
      7  S         16.7760  -23.0320   -9.0410 S.O2    1  UNL1        0.2630
      8  O         16.0210  -23.8040  -10.0070 O.2     1  UNL1       -0.2000
      9  O         16.3080  -21.7400   -8.5940 O.2     1  UNL1       -0.2000
     10  N         17.0070  -24.0560   -7.7170 N.pl3   1  UNL1       -0.2800
     11  H         16.7990  -25.0240   -7.9560 H       1  UNL1        0.1790
     12  C         16.5870  -23.5990   -6.4290 C.2     1  UNL1        0.0530
     13  C         15.3900  -24.1130   -5.9230 C.2     1  UNL1        0.0310
     14  C         14.9350  -23.7210   -4.6710 C.2     1  UNL1        0.0030
     15  C         15.6770  -22.8110   -3.9180 C.2     1  UNL1        0.0120
     16  C         16.8830  -22.2840   -4.4050 C.2     1  UNL1       -0.0240
     17  C         17.6190  -21.3680   -3.6340 C.2     1  UNL1        0.0120
     18  C         17.3640  -22.6810   -5.6770 C.2     1  UNL1        0.0010
     19  C         18.8230  -20.8420   -4.1000 C.2     1  UNL1        0.0010
     20  C         19.3110  -21.2270   -5.3420 C.2     1  UNL1        0.0010
     21  C         18.5910  -22.1350   -6.1210 C.2     1  UNL1        0.0140
     22  N         22.3400  -22.5140  -11.1690 N.am    1  UNL1       -0.3250
     23  C         23.3970  -21.8130  -10.6120 C.2     1  UNL1        0.2510
     24  O         23.3670  -21.1400   -9.5840 O.2     1  UNL1       -0.2700
     25  H         22.5930  -23.1190  -11.9440 H       1  UNL1        0.1690
     26  C         24.6880  -21.9200  -11.4480 C.3     1  UNL1        0.2200
     27  C         25.7960  -21.0670  -10.8100 C.3     1  UNL1        0.0380
     28  C         26.3300  -19.9880  -11.7380 C.3     1  UNL1        0.0080
     29  O         24.4970  -21.4000  -12.7700 O.2     1  UNL1       -0.3370
     30  C         24.6420  -22.2500  -13.8310 C.2     1  UNL1        0.0700
     31  C         25.1260  -23.5180  -13.4940 C.2     1  UNL1        0.0370
     32  C         25.3390  -24.4840  -14.4790 C.2     1  UNL1        0.0030
     33  C         25.0720  -24.1860  -15.8120 C.2     1  UNL1        0.0000
     34  C         24.5930  -22.9230  -16.1560 C.2     1  UNL1        0.0030
     35  C         24.3790  -21.9540  -15.1690 C.2     1  UNL1        0.0370
@<TRIPOS>BOND
     1    34    33    2
     2    34    35    1
     3    33    32    1
     4    35    30    2
     5    32    31    2
     6    30    31    1
     7    30    29    1
     8    29    26    1
     9    25    22    1
    10    28    27    1
    11    26    27    1
    12    26    23    1
    13     6     1    2
    14     6     5    1
    15    22     1    1
    16    22    23   am
    17     1     2    1
    18     5     4    2
    19    23    24    2
    20     8     7    2
    21     2     3    2
    22     4     3    1
    23     4     7    1
    24     7     9    2
    25     7    10    1
    26    11    10    1
    27    10    12    1
    28    12    13    2
    29    12    18    1
    30    21    18    1
    31    21    20    2
    32    13    14    1
    33    18    16    2
    34    20    19    1
    35    14    15    2
    36    16    15    1
    37    16    17    1
    38    19    17    2
