@<TRIPOS>MOLECULE
22488_out_ligand_01.pdbqt
 43 47 0 0 0
SMALL
GASTEIGER

@<TRIPOS>ATOM
      1  O         22.0550  -21.7610  -11.4100 O.2     1  UNL1       -0.2720
      2  C         22.6200  -22.8050  -11.0940 C.2     1  UNL1        0.2360
      3  N         22.3120  -23.6080  -10.0090 N.am    1  UNL1       -0.3260
      4  H         22.9460  -24.3920   -9.8760 H       1  UNL1        0.1690
      5  C         21.3420  -23.3950   -9.0160 C.2     1  UNL1        0.0340
      6  C         21.3150  -22.2780   -8.1780 C.2     1  UNL1        0.0310
      7  C         20.3270  -22.1480   -7.1950 C.2     1  UNL1        0.0270
      8  C         19.3620  -23.1470   -7.0510 C.2     1  UNL1        0.0800
      9  C         19.3840  -24.2770   -7.8720 C.2     1  UNL1        0.0270
     10  C         20.3670  -24.3920   -8.8580 C.2     1  UNL1        0.0310
     11  S         18.1280  -23.0140   -5.7810 S.O2    1  UNL1        0.2630
     12  O         18.6450  -22.1410   -4.7490 O.2     1  UNL1       -0.2000
     13  O         17.6530  -24.3420   -5.4670 O.2     1  UNL1       -0.2000
     14  N         16.9080  -22.1470   -6.5630 N.pl3   1  UNL1       -0.2810
     15  H         16.1320  -21.9180   -5.9420 H       1  UNL1        0.1790
     16  C         16.6400  -22.4350   -7.9230 C.2     1  UNL1        0.0430
     17  C         15.7840  -23.4770   -8.2740 C.2     1  UNL1        0.0300
     18  C         15.5610  -23.7620   -9.6180 C.2     1  UNL1        0.0030
     19  C         16.1770  -22.9940  -10.6080 C.2     1  UNL1        0.0160
     20  C         17.0210  -21.9260  -10.2630 C.2     1  UNL1        0.0500
     21  C         17.2510  -21.6560   -8.9060 C.2     1  UNL1        0.0460
     22  C         17.6980  -21.1110  -11.3360 C.3     1  UNL1        0.4170
     23  F         19.0110  -20.8640  -11.0640 F       1  UNL1       -0.1660
     24  F         17.1140  -19.8920  -11.5030 F       1  UNL1       -0.1660
     25  F         17.6780  -21.7070  -12.5600 F       1  UNL1       -0.1660
     26  C         23.7830  -23.3420  -11.9250 C.3     1  UNL1        0.2170
     27  N         24.6150  -22.2410  -12.5130 N.pl3   1  UNL1       -0.1630
     28  C         25.1260  -22.3680  -13.8790 C.2     1  UNL1        0.0370
     29  C         24.6830  -23.4010  -14.7270 C.2     1  UNL1        0.0280
     30  C         25.9670  -21.3440  -14.4010 C.2     1  UNL1        0.0010
     31  C         25.1220  -23.4830  -16.0480 C.2     1  UNL1        0.0440
     32  C         25.9930  -22.5260  -16.5350 C.2     1  UNL1        0.1170
     33  F         26.4240  -22.6060  -17.7990 F       1  UNL1       -0.2060
     34  C         26.4130  -21.4720  -15.7330 C.2     1  UNL1        0.0560
     35  C         26.3680  -20.1730  -13.5780 C.2     1  UNL1       -0.0010
     36  C         26.7450  -18.9400  -14.1450 C.2     1  UNL1        0.0140
     37  C         26.3740  -20.2340  -12.1770 C.2     1  UNL1        0.0860
     38  C         27.1210  -17.8470  -13.3520 C.2     1  UNL1        0.0010
     39  C         27.1180  -17.9510  -11.9650 C.2     1  UNL1        0.0020
     40  C         26.7340  -19.1480  -11.3690 C.2     1  UNL1        0.0260
     41  S         25.8160  -21.7130  -11.4060 S.O2    1  UNL1        0.2490
     42  O         25.1350  -21.3420  -10.1840 O.2     1  UNL1       -0.2050
     43  O         26.9060  -22.6630  -11.4090 O.2     1  UNL1       -0.2050
@<TRIPOS>BOND
     1    33    32    1
     2    32    31    2
     3    32    34    1
     4    31    29    1
     5    34    30    2
     6    29    28    2
     7    30    28    1
     8    30    35    1
     9    36    35    2
    10    36    38    1
    11    28    27    1
    12    35    37    1
    13    38    39    2
    14    25    22    1
    15    27    26    1
    16    27    41    1
    17    37    41    1
    18    37    40    2
    19    39    40    1
    20    26     2    1
    21    24    22    1
    22     1     2    2
    23    43    41    2
    24    41    42    2
    25    22    23    1
    26    22    20    1
    27     2     3   am
    28    19    20    2
    29    19    18    1
    30    20    21    1
    31     3     4    1
    32     3     5    1
    33    18    17    2
    34     5    10    2
    35     5     6    1
    36    21    16    2
    37    10     9    1
    38    17    16    1
    39     6     7    2
    40    16    14    1
    41     9     8    2
    42     7     8    1
    43     8    11    1
    44    14    15    1
    45    14    11    1
    46    11    13    2
    47    11    12    2
