@<TRIPOS>MOLECULE
2250_out_ligand_01.pdbqt
 33 37 0 0 0
SMALL
GASTEIGER

@<TRIPOS>ATOM
      1  C         23.1060  -22.8080  -11.4630 C.ar    1  UNL1        0.1220
      2  N         22.7240  -23.5070  -10.4400 N.ar    1  UNL1       -0.2260
      3  C         21.4300  -23.3200  -10.0670 C.ar    1  UNL1        0.1160
      4  S         20.7500  -24.1670   -8.7500 S.2     1  UNL1       -0.0720
      5  C         19.2420  -23.4090   -8.9670 C.ar    1  UNL1        0.0200
      6  C         19.2350  -22.5330  -10.0360 C.ar    1  UNL1       -0.0230
      7  C         20.5140  -22.4770  -10.6650 C.ar    1  UNL1        0.0750
      8  C         20.9660  -21.6940  -11.7920 C.ar    1  UNL1        0.2600
      9  O         20.2670  -20.9040  -12.4190 O.2     1  UNL1       -0.2670
     10  N         22.2870  -21.9090  -12.1240 N.ar    1  UNL1       -0.3100
     11  C         17.9960  -21.7650  -10.3810 C.3     1  UNL1        0.0710
     12  C         16.7530  -22.3510   -9.6650 C.3     1  UNL1        0.2780
     13  N         17.0310  -22.6530   -8.2490 N.3     1  UNL1        0.0970
     14  C         18.0490  -23.7130   -8.1040 C.3     1  UNL1        0.3190
     15  H         22.6030  -21.3740  -12.9200 H       1  UNL1        0.1700
     16  C         24.5000  -22.9350  -11.9970 C.3     1  UNL1        0.2240
     17  S         25.5800  -21.7220  -11.2800 S.O2    1  UNL1        0.1820
     18  O         26.8280  -22.3490  -10.8920 O.2     1  UNL1       -0.2220
     19  O         24.8020  -20.9850  -10.2990 O.2     1  UNL1       -0.2220
     20  C         25.9310  -20.5870  -12.6040 C.2     1  UNL1        0.0590
     21  C         26.8340  -19.5410  -12.3910 C.2     1  UNL1        0.0240
     22  C         27.0690  -18.6240  -13.4160 C.2     1  UNL1        0.0080
     23  C         26.4250  -18.7590  -14.6540 C.2     1  UNL1       -0.0620
     24  C         26.6540  -17.7480  -15.7400 C.3     1  UNL1        0.0480
     25  C         25.5320  -19.8200  -14.8530 C.2     1  UNL1        0.0080
     26  C         25.2930  -20.7440  -13.8350 C.2     1  UNL1        0.0240
     27  C         15.8290  -22.8960   -7.4420 C.3     1  UNL1        0.3110
     28  C         16.0080  -22.9590   -5.9410 C.2     1  UNL1       -0.0300
     29  C         15.1970  -23.7950   -5.1590 C.2     1  UNL1        0.0090
     30  C         15.3610  -23.8540   -3.7730 C.2     1  UNL1        0.0010
     31  C         16.3400  -23.0820   -3.1530 C.2     1  UNL1        0.0000
     32  C         17.1580  -22.2530   -3.9170 C.2     1  UNL1        0.0010
     33  C         16.9960  -22.1930   -5.3020 C.2     1  UNL1        0.0090
@<TRIPOS>BOND
     1    24    23    1
     2    25    23    2
     3    25    26    1
     4    23    22    1
     5    26    20    2
     6    22    21    2
     7    15    10    1
     8    20    21    1
     9    20    17    1
    10     9     8    2
    11    10     8   ar
    12    10     1   ar
    13    16     1    1
    14    16    17    1
    15     8     7   ar
    16     1     2   ar
    17    17    18    2
    18    17    19    2
    19     7     3   ar
    20     7     6   ar
    21     2     3   ar
    22    11     6    1
    23    11    12    1
    24     3     4   ar
    25     6     5   ar
    26    12    13    1
    27     5     4   ar
    28     5    14    1
    29    13    14    1
    30    13    27    1
    31    27    28    1
    32    28    33    2
    33    28    29    1
    34    33    32    1
    35    29    30    2
    36    32    31    2
    37    30    31    1
