@<TRIPOS>MOLECULE
22502_out_ligand_01.pdbqt
 40 44 0 0 0
SMALL
GASTEIGER

@<TRIPOS>ATOM
      1  N         22.7440  -23.6040  -10.4050 N.am    1  UNL1       -0.3260
      2  C         23.7910  -22.7390  -10.1350 C.2     1  UNL1        0.2360
      3  O         23.7600  -21.7650   -9.3880 O.2     1  UNL1       -0.2720
      4  H         22.9530  -24.3140  -11.1020 H       1  UNL1        0.1690
      5  C         21.4330  -23.5660   -9.9000 C.2     1  UNL1        0.0340
      6  C         20.5830  -22.5710  -10.4060 C.2     1  UNL1        0.0310
      7  C         19.2660  -22.4600   -9.9540 C.2     1  UNL1        0.0270
      8  C         18.7950  -23.3490   -8.9870 C.2     1  UNL1        0.0800
      9  C         19.6230  -24.3580   -8.4910 C.2     1  UNL1        0.0270
     10  C         20.9410  -24.4590   -8.9460 C.2     1  UNL1        0.0310
     11  S         17.1170  -23.2270   -8.4210 S.O2    1  UNL1        0.2630
     12  O         16.2360  -23.7380   -9.4490 O.2     1  UNL1       -0.2000
     13  O         16.9360  -21.8940   -7.8860 O.2     1  UNL1       -0.2000
     14  N         17.0980  -24.2660   -7.0860 N.pl3   1  UNL1       -0.2810
     15  H         17.8770  -24.9210   -7.1340 H       1  UNL1        0.1790
     16  C         16.8080  -23.7030   -5.8130 C.2     1  UNL1        0.0430
     17  C         15.5250  -23.8320   -5.2870 C.2     1  UNL1        0.0300
     18  C         15.2160  -23.2470   -4.0600 C.2     1  UNL1        0.0030
     19  C         16.1920  -22.5350   -3.3620 C.2     1  UNL1        0.0070
     20  C         17.4880  -22.4080   -3.8790 C.2     1  UNL1       -0.0600
     21  C         18.5200  -21.5980   -3.1530 C.3     1  UNL1        0.0480
     22  C         17.7860  -22.9890   -5.1200 C.2     1  UNL1        0.0370
     23  C         25.0780  -23.1230  -10.8570 C.3     1  UNL1        0.2170
     24  N         25.0940  -22.5980  -12.2600 N.pl3   1  UNL1       -0.1630
     25  C         25.6590  -21.2750  -12.5230 C.2     1  UNL1        0.0370
     26  C         25.9800  -20.4010  -11.4670 C.2     1  UNL1        0.0280
     27  C         25.7520  -20.8130  -13.8660 C.2     1  UNL1        0.0010
     28  C         26.4750  -19.1210  -11.7170 C.2     1  UNL1        0.0440
     29  C         26.6330  -18.6990  -13.0230 C.2     1  UNL1        0.1170
     30  F         27.1210  -17.4780  -13.2710 F       1  UNL1       -0.2060
     31  C         26.2800  -19.5230  -14.0850 C.2     1  UNL1        0.0560
     32  C         25.3220  -21.6560  -15.0110 C.2     1  UNL1       -0.0010
     33  C         24.9270  -21.1100  -16.2490 C.2     1  UNL1        0.0140
     34  C         25.2720  -23.0520  -14.9100 C.2     1  UNL1        0.0860
     35  C         24.5270  -21.9220  -17.3190 C.2     1  UNL1        0.0010
     36  C         24.5000  -23.3060  -17.1800 C.2     1  UNL1        0.0020
     37  C         24.8650  -23.8780  -15.9670 C.2     1  UNL1        0.0260
     38  S         25.6520  -23.7900  -13.3600 S.O2    1  UNL1        0.2490
     39  O         24.7900  -24.9430  -13.1980 O.2     1  UNL1       -0.2050
     40  O         27.0900  -23.8950  -13.2440 O.2     1  UNL1       -0.2050
@<TRIPOS>BOND
     1    35    36    2
     2    35    33    1
     3    36    37    1
     4    33    32    2
     5    37    34    2
     6    32    34    1
     7    32    27    1
     8    34    38    1
     9    31    27    1
    10    31    29    2
    11    27    25    2
    12    38    40    2
    13    38    39    2
    14    38    24    1
    15    30    29    1
    16    29    28    1
    17    25    24    1
    18    25    26    1
    19    24    23    1
    20    28    26    2
    21     4     1    1
    22    23     2    1
    23     6     7    1
    24     6     5    2
    25     1     2   am
    26     1     5    1
    27     2     3    2
    28     7     8    2
    29     5    10    1
    30    12    11    2
    31     8     9    1
    32     8    11    1
    33    10     9    2
    34    11    13    2
    35    11    14    1
    36    15    14    1
    37    14    16    1
    38    16    17    2
    39    16    22    1
    40    17    18    1
    41    22    20    2
    42    18    19    2
    43    20    19    1
    44    20    21    1
