@<TRIPOS>MOLECULE
2254_out_ligand_01.pdbqt
 32 36 0 0 0
SMALL
GASTEIGER

@<TRIPOS>ATOM
      1  O         18.4420  -20.6410  -12.1270 O.2     1  UNL1       -0.2670
      2  C         18.3780  -21.5080  -11.2630 C.ar    1  UNL1        0.2600
      3  N         17.1910  -21.8720  -10.6740 N.ar    1  UNL1       -0.3100
      4  C         17.0740  -22.8870   -9.7440 C.ar    1  UNL1        0.1210
      5  N         18.0730  -23.5820   -9.2940 N.ar    1  UNL1       -0.2260
      6  C         19.2780  -23.2370   -9.8240 C.ar    1  UNL1        0.1160
      7  S         20.7200  -24.0210   -9.3470 S.2     1  UNL1       -0.0720
      8  C         21.6580  -23.0570  -10.3890 C.ar    1  UNL1        0.0200
      9  C         20.8980  -22.1590  -11.1110 C.ar    1  UNL1       -0.0230
     10  C         19.5160  -22.2590  -10.7710 C.ar    1  UNL1        0.0750
     11  C         21.5510  -21.2190  -12.0770 C.3     1  UNL1        0.0710
     12  C         22.9930  -21.6730  -12.4030 C.3     1  UNL1        0.2780
     13  N         23.7560  -22.0410  -11.1880 N.3     1  UNL1        0.0970
     14  C         23.1470  -23.2180  -10.5160 C.3     1  UNL1        0.3190
     15  H         16.3480  -21.4100  -10.9930 H       1  UNL1        0.1700
     16  C         15.6540  -23.1240   -9.2450 C.3     1  UNL1        0.1710
     17  N         15.6820  -24.1230   -8.1650 N.pl3   1  UNL1       -0.2860
     18  H         16.2320  -24.9410   -8.4360 H       1  UNL1        0.1280
     19  C         16.0470  -23.7190   -6.8730 C.2     1  UNL1        0.0080
     20  C         15.2840  -22.7100   -6.2590 C.2     1  UNL1        0.0260
     21  C         15.6250  -22.2030   -5.0020 C.2     1  UNL1        0.0440
     22  C         16.7550  -22.6850   -4.3580 C.2     1  UNL1        0.1160
     23  F         17.0880  -22.2010   -3.1550 F       1  UNL1       -0.2060
     24  C         17.5500  -23.6520   -4.9540 C.2     1  UNL1        0.0440
     25  C         17.2040  -24.1550   -6.2140 C.2     1  UNL1        0.0260
     26  C         25.1650  -22.3010  -11.5300 C.3     1  UNL1        0.3110
     27  C         25.8560  -21.1230  -12.1820 C.2     1  UNL1       -0.0300
     28  C         26.3490  -20.0650  -11.4020 C.2     1  UNL1        0.0090
     29  C         26.9780  -18.9740  -12.0020 C.2     1  UNL1        0.0010
     30  C         27.1190  -18.9250  -13.3870 C.2     1  UNL1        0.0000
     31  C         26.6310  -19.9680  -14.1730 C.2     1  UNL1        0.0010
     32  C         26.0020  -21.0610  -13.5760 C.2     1  UNL1        0.0090
@<TRIPOS>BOND
     1    31    32    1
     2    31    30    2
     3    32    27    2
     4    30    29    1
     5    12    11    1
     6    12    13    1
     7    27    26    1
     8    27    28    1
     9     1     2    2
    10    11     9    1
    11    29    28    2
    12    26    13    1
    13     2    10   ar
    14     2     3   ar
    15    13    14    1
    16     9    10   ar
    17     9     8   ar
    18    15     3    1
    19    10     6   ar
    20     3     4   ar
    21    14     8    1
    22     8     7   ar
    23     6     7   ar
    24     6     5   ar
    25     4     5   ar
    26     4    16    1
    27    16    17    1
    28    18    17    1
    29    17    19    1
    30    19    20    2
    31    19    25    1
    32    20    21    1
    33    25    24    2
    34    21    22    2
    35    24    22    1
    36    22    23    1
