@<TRIPOS>MOLECULE
225_out_ligand_01.pdbqt
 32 34 0 0 0
SMALL
GASTEIGER

@<TRIPOS>ATOM
      1  C         18.6580  -21.8760  -10.5100 C.2     1  UNL1        0.0330
      2  C         17.4990  -21.3790  -11.1270 C.2     1  UNL1        0.0170
      3  C         16.2360  -21.7280  -10.6370 C.2     1  UNL1        0.0030
      4  C         16.1230  -22.5650   -9.5280 C.2     1  UNL1        0.0250
      5  C         17.2800  -23.0410   -8.9050 C.2     1  UNL1        0.0800
      6  C         18.5480  -22.6970   -9.3830 C.2     1  UNL1        0.0420
      7  C         20.0220  -21.5300  -11.0050 C.2     1  UNL1        0.2560
      8  N         20.9810  -22.5080  -10.8090 N.am    1  UNL1       -0.3230
      9  H         20.7120  -23.3130  -10.2580 H       1  UNL1        0.1690
     10  O         20.1950  -20.4220  -11.4960 O.2     1  UNL1       -0.2670
     11  C         22.3320  -22.4740  -11.2190 C.2     1  UNL1        0.0360
     12  C         23.4000  -22.9010  -10.4260 C.2     1  UNL1        0.0290
     13  C         24.7170  -22.8190  -10.8920 C.2     1  UNL1        0.0040
     14  C         24.9810  -22.3100  -12.1610 C.2     1  UNL1        0.0250
     15  C         23.9160  -21.8920  -12.9590 C.2     1  UNL1        0.0760
     16  C         22.5980  -21.9590  -12.4930 C.2     1  UNL1        0.0540
     17  S         24.2420  -21.2140  -14.5580 S.O2    1  UNL1        0.2390
     18  O         25.4290  -20.3930  -14.4920 O.2     1  UNL1       -0.2060
     19  O         24.0640  -22.2420  -15.5550 O.2     1  UNL1       -0.2060
     20  N         22.9600  -20.1480  -14.7510 N.3     1  UNL1       -0.2250
     21  H         22.3450  -20.4740  -15.4970 H       1  UNL1        0.1360
     22  H         22.4860  -20.0120  -13.8580 H       1  UNL1        0.1360
     23  S         17.1550  -24.1020   -7.4850 S.O2    1  UNL1        0.2600
     24  O         15.9750  -24.9140   -7.6760 O.2     1  UNL1       -0.2000
     25  O         18.4530  -24.6970   -7.2470 O.2     1  UNL1       -0.2000
     26  N         16.8650  -22.9880   -6.2140 N.3     1  UNL1       -0.3070
     27  C         17.5810  -21.6930   -6.3100 C.3     1  UNL1        0.1350
     28  C         18.8470  -21.6150   -5.4650 C.3     1  UNL1        0.0210
     29  C         18.5760  -21.1170   -4.0470 C.3     1  UNL1        0.0020
     30  C         17.8440  -22.1080   -3.1530 C.3     1  UNL1        0.0020
     31  C         16.5410  -22.6520   -3.7350 C.3     1  UNL1        0.0210
     32  C         16.7700  -23.6340   -4.8810 C.3     1  UNL1        0.1350
@<TRIPOS>BOND
     1    19    17    2
     2    21    20    1
     3    20    17    1
     4    20    22    1
     5    17    18    2
     6    17    15    1
     7    15    16    1
     8    15    14    2
     9    16    11    2
    10    14    13    1
    11    10     7    2
    12    11     8    1
    13    11    12    1
    14     2     3    1
    15     2     1    2
    16     7     8   am
    17     7     1    1
    18    13    12    2
    19     8     9    1
    20     3     4    2
    21     1     6    1
    22     4     5    1
    23     6     5    2
    24     5    23    1
    25    24    23    2
    26    23    25    2
    27    23    26    1
    28    27    26    1
    29    27    28    1
    30    26    32    1
    31    28    29    1
    32    32    31    1
    33    29    30    1
    34    31    30    1
