@<TRIPOS>MOLECULE
2263_out_ligand_01.pdbqt
 34 37 0 0 0
SMALL
GASTEIGER

@<TRIPOS>ATOM
      1  C         21.6990  -22.3550   -9.8330 C.2     1  UNL1        0.0800
      2  C         21.0380  -22.2440  -11.0540 C.2     1  UNL1        0.0270
      3  C         21.7830  -22.0890  -12.2220 C.2     1  UNL1        0.0320
      4  C         23.1850  -22.0050  -12.1870 C.2     1  UNL1        0.0460
      5  C         23.8140  -21.9880  -10.9320 C.2     1  UNL1        0.0320
      6  C         23.0790  -22.1750   -9.7540 C.2     1  UNL1        0.0270
      7  S         20.7790  -22.8580   -8.3950 S.O2    1  UNL1        0.2630
      8  O         20.7850  -24.3040   -8.3490 O.2     1  UNL1       -0.2000
      9  O         21.2280  -22.0620   -7.2740 O.2     1  UNL1       -0.2000
     10  N         19.1900  -22.3990   -8.7980 N.pl3   1  UNL1       -0.2810
     11  H         19.1830  -21.5020   -9.2820 H       1  UNL1        0.1790
     12  C         18.1600  -22.6360   -7.8400 C.2     1  UNL1        0.0420
     13  C         17.1790  -23.6030   -8.0670 C.2     1  UNL1        0.0310
     14  C         16.2770  -23.9370   -7.0530 C.2     1  UNL1        0.0270
     15  C         16.3650  -23.2980   -5.8110 C.2     1  UNL1        0.0740
     16  C         17.3200  -22.3000   -5.5920 C.2     1  UNL1        0.0270
     17  C         18.2200  -21.9730   -6.6090 C.2     1  UNL1        0.0310
     18  S         15.2130  -23.6900   -4.5210 S.O2    1  UNL1        0.2390
     19  O         14.0250  -24.2330   -5.1360 O.2     1  UNL1       -0.2060
     20  O         15.9250  -24.3850   -3.4720 O.2     1  UNL1       -0.2060
     21  N         14.8270  -22.1880   -3.8850 N.3     1  UNL1       -0.2250
     22  H         14.1110  -21.7460   -4.4640 H       1  UNL1        0.1360
     23  H         14.5460  -22.1610   -2.8990 H       1  UNL1        0.1360
     24  N         23.9290  -21.9780  -13.3960 N.am    1  UNL1       -0.2440
     25  C         23.7210  -21.0510  -14.4000 C.2     1  UNL1        0.2660
     26  O         22.8870  -20.1660  -14.5030 O.2     1  UNL1       -0.2670
     27  C         24.6530  -21.3730  -15.4760 C.2     1  UNL1        0.0480
     28  C         24.8760  -20.7430  -16.6860 C.2     1  UNL1        0.0180
     29  C         25.3330  -22.5150  -15.1120 C.2     1  UNL1        0.0480
     30  C         25.8360  -21.3040  -17.5330 C.2     1  UNL1        0.0010
     31  C         26.5360  -22.4680  -17.1580 C.2     1  UNL1        0.0010
     32  C         26.2840  -23.0920  -15.9310 C.2     1  UNL1        0.0180
     33  C         24.8480  -22.9250  -13.7950 C.2     1  UNL1        0.2660
     34  O         25.2560  -23.9310  -13.2460 O.2     1  UNL1       -0.2670
@<TRIPOS>BOND
     1    30    31    2
     2    30    28    1
     3    31    32    1
     4    28    27    2
     5    32    29    2
     6    27    29    1
     7    27    25    1
     8    29    33    1
     9    26    25    2
    10    25    24   am
    11    33    24   am
    12    33    34    2
    13    24     4    1
    14     3     4    2
    15     3     2    1
    16     4     5    1
    17     2     1    2
    18     5     6    2
    19     1     6    1
    20     1     7    1
    21    11    10    1
    22    10     7    1
    23    10    12    1
    24     7     8    2
    25     7     9    2
    26    13    12    2
    27    13    14    1
    28    12    17    1
    29    14    15    2
    30    17    16    2
    31    15    16    1
    32    15    18    1
    33    19    18    2
    34    18    21    1
    35    18    20    2
    36    22    21    1
    37    21    23    1
