@<TRIPOS>MOLECULE
22699_out_ligand_01.pdbqt
 36 39 0 0 0
SMALL
GASTEIGER

@<TRIPOS>ATOM
      1  N         21.0530  -23.2780   -9.8260 N.pl3   1  UNL1       -0.3460
      2  C         22.3210  -23.2000  -10.3430 C.2     1  UNL1        0.1040
      3  C         22.3060  -22.2770  -11.3650 C.2     1  UNL1       -0.0080
      4  C         20.9660  -21.8020  -11.5030 C.2     1  UNL1        0.0020
      5  C         20.3110  -20.9040  -12.3760 C.2     1  UNL1        0.0140
      6  C         18.9430  -20.6540  -12.2270 C.2     1  UNL1        0.0010
      7  C         18.2150  -21.2870  -11.2260 C.2     1  UNL1        0.0020
      8  C         18.8300  -22.1890  -10.3530 C.2     1  UNL1        0.0300
      9  C         20.2030  -22.4360  -10.5130 C.2     1  UNL1        0.0450
     10  C         23.4810  -21.9370  -12.1020 C.2     1  UNL1        0.0160
     11  C         23.5240  -21.7120  -13.4260 C.2     1  UNL1        0.0330
     12  C         24.7190  -21.3450  -14.1630 C.ar    1  UNL1        0.0750
     13  N         25.4010  -20.2630  -13.6450 N.ar    1  UNL1       -0.3060
     14  C         26.5520  -19.7470  -14.1780 C.ar    1  UNL1        0.3270
     15  H         25.0490  -19.7780  -12.8250 H       1  UNL1        0.1710
     16  O         27.1200  -18.7820  -13.6810 O.2     1  UNL1       -0.2470
     17  N         27.0240  -20.3810  -15.2950 N.ar    1  UNL1       -0.2730
     18  C         26.4530  -21.4820  -15.8890 C.ar    1  UNL1        0.2840
     19  H         27.8790  -20.0240  -15.6970 H       1  UNL1        0.1730
     20  O         26.9600  -22.0110  -16.8700 O.2     1  UNL1       -0.2650
     21  C         25.2180  -21.9520  -15.2520 C.ar    1  UNL1        0.1970
     22  N         24.5750  -23.0990  -15.8020 N.pl3   1  UNL1       -0.1070
     23  O         24.9350  -24.2020  -15.3690 O.2     1  UNL1       -0.5310
     24  O         23.7360  -22.9030  -16.6890 O.2     1  UNL1       -0.5310
     25  C         20.6710  -24.1460   -8.7200 C.3     1  UNL1        0.2310
     26  C         19.8290  -23.4640   -7.6530 C.2     1  UNL1        0.2400
     27  O         20.3010  -22.5160   -7.0260 O.2     1  UNL1       -0.2710
     28  N         18.5890  -24.0400   -7.4300 N.am    1  UNL1       -0.3260
     29  H         18.3110  -24.7880   -8.0570 H       1  UNL1        0.1690
     30  C         17.6150  -23.6550   -6.4850 C.2     1  UNL1        0.0350
     31  C         17.7170  -23.8970   -5.1110 C.2     1  UNL1        0.0320
     32  C         16.7000  -23.4850   -4.2440 C.2     1  UNL1        0.0440
     33  C         15.5840  -22.8320   -4.7490 C.2     1  UNL1        0.1160
     34  F         14.6120  -22.4390   -3.9170 F       1  UNL1       -0.2060
     35  C         15.4640  -22.5840   -6.1090 C.2     1  UNL1        0.0440
     36  C         16.4780  -22.9950   -6.9760 C.2     1  UNL1        0.0320
@<TRIPOS>BOND
     1    20    18    2
     2    24    22    2
     3    18    17   ar
     4    18    21   ar
     5    22    23    2
     6    22    21    1
     7    19    17    1
     8    17    14   ar
     9    21    12   ar
    10    14    16    2
    11    14    13   ar
    12    12    13   ar
    13    12    11    1
    14    13    15    1
    15    11    10    2
    16     5     6    1
    17     5     4    2
    18     6     7    2
    19    10     3    1
    20     4     3    1
    21     4     9    1
    22     3     2    2
    23     7     8    1
    24     9     8    2
    25     9     1    1
    26     2     1    1
    27     1    25    1
    28    25    26    1
    29    29    28    1
    30    26    28   am
    31    26    27    2
    32    28    30    1
    33    36    30    2
    34    36    35    1
    35    30    31    1
    36    35    33    2
    37    31    32    2
    38    33    32    1
    39    33    34    1
