@<TRIPOS>MOLECULE
226_out_ligand_01.pdbqt
 39 43 0 0 0
SMALL
GASTEIGER

@<TRIPOS>ATOM
      1  O         21.8690  -21.0250  -13.0010 O.2     1  UNL1       -0.2670
      2  C         21.8340  -21.7310  -12.0020 C.2     1  UNL1        0.2560
      3  N         22.8950  -22.3850  -11.4020 N.am    1  UNL1       -0.3230
      4  H         22.7190  -22.8250  -10.5080 H       1  UNL1        0.1690
      5  C         24.2360  -22.4140  -11.8430 C.2     1  UNL1        0.0360
      6  C         25.2540  -21.6230  -11.3040 C.2     1  UNL1        0.0290
      7  C         26.5670  -21.7200  -11.7800 C.2     1  UNL1        0.0040
      8  C         26.8750  -22.6020  -12.8130 C.2     1  UNL1        0.0250
      9  C         25.8550  -23.3700  -13.3750 C.2     1  UNL1        0.0820
     10  C         24.5450  -23.2930  -12.8870 C.2     1  UNL1        0.0540
     11  S         26.2290  -24.5050  -14.6920 S.O2    1  UNL1        0.2630
     12  O         27.1140  -25.5240  -14.1730 O.2     1  UNL1       -0.2000
     13  O         24.9760  -24.8520  -15.3310 O.2     1  UNL1       -0.2000
     14  N         27.0610  -23.5400  -15.8000 N.pl3   1  UNL1       -0.2810
     15  H         27.7640  -24.0640  -16.3190 H       1  UNL1        0.1790
     16  C         26.3860  -22.4780  -16.4600 C.2     1  UNL1        0.0440
     17  C         25.4840  -22.7360  -17.4940 C.2     1  UNL1        0.0300
     18  C         24.8540  -21.6800  -18.1530 C.2     1  UNL1        0.0040
     19  C         25.1240  -20.3640  -17.7770 C.2     1  UNL1        0.0240
     20  C         26.0240  -20.1130  -16.7420 C.2     1  UNL1        0.0360
     21 CL         26.3610  -18.4900  -16.2790 Cl      1  UNL1       -0.0840
     22  C         26.6560  -21.1640  -16.0780 C.2     1  UNL1        0.0540
     23  C         20.5200  -21.8970  -11.3160 C.2     1  UNL1        0.0330
     24  C         19.3190  -21.5030  -11.9140 C.2     1  UNL1        0.0180
     25  C         18.1100  -21.6670  -11.2270 C.2     1  UNL1        0.0180
     26  C         18.0800  -22.2170   -9.9340 C.2     1  UNL1        0.0370
     27  C         19.2830  -22.5870   -9.3500 C.2     1  UNL1        0.0790
     28  C         16.7660  -22.3640   -9.2660 C.2     1  UNL1        0.1950
     29  C         20.5030  -22.4280  -10.0230 C.2     1  UNL1        0.0410
     30  S         19.3160  -23.2770   -7.7430 S.O2    1  UNL1        0.2080
     31  O         19.7280  -24.6560   -7.9050 O.2     1  UNL1       -0.2170
     32  O         20.0520  -22.3460   -6.9140 O.2     1  UNL1       -0.2170
     33  C         17.6860  -23.3180   -7.1130 C.2     1  UNL1        0.0780
     34  C         17.4960  -23.8000   -5.8100 C.2     1  UNL1        0.0250
     35  C         16.6190  -22.8840   -7.8870 C.2     1  UNL1        0.0370
     36  C         16.2110  -23.8510   -5.2740 C.2     1  UNL1        0.0020
     37  C         15.1270  -23.4220   -6.0350 C.2     1  UNL1        0.0010
     38  C         15.3290  -22.9410   -7.3330 C.2     1  UNL1        0.0170
     39  O         15.7570  -22.0380   -9.8870 O.2     1  UNL1       -0.2870
@<TRIPOS>BOND
     1    18    19    2
     2    18    17    1
     3    19    20    1
     4    17    16    2
     5    20    21    1
     6    20    22    2
     7    16    22    1
     8    16    14    1
     9    15    14    1
    10    14    11    1
    11    13    11    2
    12    11    12    2
    13    11     9    1
    14     9    10    1
    15     9     8    2
    16     1     2    2
    17    10     5    2
    18     8     7    1
    19     2     3   am
    20     2    23    1
    21    24    23    2
    22    24    25    1
    23     5     3    1
    24     5     6    1
    25     7     6    2
    26     3     4    1
    27    23    29    1
    28    25    26    2
    29    29    27    2
    30    26    27    1
    31    26    28    1
    32    39    28    2
    33    27    30    1
    34    28    35    1
    35    31    30    2
    36    35    38    1
    37    35    33    2
    38    30    33    1
    39    30    32    2
    40    38    37    2
    41    33    34    1
    42    37    36    1
    43    34    36    2
