@<TRIPOS>MOLECULE
22799_out_ligand_01.pdbqt
 31 35 0 0 0
SMALL
GASTEIGER

@<TRIPOS>ATOM
      1  C         18.9280  -22.4420   -9.8860 C.2     2  UNL2        0.1450
      2  N         18.2560  -21.6260  -10.6760 N.2     2  UNL2       -0.2230
      3  C         18.7600  -21.0160  -11.7650 C.2     2  UNL2        0.2370
      4  N         20.0410  -21.2180  -12.1180 N.2     2  UNL2       -0.2220
      5  C         20.8030  -22.0390  -11.3630 C.2     2  UNL2        0.1630
      6  C         20.2700  -22.6560  -10.2510 C.2     2  UNL2        0.0760
      7  C         21.2810  -23.4190   -9.6990 C.2     2  UNL2        0.1580
      8  N         22.3780  -23.2560  -10.4630 N.2     2  UNL2       -0.1820
      9  N         22.0980  -22.4340  -11.4590 N.pl3   2  UNL2       -0.2470
     10  N         18.3990  -23.0800   -8.7450 N.pl3   2  UNL2       -0.3390
     11  H         18.0090  -24.0560   -8.9330 H       2  UNL2        0.1670
     12  C         18.3380  -22.5730   -7.4360 C.2     2  UNL2        0.0440
     13  C         17.2380  -22.8670   -6.6190 C.2     2  UNL2        0.0030
     14  C         16.1950  -23.6480   -7.0550 C.2     2  UNL2        0.0140
     15  C         17.1710  -22.3640   -5.3110 C.2     2  UNL2        0.0030
     16  C         15.1210  -23.9070   -6.1900 C.2     2  UNL2        0.0030
     17  C         15.0760  -23.4060   -4.9200 C.2     2  UNL2        0.0300
     18  C         16.1100  -22.6280   -4.4780 C.2     2  UNL2        0.0360
     19  C         18.1960  -21.5680   -4.8120 C.2     2  UNL2        0.0140
     20  C         19.2720  -21.2740   -5.5960 C.2     2  UNL2        0.0030
     21  C         19.3100  -21.7850   -6.8860 C.2     2  UNL2        0.0300
     22  N         16.0840  -22.0950   -3.1530 N.pl3   2  UNL2       -0.3980
     23  H         15.2120  -21.7460   -2.7080 H       2  UNL2        0.1560
     24  H         16.9710  -22.0610   -2.6310 H       2  UNL2        0.1560
     25  C         23.0020  -21.9910  -12.5130 C.3     2  UNL2        0.1910
     26  C         24.4110  -22.3110  -12.1860 C.2     2  UNL2       -0.0380
     27  C         25.0450  -23.4290  -12.6890 C.2     2  UNL2        0.0090
     28  C         26.3600  -23.6880  -12.3590 C.2     2  UNL2        0.0010
     29  C         27.0890  -22.8610  -11.5280 C.2     2  UNL2        0.0000
     30  C         26.4480  -21.7490  -11.0320 C.2     2  UNL2        0.0010
     31  C         25.1340  -21.4810  -11.3550 C.2     2  UNL2        0.0090
@<TRIPOS>BOND
     1    27    28    1
     2    27    26    2
     3    25    26    1
     4    25     9    1
     5    28    29    2
     6    26    31    1
     7     4     3    2
     8     4     5    1
     9     3     2    1
    10    29    30    1
    11     9     5    1
    12     9     8    1
    13     5     6    2
    14    31    30    2
    15     2     1    2
    16     8     7    2
    17     6     1    1
    18     6     7    1
    19     1    10    1
    20    11    10    1
    21    10    12    1
    22    12    21    2
    23    12    13    1
    24    14    13    2
    25    14    16    1
    26    21    20    1
    27    13    15    1
    28    16    17    2
    29    20    19    2
    30    15    19    1
    31    15    18    2
    32    17    18    1
    33    18    22    1
    34    22    23    1
    35    22    24    1
