@<TRIPOS>MOLECULE
22818_out_ligand_01.pdbqt
 38 43 0 0 0
SMALL
GASTEIGER

@<TRIPOS>ATOM
      1  N         20.2930  -23.6690   -9.2870 N.pl3   1  UNL1       -0.3460
      2  C         21.6600  -23.7320   -9.3680 C.2     1  UNL1        0.1050
      3  C         22.0850  -22.8400  -10.3340 C.2     1  UNL1        0.0110
      4  C         20.9090  -22.2180  -10.8670 C.2     1  UNL1        0.0040
      5  C         20.6790  -21.2380  -11.8560 C.2     1  UNL1        0.0140
      6  C         19.3740  -20.8320  -12.1510 C.2     1  UNL1        0.0010
      7  C         18.2930  -21.3870  -11.4770 C.2     1  UNL1        0.0020
      8  C         18.4870  -22.3590  -10.4920 C.2     1  UNL1        0.0300
      9  C         19.8020  -22.7620  -10.2040 C.2     1  UNL1        0.0450
     10  C         23.4790  -22.6390  -10.6750 C.3     1  UNL1        0.1460
     11  N         24.1890  -21.7680  -10.0290 N.3     1  UNL1       -0.2050
     12  N         25.4930  -21.6700  -10.4630 N.pl3   1  UNL1       -0.1470
     13  H         26.1460  -21.3350   -9.7540 H       1  UNL1        0.1580
     14  C         25.7680  -20.8440  -11.5870 C.cat   1  UNL1        0.2430
     15  N         26.4000  -19.6670  -11.3160 N.2     1  UNL1       -0.1150
     16  N         26.7260  -18.7950  -12.2810 N.pl3   1  UNL1       -0.1420
     17  C         26.3880  -19.1560  -13.5410 C.ar    1  UNL1        0.1370
     18  C         25.7560  -20.3630  -13.7620 C.ar    1  UNL1        0.1630
     19  C         26.5550  -18.5120  -14.7940 C.ar    1  UNL1        0.0250
     20  N         25.4220  -21.2660  -12.8260 N.pl3   1  UNL1       -0.1960
     21  N         25.5270  -20.4770  -15.1030 N.ar    1  UNL1       -0.3380
     22  C         26.0030  -19.3620  -15.7620 C.ar    1  UNL1        0.0460
     23  H         25.0690  -21.2650  -15.5340 H       1  UNL1        0.1670
     24  C         25.9890  -19.0430  -17.1240 C.2     1  UNL1        0.0300
     25  C         26.5520  -17.8230  -17.5090 C.2     1  UNL1        0.0020
     26  C         27.1090  -16.9570  -16.5680 C.2     1  UNL1        0.0010
     27  C         27.1170  -17.2880  -15.2090 C.2     1  UNL1        0.0160
     28  C         19.4950  -24.4430   -8.3470 C.3     1  UNL1        0.2310
     29  C         18.7660  -23.6060   -7.3070 C.2     1  UNL1        0.2400
     30  O         19.3580  -22.6680   -6.7720 O.2     1  UNL1       -0.2710
     31  N         17.4880  -24.0330   -6.9900 N.am    1  UNL1       -0.3260
     32  H         17.1110  -24.8140   -7.5180 H       1  UNL1        0.1690
     33  C         16.6010  -23.4830   -6.0400 C.2     1  UNL1        0.0340
     34  C         16.7260  -23.6500   -4.6600 C.2     1  UNL1        0.0290
     35  C         15.7960  -23.0690   -3.7890 C.2     1  UNL1        0.0020
     36  C         14.7380  -22.3180   -4.2910 C.2     1  UNL1        0.0000
     37  C         14.6040  -22.1460   -5.6650 C.2     1  UNL1        0.0020
     38  C         15.5320  -22.7260   -6.5350 C.2     1  UNL1        0.0290
@<TRIPOS>BOND
     1    25    24    2
     2    25    26    1
     3    24    22    1
     4    26    27    2
     5    22    21   ar
     6    22    19   ar
     7    23    21    1
     8    27    19    1
     9    21    18   ar
    10    19    17   ar
    11    18    17   ar
    12    18    20    1
    13    17    16    1
    14    20    14    1
    15    16    15    1
    16     6     5    1
    17     6     7    2
    18     5     4    2
    19    14    15    2
    20    14    12    1
    21     7     8    1
    22     4     3    1
    23     4     9    1
    24    10     3    1
    25    10    11    1
    26     8     9    2
    27    12    11    1
    28    12    13    1
    29     3     2    2
    30     9     1    1
    31     2     1    1
    32     1    28    1
    33    28    29    1
    34    32    31    1
    35    29    31   am
    36    29    30    2
    37    31    33    1
    38    38    33    2
    39    38    37    1
    40    33    34    1
    41    37    36    2
    42    34    35    2
    43    36    35    1
