@<TRIPOS>MOLECULE
22811_out_ligand_01.pdbqt
 32 35 0 0 0
SMALL
GASTEIGER

@<TRIPOS>ATOM
      1  C         27.1000  -19.0480  -11.6870 C.3     1  UNL1        0.1630
      2  N         26.0960  -19.7440  -12.4690 N.ar    1  UNL1       -0.2860
      3  C         26.0050  -19.5530  -13.8430 C.ar    1  UNL1        0.3300
      4  O         26.7420  -18.8050  -14.4850 O.2     1  UNL1       -0.2460
      5  N         25.0230  -20.2590  -14.5120 N.ar    1  UNL1       -0.2730
      6  C         24.1370  -21.1670  -13.9790 C.ar    1  UNL1        0.2800
      7  O         23.3430  -21.7880  -14.6770 O.2     1  UNL1       -0.2650
      8  C         24.2760  -21.3020  -12.5700 C.ar    1  UNL1        0.1670
      9  C         25.2210  -20.6200  -11.8640 C.ar    1  UNL1        0.1860
     10  N         25.1790  -20.9210  -10.5430 N.ar    1  UNL1       -0.0420
     11  C         24.2110  -21.8130  -10.4120 C.ar    1  UNL1        0.7260
     12  N         23.5950  -22.0420  -11.6350 N.ar    1  UNL1       -0.1660
     13  H         24.9860  -20.1200  -15.5090 H       1  UNL1        0.1730
     14  N         23.8050  -22.4400   -9.2700 N.pl3   1  UNL1       -0.1070
     15  H         24.5320  -22.8540   -8.6890 H       1  UNL1        0.2080
     16  N         22.7260  -22.0630   -8.5130 N.2     1  UNL1       -0.1720
     17  C         21.8050  -22.9610   -8.3440 C.2     1  UNL1        0.1500
     18  C         20.5720  -22.6800   -7.5820 C.2     1  UNL1       -0.0170
     19  C         20.4780  -21.5530   -6.7570 C.2     1  UNL1        0.0160
     20  C         19.3010  -21.3120   -6.0460 C.2     1  UNL1        0.0430
     21  C         18.2330  -22.1950   -6.1670 C.2     1  UNL1        0.1160
     22  F         17.1040  -21.9630   -5.4850 F       1  UNL1       -0.2060
     23  C         18.3180  -23.3170   -6.9870 C.2     1  UNL1        0.0430
     24  C         19.4930  -23.5640   -7.7000 C.2     1  UNL1        0.0160
     25  C         22.4410  -22.8870  -11.8990 C.3     1  UNL1        0.1860
     26  C         21.1420  -22.1420  -11.7030 C.2     1  UNL1       -0.0390
     27  C         21.0280  -20.7820  -12.0430 C.2     1  UNL1        0.0120
     28  C         19.8220  -20.1030  -11.8600 C.2     1  UNL1        0.0430
     29  C         18.7270  -20.7780  -11.3370 C.2     1  UNL1        0.1160
     30  F         17.5700  -20.1260  -11.1620 F       1  UNL1       -0.2060
     31  C         18.8150  -22.1200  -10.9910 C.2     1  UNL1        0.0430
     32  C         20.0200  -22.8010  -11.1730 C.2     1  UNL1        0.0120
@<TRIPOS>BOND
     1    13     5    1
     2     7     6    2
     3     5     6   ar
     4     5     3   ar
     5     4     3    2
     6     6     8   ar
     7     3     2   ar
     8     8     9   ar
     9     8    12   ar
    10     2     9   ar
    11     2     1    1
    12    27    28    1
    13    27    26    2
    14    25    26    1
    15    25    12    1
    16     9    10   ar
    17    28    29    2
    18    26    32    1
    19    12    11   ar
    20    29    30    1
    21    29    31    1
    22    32    31    2
    23    10    11   ar
    24    11    14    1
    25    14    15    1
    26    14    16    1
    27    16    17    2
    28    17    18    1
    29    24    18    2
    30    24    23    1
    31    18    19    1
    32    23    21    2
    33    19    20    2
    34    21    20    1
    35    21    22    1
