@<TRIPOS>MOLECULE
22856_out_ligand_01.pdbqt
 32 36 0 0 0
SMALL
GASTEIGER

@<TRIPOS>ATOM
      1  C         22.9180  -21.8090  -13.0610 C.2     1  UNL1        0.0350
      2  C         21.6490  -21.3900  -12.6560 C.2     1  UNL1        0.0310
      3  C         21.1700  -21.7030  -11.3790 C.2     1  UNL1        0.0270
      4  C         21.9610  -22.4540  -10.5090 C.2     1  UNL1        0.0790
      5  C         23.2410  -22.8620  -10.8920 C.2     1  UNL1        0.0270
      6  C         23.7130  -22.5420  -12.1670 C.2     1  UNL1        0.0310
      7  S         21.3760  -22.8540   -8.8840 S.O2    1  UNL1        0.2590
      8  O         21.3990  -24.2970   -8.7730 O.2     1  UNL1       -0.2010
      9  O         22.0570  -22.0210   -7.9220 O.2     1  UNL1       -0.2010
     10  N         19.7600  -22.4390   -8.9280 N.3     1  UNL1       -0.3050
     11  H         19.5460  -21.7360   -9.6350 H       1  UNL1        0.1730
     12  C         18.6920  -22.8490   -8.0050 C.3     1  UNL1        0.0410
     13  C         18.6950  -24.3490   -7.6510 C.3     1  UNL1        0.0360
     14  C         17.5120  -24.6880   -6.7240 C.3     1  UNL1       -0.0120
     15  C         17.6200  -23.8490   -5.4390 C.3     1  UNL1        0.0090
     16  C         16.1940  -24.3540   -7.4400 C.3     1  UNL1        0.0090
     17  C         17.5830  -22.3500   -5.7830 C.3     1  UNL1       -0.0120
     18  C         16.2650  -22.0280   -6.5040 C.3     1  UNL1        0.0090
     19  C         18.7660  -22.0150   -6.7080 C.3     1  UNL1        0.0360
     20  C         16.1560  -22.8590   -7.7930 C.3     1  UNL1       -0.0120
     21  C         17.3450  -22.5270   -8.7080 C.3     1  UNL1        0.0360
     22  N         23.4670  -21.5340  -14.3240 N.am    1  UNL1       -0.3220
     23  C         24.4940  -20.6680  -14.6530 C.2     1  UNL1        0.2780
     24  O         25.1170  -19.9590  -13.8720 O.2     1  UNL1       -0.2650
     25  H         23.0800  -22.0200  -15.1310 H       1  UNL1        0.1690
     26  C         24.7680  -20.6850  -16.1030 C.2     1  UNL1        0.1670
     27  N         24.1440  -21.5740  -16.9150 N.2     1  UNL1       -0.1680
     28  N         24.6340  -21.3010  -18.1370 N.pl3   1  UNL1       -0.2870
     29  C         25.5340  -20.2820  -18.1510 C.2     1  UNL1        0.1350
     30  H         24.3060  -21.8550  -18.9230 H       1  UNL1        0.1880
     31  C         25.6470  -19.8570  -16.8500 C.2     1  UNL1        0.0870
     32 CL         26.6410  -18.6040  -16.2900 Cl      1  UNL1       -0.0800
@<TRIPOS>BOND
     1    30    28    1
     2    29    28    1
     3    29    31    2
     4    28    27    1
     5    27    26    2
     6    31    32    1
     7    31    26    1
     8    26    23    1
     9    25    22    1
    10    23    22   am
    11    23    24    2
    12    22     1    1
    13     1     2    2
    14     1     6    1
    15     2     3    1
    16     6     5    2
    17     3     4    2
    18     5     4    1
    19     4     7    1
    20    11    10    1
    21    10     7    1
    22    10    12    1
    23     7     8    2
    24     7     9    2
    25    21    12    1
    26    21    20    1
    27    12    13    1
    28    12    19    1
    29    20    16    1
    30    20    18    1
    31    13    14    1
    32    16    14    1
    33    14    15    1
    34    19    17    1
    35    18    17    1
    36    17    15    1
