@<TRIPOS>MOLECULE
22860_out_ligand_01.pdbqt
 31 34 0 0 0
SMALL
GASTEIGER

@<TRIPOS>ATOM
      1  O         21.7960  -22.3190   -8.2150 O.2     1  UNL1       -0.2680
      2  C         21.2750  -22.7450   -9.2390 C.2     1  UNL1        0.2510
      3  N         20.1580  -23.5540   -9.2450 N.am    1  UNL1       -0.3560
      4  H         19.9990  -24.1190  -10.0720 H       1  UNL1        0.1620
      5  C         21.8640  -22.4290  -10.5710 C.2     1  UNL1        0.0320
      6  C         23.1390  -22.8670  -10.9420 C.2     1  UNL1        0.0190
      7  C         23.6480  -22.5490  -12.2060 C.2     1  UNL1        0.0300
      8  C         22.8950  -21.7950  -13.1180 C.2     1  UNL1        0.0350
      9  C         21.6170  -21.3750  -12.7470 C.2     1  UNL1        0.0300
     10  C         21.1020  -21.6940  -11.4840 C.2     1  UNL1        0.0190
     11  N         23.4920  -21.5230  -14.3680 N.am    1  UNL1       -0.3210
     12  C         24.4650  -20.5740  -14.6630 C.2     1  UNL1        0.2790
     13  O         24.9710  -19.8280  -13.8300 O.2     1  UNL1       -0.2650
     14  H         23.1810  -22.1040  -15.1330 H       1  UNL1        0.1690
     15  C         24.8520  -20.5400  -16.0680 C.2     1  UNL1        0.1420
     16  C         25.7210  -19.7530  -16.8100 C.2     1  UNL1        0.0450
     17  C         25.6660  -20.2170  -18.1480 C.2     1  UNL1        0.0270
     18  C         24.7720  -21.2580  -18.1520 C.2     1  UNL1        0.1430
     19  O         24.2780  -21.4620  -16.9080 O.2     1  UNL1       -0.3170
     20  C         19.6130  -24.0760   -8.0000 C.3     1  UNL1        0.1370
     21  C         18.2470  -23.4450   -7.6310 C.3     1  UNL1        0.0030
     22  C         17.1460  -24.5350   -7.6370 C.3     1  UNL1        0.0160
     23  C         15.8330  -23.7940   -7.8900 C.3     1  UNL1        0.0010
     24  C         16.2150  -22.4850   -8.5750 C.3     1  UNL1        0.0010
     25  C         17.7260  -22.5560   -8.7880 C.3     1  UNL1        0.0160
     26  C         18.3740  -22.6250   -6.3300 C.2     1  UNL1       -0.0480
     27  C         19.1310  -21.4450   -6.2390 C.2     1  UNL1        0.0080
     28  C         19.1970  -20.7160   -5.0470 C.2     1  UNL1        0.0010
     29  C         18.5070  -21.1480   -3.9210 C.2     1  UNL1        0.0000
     30  C         17.7470  -22.3110   -3.9840 C.2     1  UNL1        0.0010
     31  C         17.6810  -23.0390   -5.1750 C.2     1  UNL1        0.0080
@<TRIPOS>BOND
     1    18    17    2
     2    18    19    1
     3    17    16    1
     4    19    15    1
     5    16    15    2
     6    15    12    1
     7    14    11    1
     8    12    11   am
     9    12    13    2
    10    11     8    1
    11     8     9    2
    12     8     7    1
    13     9    10    1
    14     7     6    2
    15    10     5    2
    16     6     5    1
    17     5     2    1
    18     4     3    1
    19     3     2   am
    20     3    20    1
    21     2     1    2
    22    25    24    1
    23    25    21    1
    24    24    23    1
    25    20    21    1
    26    23    22    1
    27    22    21    1
    28    21    26    1
    29    26    27    2
    30    26    31    1
    31    27    28    1
    32    31    30    2
    33    28    29    2
    34    30    29    1
