@<TRIPOS>MOLECULE
2287_out_ligand_01.pdbqt
 35 38 0 0 0
SMALL
GASTEIGER

@<TRIPOS>ATOM
      1  C         19.7970  -21.9420  -10.8550 C.2     1  UNL1        0.1480
      2  C         20.0870  -21.1720  -12.0140 C.2     1  UNL1        0.0890
      3  C         21.3890  -21.4640  -12.3220 C.2     1  UNL1        0.1230
      4  N         21.8300  -22.3110  -11.3390 N.pl3   1  UNL1       -0.2400
      5  N         20.8680  -22.6750  -10.4740 N.2     1  UNL1       -0.1650
      6  C         23.1520  -22.9170  -11.3250 C.3     1  UNL1        0.2210
      7  C         24.1090  -22.1640  -12.2710 C.3     1  UNL1        0.0660
      8  C         23.4130  -21.8450  -13.6010 C.3     1  UNL1        0.1180
      9  N         22.2000  -21.0740  -13.3320 N.pl3   1  UNL1       -0.3660
     10  H         21.7910  -20.6300  -14.1550 H       1  UNL1        0.1610
     11  C         18.5160  -21.9980  -10.1250 C.2     1  UNL1        0.2760
     12  N         18.6570  -22.6200   -8.8990 N.am    1  UNL1       -0.3220
     13  H         19.6110  -22.9230   -8.7100 H       1  UNL1        0.1690
     14  O         17.4870  -21.5340  -10.6020 O.2     1  UNL1       -0.2660
     15  C         17.6820  -22.8680   -7.9210 C.2     1  UNL1        0.0350
     16  C         16.5890  -23.6560   -8.2960 C.2     1  UNL1        0.0290
     17  C         15.5790  -23.9510   -7.3800 C.2     1  UNL1        0.0030
     18  C         15.6520  -23.4580   -6.0790 C.2     1  UNL1        0.0100
     19  C         16.7330  -22.6610   -5.6810 C.2     1  UNL1       -0.0280
     20  C         17.7460  -22.3760   -6.6150 C.2     1  UNL1        0.0390
     21  C         16.8520  -22.1370   -4.2660 C.3     1  UNL1        0.1470
     22  C         17.6320  -23.1020   -3.3810 C.3     1  UNL1        0.0440
     23  O         15.5550  -21.9350   -3.7060 O.3     1  UNL1       -0.3910
     24  H         15.5770  -21.0800   -3.2460 H       1  UNL1        0.2100
     25  C         23.7380  -22.9590   -9.9320 C.3     1  UNL1        0.4090
     26  F         23.7270  -21.7500   -9.3260 F       1  UNL1       -0.1690
     27  F         25.0390  -23.3500   -9.9970 F       1  UNL1       -0.1690
     28  F         23.1230  -23.8450   -9.1190 F       1  UNL1       -0.1690
     29  C         24.3240  -21.0680  -14.5310 C.2     1  UNL1       -0.0350
     30  C         24.4630  -21.4220  -15.8850 C.2     1  UNL1        0.0100
     31  C         25.2950  -20.6890  -16.7350 C.2     1  UNL1        0.0190
     32  C         25.9950  -19.5930  -16.2380 C.2     1  UNL1        0.0110
     33 BR         27.1210  -18.6000  -17.3860 Br      1  UNL1       -0.0510
     34  C         25.8700  -19.2230  -14.9020 C.2     1  UNL1        0.0190
     35  C         25.0380  -19.9580  -14.0510 C.2     1  UNL1        0.0100
@<TRIPOS>BOND
     1    33    32    1
     2    31    32    2
     3    31    30    1
     4    32    34    1
     5    30    29    2
     6    34    35    2
     7    29    35    1
     8    29     8    1
     9    10     9    1
    10     8     9    1
    11     8     7    1
    12     9     3    1
    13     3     2    2
    14     3     4    1
    15     7     6    1
    16     2     1    1
    17     4     6    1
    18     4     5    1
    19     6    25    1
    20     1     5    2
    21     1    11    1
    22    14    11    2
    23    11    12   am
    24    27    25    1
    25    25    26    1
    26    25    28    1
    27    12    13    1
    28    12    15    1
    29    16    15    2
    30    16    17    1
    31    15    20    1
    32    17    18    2
    33    20    19    2
    34    18    19    1
    35    19    21    1
    36    21    23    1
    37    21    22    1
    38    23    24    1
