@<TRIPOS>MOLECULE
22886_out_ligand_01.pdbqt
 36 40 0 0 0
SMALL
GASTEIGER

@<TRIPOS>ATOM
      1  N         21.4050  -23.5980   -9.4820 N.pl3   1  UNL1       -0.3530
      2  C         22.7220  -23.2090   -9.5110 C.2     1  UNL1        0.1030
      3  C         22.8120  -22.1040  -10.3240 C.2     1  UNL1       -0.0070
      4  C         21.5010  -21.7810  -10.7790 C.2     1  UNL1        0.0020
      5  C         20.9640  -20.7630  -11.5960 C.2     1  UNL1        0.0140
      6  C         19.5900  -20.7320  -11.8520 C.2     1  UNL1        0.0010
      7  C         18.7470  -21.6950  -11.3060 C.2     1  UNL1        0.0020
      8  C         19.2530  -22.7130  -10.4920 C.2     1  UNL1        0.0300
      9  C         20.6340  -22.7370  -10.2380 C.2     1  UNL1        0.0450
     10  C         24.0230  -21.4030  -10.5810 C.3     1  UNL1        0.0340
     11  C         24.7090  -21.3210  -11.7380 C.ar    1  UNL1        0.0820
     12  C         24.3510  -22.0170  -13.0190 C.ar    1  UNL1        0.1620
     13  C         25.9310  -20.4250  -11.7360 C.ar    1  UNL1        0.2830
     14  N         23.4250  -22.9250  -13.1080 N.pl3   1  UNL1       -0.2810
     15  N         25.0980  -21.6450  -14.1210 N.ar    1  UNL1       -0.1890
     16  H         23.3970  -23.2220  -14.0940 H       1  UNL1        0.1880
     17  N         24.8680  -22.1620  -15.3870 N.ar    1  UNL1       -0.1610
     18  C         26.1250  -20.7470  -13.9980 C.ar    1  UNL1        0.2010
     19  C         25.7170  -21.6280  -16.2140 C.ar    1  UNL1        0.1020
     20  S         26.8660  -20.4710  -15.5560 S.2     1  UNL1       -0.0330
     21  N         26.5510  -20.1560  -12.9410 N.ar    1  UNL1       -0.1820
     22  O         26.3530  -19.9440  -10.6890 O.2     1  UNL1       -0.2650
     23  C         25.7390  -21.9750  -17.6860 C.3     1  UNL1        0.0380
     24  C         24.6440  -22.9750  -18.0430 C.3     1  UNL1        0.0160
     25  C         27.1150  -22.4590  -18.1300 C.3     1  UNL1        0.0160
     26  C         20.9280  -24.7760   -8.7720 C.3     1  UNL1        0.1550
     27  C         19.5340  -24.5810   -8.1800 C.3     1  UNL1        0.1960
     28  O         19.5430  -23.4420   -7.3160 O.2     1  UNL1       -0.3490
     29  C         18.4280  -23.2360   -6.5470 C.2     1  UNL1        0.0740
     30  C         17.3340  -24.1080   -6.4900 C.2     1  UNL1        0.0390
     31  C         16.2320  -23.8070   -5.6850 C.2     1  UNL1        0.0260
     32  C         16.2190  -22.6330   -4.9380 C.2     1  UNL1        0.0340
     33  C         17.2970  -21.7530   -4.9920 C.2     1  UNL1        0.0330
     34 CL         14.8620  -22.2660   -3.9470 Cl      1  UNL1       -0.0840
     35  C         18.4070  -22.0420   -5.8010 C.2     1  UNL1       -0.0270
     36  C         19.5730  -21.0940   -5.8310 C.3     1  UNL1        0.0510
@<TRIPOS>BOND
     1    25    23    1
     2    24    23    1
     3    23    19    1
     4    19    20   ar
     5    19    17   ar
     6    20    18   ar
     7    17    15   ar
     8    15    18   ar
     9    15    12   ar
    10    16    14    1
    11    18    21   ar
    12    14    12    1
    13    12    11   ar
    14    21    13   ar
    15     6     5    1
    16     6     7    2
    17    11    13   ar
    18    11    10    1
    19    13    22    2
    20     5     4    2
    21     7     8    1
    22     4     3    1
    23     4     9    1
    24    10     3    1
    25     8     9    2
    26     3     2    2
    27     9     1    1
    28     2     1    1
    29     1    26    1
    30    26    27    1
    31    27    28    1
    32    28    29    1
    33    29    30    2
    34    29    35    1
    35    30    31    1
    36    36    35    1
    37    35    33    2
    38    31    32    2
    39    33    32    1
    40    32    34    1
