@<TRIPOS>MOLECULE
22893_out_ligand_01.pdbqt
 28 30 0 0 0
SMALL
GASTEIGER

@<TRIPOS>ATOM
      1  N         19.9750  -22.8640   -9.3630 N.am    1  UNL1       -0.3260
      2  C         20.1610  -22.6800   -7.9920 C.2     1  UNL1        0.2350
      3  O         21.1590  -22.1790   -7.4820 O.2     1  UNL1       -0.2720
      4  H         19.0600  -23.1950   -9.6490 H       1  UNL1        0.1690
      5  C         18.9590  -23.2080   -7.1650 C.3     1  UNL1        0.1440
      6  C         17.6740  -23.3210   -7.9880 C.2     1  UNL1       -0.0410
      7  C         16.8020  -24.4010   -7.7720 C.2     1  UNL1        0.0080
      8  C         15.6250  -24.5230   -8.5130 C.2     1  UNL1        0.0010
      9  C         15.3010  -23.5670   -9.4730 C.2     1  UNL1        0.0000
     10  C         16.1490  -22.4830   -9.6880 C.2     1  UNL1        0.0010
     11  C         17.3260  -22.3560   -8.9470 C.2     1  UNL1        0.0080
     12  C         18.7250  -22.4870   -5.8390 C.2     1  UNL1       -0.0410
     13  C         18.0880  -23.1610   -4.7810 C.2     1  UNL1        0.0080
     14  C         17.8370  -22.5130   -3.5700 C.2     1  UNL1        0.0010
     15  C         18.2120  -21.1830   -3.3980 C.2     1  UNL1        0.0000
     16  C         18.8370  -20.5000   -4.4380 C.2     1  UNL1        0.0010
     17  C         19.0890  -21.1450   -5.6500 C.2     1  UNL1        0.0080
     18  C         20.8700  -22.5510  -10.4050 C.2     1  UNL1        0.0340
     19  C         20.3970  -21.7060  -11.4180 C.2     1  UNL1        0.0300
     20  C         21.2160  -21.3430  -12.4930 C.2     1  UNL1        0.0190
     21  C         22.5270  -21.8250  -12.5660 C.2     1  UNL1        0.0320
     22  C         22.9960  -22.6850  -11.5690 C.2     1  UNL1        0.0190
     23  C         22.1730  -23.0420  -10.4920 C.2     1  UNL1        0.0300
     24  C         23.4390  -21.4750  -13.6870 C.2     1  UNL1        0.2490
     25  N         23.0490  -20.4630  -14.5220 N.am    1  UNL1       -0.3660
     26  H         22.3500  -19.7880  -14.2480 H       1  UNL1        0.1590
     27  H         23.7490  -20.1560  -15.1860 H       1  UNL1        0.1590
     28  O         24.5130  -22.0390  -13.8480 O.2     1  UNL1       -0.2680
@<TRIPOS>BOND
     1    27    25    1
     2    25    26    1
     3    25    24   am
     4    28    24    2
     5    24    21    1
     6    21    20    2
     7    21    22    1
     8    20    19    1
     9    22    23    2
    10    19    18    2
    11    23    18    1
    12    18     1    1
    13    10     9    2
    14    10    11    1
    15     4     1    1
    16     9     8    1
    17     1     2   am
    18    11     6    2
    19     8     7    2
    20     2     3    2
    21     2     5    1
    22     6     7    1
    23     6     5    1
    24     5    12    1
    25    12    17    2
    26    12    13    1
    27    17    16    1
    28    13    14    2
    29    16    15    2
    30    14    15    1
