@<TRIPOS>MOLECULE
22896_out_ligand_01.pdbqt
 32 35 0 0 0
SMALL
GASTEIGER

@<TRIPOS>ATOM
      1  C         20.6950  -22.4730   -7.6820 C.2     1  UNL1        0.0320
      2  C         20.6160  -23.5830   -8.5280 C.2     1  UNL1        0.0190
      3  C         21.6550  -23.8570   -9.4280 C.2     1  UNL1        0.0310
      4  C         22.7690  -23.0160   -9.5050 C.2     1  UNL1        0.0420
      5  C         22.8620  -21.9340   -8.6220 C.2     1  UNL1        0.0310
      6  C         21.8310  -21.6600   -7.7190 C.2     1  UNL1        0.0190
      7  N         23.9000  -23.2660  -10.3370 N.pl3   1  UNL1       -0.2810
      8  H         24.8290  -23.2640   -9.9190 H       1  UNL1        0.1790
      9  S         23.9690  -22.8900  -11.9830 S.O2    1  UNL1        0.2650
     10  O         22.6390  -22.4030  -12.2910 O.2     1  UNL1       -0.2000
     11  O         24.5450  -24.0380  -12.6500 O.2     1  UNL1       -0.2000
     12  C         25.0600  -21.4980  -12.0720 C.2     1  UNL1        0.1090
     13  C         25.6630  -21.0080  -10.9000 C.2     1  UNL1        0.0280
     14  C         26.5350  -19.9290  -10.9690 C.2     1  UNL1        0.0030
     15  C         26.7960  -19.3420  -12.2010 C.2     1  UNL1        0.0140
     16  C         26.1780  -19.8220  -13.3690 C.2     1  UNL1       -0.0060
     17  C         26.4350  -19.2130  -14.6050 C.2     1  UNL1        0.0150
     18  C         25.2860  -20.9190  -13.3230 C.2     1  UNL1        0.0900
     19  C         25.8140  -19.6820  -15.7540 C.2     1  UNL1        0.0200
     20  C         24.9510  -20.7480  -15.6270 C.2     1  UNL1        0.1170
     21  N         24.6850  -21.3570  -14.4510 N.2     1  UNL1       -0.2590
     22  C         19.6160  -22.1510   -6.7080 C.2     1  UNL1        0.2560
     23  N         18.5730  -23.0580   -6.6820 N.am    1  UNL1       -0.3230
     24  H         18.5780  -23.7830   -7.3870 H       1  UNL1        0.1690
     25  O         19.7210  -21.1220   -6.0520 O.2     1  UNL1       -0.2670
     26  C         17.4410  -23.0400   -5.8400 C.2     1  UNL1        0.0350
     27  C         17.5520  -23.6950   -4.6080 C.2     1  UNL1        0.0290
     28  C         16.4760  -23.7250   -3.7170 C.2     1  UNL1        0.0030
     29  C         15.2790  -23.0940   -4.0480 C.2     1  UNL1        0.0070
     30  C         15.1550  -22.4190   -5.2660 C.2     1  UNL1       -0.0600
     31  C         13.8590  -21.7630   -5.6430 C.3     1  UNL1        0.0480
     32  C         16.2370  -22.4070   -6.1610 C.2     1  UNL1        0.0360
@<TRIPOS>BOND
     1    19    20    1
     2    19    17    2
     3    20    21    2
     4    17    16    1
     5    21    18    1
     6    16    18    1
     7    16    15    2
     8    18    12    2
     9    11     9    2
    10    10     9    2
    11    15    14    1
    12    12     9    1
    13    12    13    1
    14     9     7    1
    15    14    13    2
    16     7     8    1
    17     7     4    1
    18     4     3    2
    19     4     5    1
    20     3     2    1
    21     5     6    2
    22     2     1    2
    23     6     1    1
    24     1    22    1
    25    24    23    1
    26    22    23   am
    27    22    25    2
    28    23    26    1
    29    32    26    2
    30    32    30    1
    31    26    27    1
    32    31    30    1
    33    30    29    2
    34    27    28    2
    35    29    28    1
