@<TRIPOS>MOLECULE
22912_out_ligand_01.pdbqt
 27 30 0 0 0
SMALL
GASTEIGER

@<TRIPOS>ATOM
      1  C         20.9490  -22.3790  -10.5920 C.2     1  UNL1        0.0430
      2  C         22.1710  -22.9870  -10.2460 C.2     1  UNL1        0.0180
      3  C         22.2450  -23.9200   -9.2000 C.2     1  UNL1        0.0020
      4  C         21.0990  -24.2570   -8.4840 C.2     1  UNL1        0.0150
      5  C         19.9060  -23.6600   -8.8630 C.2     1  UNL1        0.0070
      6  C         19.7890  -22.7410   -9.9190 C.2     1  UNL1        0.0030
      7  C         18.3850  -22.3890  -10.0650 C.3     1  UNL1       -0.0110
      8  C         17.7350  -21.6060  -11.0100 C.2     1  UNL1        0.0130
      9  C         16.3460  -21.4460  -10.9220 C.2     1  UNL1        0.0010
     10  C         15.6120  -22.0780   -9.9090 C.2     1  UNL1        0.0010
     11  C         16.2520  -22.8890   -8.9710 C.2     1  UNL1        0.0140
     12  C         17.6270  -23.0360   -9.0650 C.2     1  UNL1        0.0060
     13  C         18.5690  -23.8570   -8.2630 C.2     1  UNL1        0.0930
     14  N         18.4020  -24.6270   -7.2340 N.pl3   1  UNL1       -0.1950
     15  N         17.1400  -24.7400   -6.7390 N.pl3   1  UNL1       -0.1820
     16  H         16.4280  -24.5610   -7.4500 H       1  UNL1        0.1550
     17  C         16.8230  -23.9360   -5.6060 C.2     1  UNL1        0.0290
     18  C         17.7550  -23.6560   -4.5980 C.2     1  UNL1        0.0250
     19  C         17.3860  -22.9360   -3.4590 C.2     1  UNL1        0.0020
     20  C         16.0700  -22.5090   -3.3000 C.2     1  UNL1        0.0000
     21  C         15.1220  -22.8090   -4.2740 C.2     1  UNL1        0.0020
     22  C         15.4950  -23.5290   -5.4120 C.2     1  UNL1        0.0250
     23  C         21.0000  -21.3460  -11.6420 C.2     1  UNL1        0.2500
     24  N         21.6110  -21.7100  -12.8070 N.am    1  UNL1       -0.3660
     25  H         21.5640  -21.0620  -13.5830 H       1  UNL1        0.1590
     26  H         21.9430  -22.6500  -12.9820 H       1  UNL1        0.1590
     27  O         20.4600  -20.2590  -11.4990 O.2     1  UNL1       -0.2680
@<TRIPOS>BOND
     1    25    24    1
     2    26    24    1
     3    24    23   am
     4    23    27    2
     5    23     1    1
     6     8     9    2
     7     8     7    1
     8     9    10    1
     9     1     2    2
    10     1     6    1
    11     2     3    1
    12     7     6    1
    13     7    12    1
    14     6     5    2
    15    10    11    2
    16     3     4    2
    17    12    11    1
    18    12    13    2
    19     5     4    1
    20     5    13    1
    21    13    14    1
    22    16    15    1
    23    14    15    1
    24    15    17    1
    25    17    22    2
    26    17    18    1
    27    22    21    1
    28    18    19    2
    29    21    20    2
    30    19    20    1
