@<TRIPOS>MOLECULE
22932_out_ligand_01.pdbqt
 41 44 0 0 0
SMALL
GASTEIGER

@<TRIPOS>ATOM
      1  C         20.3800  -23.8470   -9.1600 C.ar    1  UNL1        0.1610
      2  N         21.6690  -24.2090   -8.9900 N.ar    1  UNL1       -0.1310
      3  N         22.6700  -23.6050   -9.6960 N.ar    1  UNL1       -0.1470
      4  C         22.3820  -22.6260  -10.5820 C.ar    1  UNL1        0.1000
      5  C         21.0580  -22.2130  -10.8260 C.ar    1  UNL1        0.0090
      6  C         20.7070  -21.2130  -11.7700 C.2     1  UNL1        0.0150
      7  C         19.3820  -20.8340  -11.9810 C.2     1  UNL1        0.0010
      8  C         18.3690  -21.4520  -11.2660 C.2     1  UNL1        0.0010
      9  C         18.6870  -22.4480  -10.3390 C.2     1  UNL1        0.0160
     10  C         20.0270  -22.8440  -10.0920 C.ar    1  UNL1        0.0240
     11  C         23.5620  -22.0580  -11.2470 C.2     1  UNL1       -0.0030
     12  C         24.6010  -21.4760  -10.5090 C.2     1  UNL1        0.0140
     13  C         25.7070  -20.9120  -11.1520 C.2     1  UNL1        0.0090
     14  C         25.8140  -20.9160  -12.5520 C.2     1  UNL1       -0.0390
     15  C         27.0110  -20.2540  -13.1750 C.3     1  UNL1        0.0500
     16  C         24.7990  -21.5470  -13.2920 C.2     1  UNL1        0.0860
     17  C         23.6810  -22.0980  -12.6430 C.2     1  UNL1        0.0390
     18  S         24.8320  -21.6760  -15.0720 S.O2    1  UNL1        0.2600
     19  O         23.5180  -22.0030  -15.5800 O.2     1  UNL1       -0.2000
     20  O         25.9870  -22.4900  -15.3900 O.2     1  UNL1       -0.2000
     21  N         25.2190  -20.1310  -15.5850 N.3     1  UNL1       -0.3070
     22  H         25.3040  -19.4780  -14.8050 H       1  UNL1        0.1730
     23  C         25.8820  -19.7740  -16.8540 C.3     1  UNL1        0.0290
     24  C         26.3300  -18.3070  -16.7090 C.3     1  UNL1        0.0380
     25  C         27.1200  -20.6570  -17.0500 C.3     1  UNL1        0.0380
     26  C         24.9480  -19.8750  -18.0610 C.3     1  UNL1        0.0380
     27  N         19.3610  -24.4510   -8.3690 N.pl3   1  UNL1       -0.3390
     28  H         18.8230  -25.0710   -8.9670 H       1  UNL1        0.1670
     29  C         18.5550  -23.8300   -7.3910 C.2     1  UNL1        0.0340
     30  C         17.3070  -24.3800   -7.0820 C.2     1  UNL1        0.0320
     31  C         16.5000  -23.8270   -6.0820 C.2     1  UNL1        0.0400
     32  C         16.9310  -22.7210   -5.3380 C.2     1  UNL1        0.0840
     33  C         18.2070  -22.1840   -5.6050 C.2     1  UNL1        0.0670
     34  C         19.0030  -22.7490   -6.6220 C.2     1  UNL1        0.0490
     35  O         16.1860  -22.1650   -4.3270 O.2     1  UNL1       -0.3550
     36  C         14.7700  -22.1760   -4.4690 C.3     1  UNL1        0.2100
     37  C         18.8150  -21.0370   -4.8590 C.2     1  UNL1        0.2520
     38  N         18.6180  -20.9650   -3.5110 N.am    1  UNL1       -0.3660
     39  H         18.2250  -21.7510   -3.0040 H       1  UNL1        0.1590
     40  H         19.1100  -20.2420   -3.0010 H       1  UNL1        0.1590
     41  O         19.4840  -20.1800   -5.4260 O.2     1  UNL1       -0.2680
@<TRIPOS>BOND
     1    26    23    1
     2    25    23    1
     3    23    24    1
     4    23    21    1
     5    21    18    1
     6    21    22    1
     7    19    18    2
     8    20    18    2
     9    18    16    1
    10    16    17    1
    11    16    14    2
    12    15    14    1
    13    17    11    2
    14    14    13    1
    15     7     6    2
    16     7     8    1
    17     6     5    1
    18     8     9    2
    19    11     4    1
    20    11    12    1
    21    13    12    2
    22     5     4   ar
    23     5    10   ar
    24     4     3   ar
    25     9    10    1
    26    10     1   ar
    27     3     2   ar
    28     1     2   ar
    29     1    27    1
    30    28    27    1
    31    27    29    1
    32    29    30    2
    33    29    34    1
    34    30    31    1
    35    34    33    2
    36    31    32    2
    37    33    32    1
    38    33    37    1
    39    41    37    2
    40    32    35    1
    41    37    38   am
    42    36    35    1
    43    38    39    1
    44    38    40    1
