@<TRIPOS>MOLECULE
22959_out_ligand_01.pdbqt
 31 33 0 0 0
SMALL
GASTEIGER

@<TRIPOS>ATOM
      1  C         18.9890  -24.4560   -7.9510 C.3     1  UNL1        0.2440
      2  N         18.2290  -23.1960   -7.8120 N.pl3   1  UNL1       -0.2670
      3  S         16.8870  -22.9230   -8.7820 S.O2    1  UNL1        0.2290
      4  C         15.8810  -24.3630   -8.4830 C.3     1  UNL1        0.1860
      5  O         17.3620  -22.9950  -10.1520 O.2     1  UNL1       -0.2060
      6  O         16.1610  -21.7630   -8.3180 O.2     1  UNL1       -0.2060
      7  C         18.3790  -22.4360   -6.6020 C.2     1  UNL1        0.0560
      8  C         19.3400  -21.4180   -6.5650 C.2     1  UNL1        0.0310
      9  C         19.5190  -20.6680   -5.4070 C.2     1  UNL1        0.0030
     10  C         18.7390  -20.9300   -4.2830 C.2     1  UNL1        0.0120
     11  C         17.7650  -21.9410   -4.2980 C.2     1  UNL1       -0.0240
     12  C         16.9790  -22.1870   -3.1600 C.2     1  UNL1        0.0120
     13  C         17.5710  -22.7140   -5.4680 C.2     1  UNL1        0.0020
     14  C         16.0020  -23.1820   -3.1630 C.2     1  UNL1        0.0010
     15  C         15.7980  -23.9450   -4.3050 C.2     1  UNL1        0.0010
     16  C         16.5730  -23.7160   -5.4440 C.2     1  UNL1        0.0140
     17  C         20.1990  -24.2750   -8.8610 C.2     1  UNL1        0.2410
     18  O         21.1310  -25.0750   -8.8240 O.2     1  UNL1       -0.2710
     19  N         20.0880  -23.1870   -9.7110 N.am    1  UNL1       -0.3260
     20  H         19.2300  -22.6380   -9.6340 H       1  UNL1        0.1690
     21  C         21.0260  -22.7240  -10.6530 C.2     1  UNL1        0.0340
     22  C         20.5400  -21.9030  -11.6800 C.2     1  UNL1        0.0300
     23  C         21.4000  -21.3890  -12.6560 C.2     1  UNL1        0.0190
     24  C         22.7650  -21.6880  -12.6110 C.2     1  UNL1        0.0320
     25  C         23.2520  -22.5190  -11.5970 C.2     1  UNL1        0.0190
     26  C         22.3870  -23.0290  -10.6200 C.2     1  UNL1        0.0300
     27  C         23.7230  -21.1680  -13.6220 C.2     1  UNL1        0.2490
     28  N         23.2180  -20.3900  -14.6280 N.am    1  UNL1       -0.3660
     29  H         23.9070  -19.9390  -15.2160 H       1  UNL1        0.1590
     30  H         22.3150  -19.9440  -14.5520 H       1  UNL1        0.1590
     31  O         24.9250  -21.3910  -13.5490 O.2     1  UNL1       -0.2680
@<TRIPOS>BOND
     1    29    28    1
     2    28    30    1
     3    28    27   am
     4    27    31    2
     5    27    24    1
     6    23    24    2
     7    23    22    1
     8    24    25    1
     9    22    21    2
    10    25    26    2
    11    21    26    1
    12    21    19    1
    13     5     3    2
    14    19    20    1
    15    19    17   am
    16    17    18    2
    17    17     1    1
    18     3     4    1
    19     3     6    2
    20     3     2    1
    21     1     2    1
    22     2     7    1
    23     7     8    2
    24     7    13    1
    25     8     9    1
    26    13    16    1
    27    13    11    2
    28    16    15    2
    29     9    10    2
    30    15    14    1
    31    11    10    1
    32    11    12    1
    33    14    12    2
