@<TRIPOS>MOLECULE
22964_out_ligand_01.pdbqt
 29 32 0 0 0
SMALL
GASTEIGER

@<TRIPOS>ATOM
      1  C         22.2250  -22.5400  -10.9110 C.2     1  UNL1        0.0320
      2  C         22.4110  -23.0820   -9.6330 C.2     1  UNL1        0.0170
      3  C         21.3610  -23.0700   -8.7110 C.2     1  UNL1        0.0100
      4  C         20.1130  -22.5270   -9.0560 C.2     1  UNL1       -0.0300
      5  C         19.9290  -22.0060  -10.3440 C.2     1  UNL1        0.0100
      6  C         20.9770  -22.0170  -11.2680 C.2     1  UNL1        0.0170
      7  C         23.3190  -22.5260  -11.9230 C.2     1  UNL1        0.2560
      8  N         23.1330  -21.6360  -12.9660 N.am    1  UNL1       -0.3230
      9  H         22.2400  -21.1630  -13.0070 H       1  UNL1        0.1690
     10  O         24.2530  -23.3050  -11.7780 O.2     1  UNL1       -0.2670
     11  C         24.0120  -21.3800  -14.0390 C.2     1  UNL1        0.0350
     12  C         23.9700  -22.2630  -15.1270 C.2     1  UNL1        0.0370
     13  C         24.8010  -22.0910  -16.2500 C.2     1  UNL1       -0.0430
     14  C         24.7140  -23.0720  -17.3860 C.3     1  UNL1        0.0490
     15  C         25.6860  -21.0040  -16.2640 C.2     1  UNL1        0.0170
     16  C         25.7310  -20.1180  -15.1860 C.2     1  UNL1        0.0220
     17 BR         26.8540  -20.6750  -17.7250 Br      1  UNL1       -0.0510
     18  C         24.8970  -20.3040  -14.0800 C.2     1  UNL1        0.0310
     19  C         18.9750  -22.5250   -8.0540 C.3     1  UNL1        0.3110
     20  N         18.2000  -23.7760   -8.0710 N.3     1  UNL1        0.0970
     21  C         16.9220  -23.6210   -8.7850 C.3     1  UNL1        0.2770
     22  C         15.9330  -22.6510   -8.1200 C.3     1  UNL1        0.0690
     23  C         15.8700  -22.8150   -6.6230 C.2     1  UNL1       -0.0490
     24  C         14.8620  -22.1730   -5.8910 C.2     1  UNL1        0.0070
     25  C         16.8550  -23.5590   -5.9490 C.2     1  UNL1       -0.0240
     26  C         14.8190  -22.2860   -4.5020 C.2     1  UNL1        0.0010
     27  C         15.7840  -23.0350   -3.8330 C.2     1  UNL1        0.0010
     28  C         16.7950  -23.6720   -4.5530 C.2     1  UNL1        0.0090
     29  C         17.9340  -24.2960   -6.7160 C.3     1  UNL1        0.3110
@<TRIPOS>BOND
     1    17    15    1
     2    14    13    1
     3    15    13    2
     4    15    16    1
     5    13    12    1
     6    16    18    2
     7    12    11    2
     8    18    11    1
     9    11     8    1
    10     9     8    1
    11     8     7   am
    12     7    10    2
    13     7     1    1
    14     6     1    2
    15     6     5    1
    16     1     2    1
    17     5     4    2
    18     2     3    2
    19     4     3    1
    20     4    19    1
    21    21    22    1
    22    21    20    1
    23    22    23    1
    24    20    19    1
    25    20    29    1
    26    29    25    1
    27    23    25    2
    28    23    24    1
    29    25    28    1
    30    24    26    2
    31    28    27    2
    32    26    27    1
