@<TRIPOS>MOLECULE
22966_out_ligand_01.pdbqt
 32 37 0 0 0
SMALL
GASTEIGER

@<TRIPOS>ATOM
      1  S         19.9410  -23.5120   -9.0100 S.O2    1  UNL1        0.2460
      2  O         20.4310  -24.8450   -8.7260 O.2     1  UNL1       -0.2060
      3  O         19.0570  -23.2420  -10.1220 O.2     1  UNL1       -0.2060
      4  C         19.1590  -22.8960   -7.5350 C.2     1  UNL1        0.0860
      5  C         19.8440  -21.9180   -6.7630 C.2     1  UNL1        0.0280
      6  C         19.2770  -21.3870   -5.5940 C.2     1  UNL1        0.0320
      7  C         18.0370  -21.8540   -5.2290 C.2     1  UNL1        0.0470
      8  N         17.2410  -21.5170   -4.1400 N.am    1  UNL1       -0.3220
      9  C         17.3890  -22.8010   -5.9770 C.2     1  UNL1        0.0180
     10  C         16.0660  -22.2540   -4.1840 C.2     1  UNL1        0.2570
     11  H         17.4570  -20.8510   -3.4140 H       1  UNL1        0.1690
     12  O         15.1350  -22.2280   -3.4070 O.2     1  UNL1       -0.2670
     13  C         16.1800  -23.0940   -5.3970 C.2     1  UNL1        0.0450
     14  C         15.3290  -24.0240   -5.9540 C.2     1  UNL1        0.0180
     15  C         15.7530  -24.6560   -7.1300 C.2     1  UNL1        0.0020
     16  C         17.0020  -24.3470   -7.7220 C.2     1  UNL1        0.0140
     17  C         17.8770  -23.3820   -7.1440 C.2     1  UNL1        0.0000
     18  N         21.3240  -22.5100   -9.0920 N.pl3   1  UNL1       -0.1810
     19  H         22.0890  -23.0160   -8.6430 H       1  UNL1        0.1460
     20  C         21.6850  -22.1370  -10.4310 C.2     1  UNL1        0.0230
     21  C         20.7900  -21.3750  -11.1870 C.2     1  UNL1        0.0270
     22  C         21.0820  -21.0200  -12.5080 C.2     1  UNL1        0.0400
     23  C         22.2910  -21.4780  -13.0240 C.ar    1  UNL1        0.0860
     24  O         22.7510  -21.2400  -14.2880 O.2     1  UNL1       -0.3140
     25  C         23.2010  -22.2580  -12.3080 C.ar    1  UNL1        0.0080
     26  C         23.9410  -21.8760  -14.3780 C.ar    1  UNL1        0.0610
     27  C         24.2710  -22.5120  -13.2020 C.ar    1  UNL1       -0.0150
     28  C         24.7290  -21.8110  -15.6290 C.3     1  UNL1        0.0660
     29  C         25.5270  -23.2960  -13.0570 C.3     1  UNL1        0.0420
     30  C         26.5210  -22.9520  -14.1880 C.3     1  UNL1        0.0050
     31  C         25.8420  -22.8780  -15.5730 C.3     1  UNL1        0.0070
     32  C         22.8890  -22.6050  -10.9810 C.2     1  UNL1        0.0390
@<TRIPOS>BOND
     1    28    31    1
     2    28    26    1
     3    31    30    1
     4    26    24   ar
     5    26    27   ar
     6    24    23   ar
     7    30    29    1
     8    27    29    1
     9    27    25   ar
    10    23    22    2
    11    23    25   ar
    12    22    21    1
    13    25    32    2
    14    21    20    2
    15    32    20    1
    16    20    18    1
    17     3     1    2
    18    18     1    1
    19    18    19    1
    20     1     2    2
    21     1     4    1
    22    16    17    1
    23    16    15    2
    24     4    17    2
    25     4     5    1
    26    17     9    1
    27    15    14    1
    28     5     6    2
    29     9    13    1
    30     9     7    2
    31    14    13    2
    32     6     7    1
    33    13    10    1
    34     7     8    1
    35    10     8   am
    36    10    12    2
    37     8    11    1
