@<TRIPOS>MOLECULE
22970_out_ligand_01.pdbqt
 36 40 0 0 0
SMALL
GASTEIGER

@<TRIPOS>ATOM
      1  C         20.8050  -22.3690  -10.8320 C.2     1  UNL1        0.0340
      2  C         20.3160  -21.5660  -11.8710 C.2     1  UNL1        0.0300
      3  C         21.1530  -21.1530  -12.9140 C.2     1  UNL1        0.0190
      4  C         22.4980  -21.5350  -12.9250 C.2     1  UNL1        0.0320
      5  C         22.9840  -22.3500  -11.8980 C.2     1  UNL1        0.0190
      6  C         22.1440  -22.7610  -10.8560 C.2     1  UNL1        0.0300
      7  N         19.8890  -22.7420   -9.8280 N.am    1  UNL1       -0.3270
      8  C         19.9930  -23.7850   -8.9250 C.2     1  UNL1        0.2260
      9  O         20.9280  -24.5800   -8.8540 O.2     1  UNL1       -0.2730
     10  H         19.0780  -22.1410   -9.7350 H       1  UNL1        0.1690
     11  C         18.7850  -23.9620   -8.0090 C.3     1  UNL1        0.1420
     12  C         18.7080  -22.9930   -6.8430 C.2     1  UNL1       -0.0380
     13  C         19.6960  -21.9930   -6.7750 C.2     1  UNL1        0.0080
     14  C         19.6840  -21.0470   -5.7570 C.2     1  UNL1        0.0010
     15  C         18.6780  -21.0790   -4.7950 C.2     1  UNL1        0.0120
     16  C         17.6710  -22.0540   -4.8380 C.2     1  UNL1       -0.0250
     17  C         16.6600  -22.0540   -3.8620 C.2     1  UNL1        0.0120
     18  C         17.6710  -23.0320   -5.8650 C.2     1  UNL1       -0.0190
     19  C         15.6420  -23.0040   -3.8840 C.2     1  UNL1        0.0010
     20  C         15.6220  -23.9680   -4.8810 C.2     1  UNL1        0.0010
     21  C         16.6220  -23.9830   -5.8570 C.2     1  UNL1        0.0130
     22  C         23.4280  -21.1290  -14.0150 C.2     1  UNL1        0.2510
     23  O         23.2570  -21.5430  -15.1550 O.2     1  UNL1       -0.2680
     24  N         24.4780  -20.3110  -13.6460 N.am    1  UNL1       -0.3540
     25  H         24.7310  -20.3110  -12.6660 H       1  UNL1        0.1620
     26  C         25.5520  -20.0060  -14.5830 C.3     1  UNL1        0.1590
     27  C         26.8150  -20.8950  -14.4360 C.3     1  UNL1        0.1720
     28  O         27.1210  -21.5300  -15.6940 O.3     1  UNL1       -0.3790
     29  C         26.2480  -22.6210  -15.9920 C.3     1  UNL1        0.1730
     30  C         26.4660  -23.7580  -15.0040 C.3     1  UNL1        0.0650
     31  C         26.4830  -23.2680  -13.5800 C.2     1  UNL1       -0.0470
     32  C         26.3700  -24.1850  -12.5270 C.2     1  UNL1        0.0080
     33  C         26.7210  -21.9080  -13.3050 C.2     1  UNL1       -0.0210
     34  C         26.4950  -23.7600  -11.2040 C.2     1  UNL1        0.0010
     35  C         26.7600  -22.4230  -10.9260 C.2     1  UNL1        0.0010
     36  C         26.8810  -21.5040  -11.9690 C.2     1  UNL1        0.0100
@<TRIPOS>BOND
     1    29    28    1
     2    29    30    1
     3    28    27    1
     4    23    22    2
     5    30    31    1
     6    26    27    1
     7    26    24    1
     8    27    33    1
     9    22    24   am
    10    22     4    1
    11    24    25    1
    12    31    33    2
    13    31    32    1
    14    33    36    1
    15     4     3    2
    16     4     5    1
    17     3     2    1
    18    32    34    2
    19    36    35    2
    20     5     6    2
    21     2     1    2
    22    34    35    1
    23     6     1    1
    24     1     7    1
    25     7    10    1
    26     7     8   am
    27     8     9    2
    28     8    11    1
    29    11    12    1
    30    12    13    2
    31    12    18    1
    32    13    14    1
    33    18    21    1
    34    18    16    2
    35    21    20    2
    36    14    15    2
    37    20    19    1
    38    16    15    1
    39    16    17    1
    40    19    17    2
