@<TRIPOS>MOLECULE
229_out_ligand_01.pdbqt
 34 36 0 0 0
SMALL
GASTEIGER

@<TRIPOS>ATOM
      1  C         19.2110  -22.1860  -10.1800 C.2     1  UNL1        0.0330
      2  C         18.9960  -21.5310  -11.4020 C.2     1  UNL1        0.0170
      3  C         20.0800  -21.1930  -12.2170 C.2     1  UNL1        0.0030
      4  C         21.3790  -21.5010  -11.8160 C.2     1  UNL1        0.0250
      5  C         21.5890  -22.1580  -10.5990 C.2     1  UNL1        0.0800
      6  C         20.5100  -22.5300   -9.7910 C.2     1  UNL1        0.0420
      7  S         23.2390  -22.5580  -10.0850 S.O2    1  UNL1        0.2630
      8  O         23.1420  -23.4350   -8.9370 O.2     1  UNL1       -0.2000
      9  O         24.0140  -21.3380  -10.0290 O.2     1  UNL1       -0.2000
     10  N         23.7960  -23.5220  -11.3500 N.pl3   1  UNL1       -0.2790
     11  H         23.8010  -24.5160  -11.1240 H       1  UNL1        0.1790
     12  C         24.8000  -23.0090  -12.2230 C.2     1  UNL1        0.0650
     13  C         24.4140  -22.4280  -13.4340 C.2     1  UNL1        0.0480
     14  C         25.3740  -21.9180  -14.3240 C.2     1  UNL1        0.0500
     15  C         26.7310  -21.9960  -13.9760 C.2     1  UNL1        0.0180
     16  C         27.1210  -22.5550  -12.7560 C.2     1  UNL1        0.0270
     17  C         26.1590  -23.0540  -11.8770 C.2     1  UNL1        0.0610
     18 CL         26.6940  -23.7020  -10.3680 Cl      1  UNL1       -0.0820
     19  C         24.9360  -21.3170  -15.6390 C.3     1  UNL1        0.4170
     20  F         24.6220  -22.2510  -16.5790 F       1  UNL1       -0.1660
     21  F         23.8380  -20.5250  -15.5110 F       1  UNL1       -0.1660
     22  F         25.9020  -20.5380  -16.2000 F       1  UNL1       -0.1660
     23  C         18.0840  -22.5440   -9.2760 C.2     1  UNL1        0.2560
     24  O         17.0370  -22.9320   -9.7790 O.2     1  UNL1       -0.2670
     25  N         18.3670  -22.4480   -7.9250 N.am    1  UNL1       -0.3230
     26  H         19.3270  -22.2510   -7.6730 H       1  UNL1        0.1690
     27  C         17.4880  -22.6970   -6.8500 C.2     1  UNL1        0.0360
     28  C         17.9780  -23.4860   -5.7980 C.2     1  UNL1        0.0320
     29  C         17.1770  -23.7770   -4.6920 C.2     1  UNL1        0.0460
     30  C         15.8810  -23.2770   -4.6320 C.2     1  UNL1        0.1380
     31  F         15.1300  -23.5660   -3.5600 F       1  UNL1       -0.2040
     32  C         15.3830  -22.4900   -5.6670 C.2     1  UNL1        0.0740
     33 CL         13.7790  -21.8640   -5.5900 Cl      1  UNL1       -0.0810
     34  C         16.1840  -22.1980   -6.7740 C.2     1  UNL1        0.0560
@<TRIPOS>BOND
     1    20    19    1
     2    22    19    1
     3    19    21    1
     4    19    14    1
     5    14    15    2
     6    14    13    1
     7    15    16    1
     8    13    12    2
     9    16    17    2
    10    12    17    1
    11    12    10    1
    12     3     4    2
    13     3     2    1
    14    17    18    1
    15     4     5    1
    16     2     1    2
    17    10    11    1
    18    10     7    1
    19     5     7    1
    20     5     6    2
    21     1     6    1
    22     1    23    1
    23     7     9    2
    24     7     8    2
    25    24    23    2
    26    23    25   am
    27    25    26    1
    28    25    27    1
    29    27    34    2
    30    27    28    1
    31    34    32    1
    32    28    29    2
    33    32    33    1
    34    32    30    2
    35    29    30    1
    36    30    31    1
