@<TRIPOS>MOLECULE
23022_out_ligand_01.pdbqt
 43 46 0 0 0
SMALL
GASTEIGER

@<TRIPOS>ATOM
      1  C         22.3780  -22.5520  -10.6120 C.ar    1  UNL1        0.1000
      2  N         22.6710  -23.5460   -9.7460 N.ar    1  UNL1       -0.1470
      3  N         21.6750  -24.1650   -9.0430 N.ar    1  UNL1       -0.1310
      4  C         20.3840  -23.8020   -9.1950 C.ar    1  UNL1        0.1610
      5  C         20.0240  -22.7960  -10.1220 C.ar    1  UNL1        0.0240
      6  C         18.6800  -22.4110  -10.3660 C.2     1  UNL1        0.0160
      7  C         18.3540  -21.4190  -11.2920 C.2     1  UNL1        0.0010
      8  C         19.3600  -20.7900  -12.0080 C.2     1  UNL1        0.0010
      9  C         20.6890  -21.1540  -11.7970 C.2     1  UNL1        0.0150
     10  C         21.0510  -22.1500  -10.8530 C.ar    1  UNL1        0.0090
     11  C         23.5640  -21.9590  -11.2500 C.2     1  UNL1       -0.0030
     12  C         23.6860  -21.8870  -12.6460 C.2     1  UNL1        0.0390
     13  C         24.8180  -21.3080  -13.2460 C.2     1  UNL1        0.0810
     14  C         25.8500  -20.7670  -12.4580 C.2     1  UNL1       -0.0390
     15  C         25.7130  -20.8210  -11.0630 C.2     1  UNL1        0.0090
     16  C         27.0690  -20.0970  -13.0300 C.3     1  UNL1        0.0500
     17  C         24.5910  -21.4090  -10.4700 C.2     1  UNL1        0.0140
     18  S         24.8750  -21.2690  -15.0260 S.O2    1  UNL1        0.2420
     19  O         23.6960  -21.9250  -15.5490 O.2     1  UNL1       -0.2060
     20  O         25.2580  -19.9430  -15.4530 O.2     1  UNL1       -0.2060
     21  N         26.1460  -22.3290  -15.3560 N.3     1  UNL1       -0.2060
     22  H         26.8010  -22.3260  -14.5660 H       1  UNL1        0.1400
     23  C         25.6930  -23.7280  -15.6070 C.3     1  UNL1        0.2150
     24  C         26.5290  -24.6820  -14.7780 C.2     1  UNL1        0.2720
     25  O         26.7880  -25.8340  -15.1100 O.2     1  UNL1       -0.2640
     26  O         26.9710  -24.0690  -13.6470 O.3     1  UNL1       -0.3210
     27  C         26.2560  -24.4370  -12.4590 C.3     1  UNL1        0.1740
     28  C         27.1210  -24.0960  -11.2610 C.3     1  UNL1        0.0340
     29  N         19.3720  -24.4250   -8.4130 N.pl3   1  UNL1       -0.3390
     30  H         18.8710  -25.0830   -9.0040 H       1  UNL1        0.1670
     31  C         18.5130  -23.8220   -7.4700 C.2     1  UNL1        0.0340
     32  C         17.1530  -24.1180   -7.3850 C.2     1  UNL1        0.0320
     33  C         16.3210  -23.4560   -6.4740 C.2     1  UNL1        0.0400
     34  C         16.8210  -22.4550   -5.6340 C.2     1  UNL1        0.0840
     35  C         18.1840  -22.1130   -5.7340 C.2     1  UNL1        0.0670
     36  C         19.0050  -22.7920   -6.6590 C.2     1  UNL1        0.0490
     37  O         16.0490  -21.7850   -4.7180 O.2     1  UNL1       -0.3550
     38  C         14.9120  -22.4550   -4.1890 C.3     1  UNL1        0.2100
     39  C         18.8640  -21.0560   -4.9220 C.2     1  UNL1        0.2520
     40  N         18.5440  -20.9400   -3.6020 N.am    1  UNL1       -0.3660
     41  H         17.8690  -21.5590   -3.1660 H       1  UNL1        0.1590
     42  H         19.0140  -20.2390   -3.0470 H       1  UNL1        0.1590
     43  O         19.6970  -20.3020   -5.4140 O.2     1  UNL1       -0.2680
@<TRIPOS>BOND
     1    23    21    1
     2    23    24    1
     3    19    18    2
     4    20    18    2
     5    21    18    1
     6    21    22    1
     7    25    24    2
     8    18    13    1
     9    24    26    1
    10    26    27    1
    11    13    12    1
    12    13    14    2
    13    16    14    1
    14    12    11    2
    15    27    28    1
    16    14    15    1
    17     8     9    2
    18     8     7    1
    19     9    10    1
    20     7     6    2
    21    11     1    1
    22    11    17    1
    23    15    17    2
    24    10     1   ar
    25    10     5   ar
    26     1     2   ar
    27     6     5    1
    28     5     4   ar
    29     2     3   ar
    30     4     3   ar
    31     4    29    1
    32    30    29    1
    33    29    31    1
    34    31    32    2
    35    31    36    1
    36    32    33    1
    37    36    35    2
    38    33    34    2
    39    35    34    1
    40    35    39    1
    41    34    37    1
    42    43    39    2
    43    39    40   am
    44    37    38    1
    45    40    41    1
    46    40    42    1
