@<TRIPOS>MOLECULE
23035_out_ligand_01.pdbqt
 31 34 0 0 0
SMALL
GASTEIGER

@<TRIPOS>ATOM
      1  C         20.5820  -22.2350   -9.2060 C.2     1  UNL1        0.0340
      2  C         20.5790  -22.2940  -10.6030 C.2     1  UNL1        0.0310
      3  C         21.7770  -22.2040  -11.3210 C.2     1  UNL1        0.0270
      4  C         22.9840  -22.0600  -10.6370 C.2     1  UNL1        0.0750
      5  C         23.0020  -21.9830   -9.2440 C.2     1  UNL1        0.0270
      6  C         21.8020  -22.0740   -8.5340 C.2     1  UNL1        0.0310
      7  N         19.4200  -22.3110   -8.4120 N.am    1  UNL1       -0.3260
      8  C         18.8400  -23.4450   -7.8560 C.2     1  UNL1        0.2350
      9  O         19.2900  -24.5840   -7.9430 O.2     1  UNL1       -0.2720
     10  H         19.0120  -21.4250   -8.1430 H       1  UNL1        0.1690
     11  C         17.5060  -23.1460   -7.1040 C.3     1  UNL1        0.0680
     12  C         16.6490  -24.4270   -6.9610 C.3     1  UNL1        0.0240
     13  C         15.9120  -24.6040   -8.2900 C.3     1  UNL1        0.0020
     14  C         16.0440  -23.2820   -9.0360 C.3     1  UNL1        0.0020
     15  C         16.5880  -22.2950   -8.0090 C.3     1  UNL1        0.0240
     16  C         17.8160  -22.5450   -5.7260 C.2     1  UNL1       -0.0400
     17  C         17.3450  -23.1940   -4.5700 C.2     1  UNL1        0.0080
     18  C         17.6300  -22.6970   -3.2970 C.2     1  UNL1        0.0010
     19  C         18.3960  -21.5450   -3.1540 C.2     1  UNL1        0.0000
     20  C         18.8780  -20.8910   -4.2850 C.2     1  UNL1        0.0010
     21  C         18.5950  -21.3870   -5.5610 C.2     1  UNL1        0.0080
     22  S         24.5090  -21.9190  -11.5320 S.O2    1  UNL1        0.2470
     23  O         25.4320  -21.1320  -10.7430 O.2     1  UNL1       -0.2050
     24  O         24.1920  -21.5320  -12.8930 O.2     1  UNL1       -0.2050
     25  N         24.9930  -23.5270  -11.6400 N.pl3   1  UNL1       -0.1590
     26  H         24.1930  -24.1280  -11.4560 H       1  UNL1        0.1480
     27  C         25.6710  -23.8240  -12.8780 C.2     1  UNL1        0.1580
     28  N         25.1540  -24.6590  -13.7450 N.2     1  UNL1       -0.2400
     29  C         25.9840  -24.7290  -14.8480 C.2     1  UNL1        0.1260
     30  C         27.0960  -23.9140  -14.8110 C.2     1  UNL1        0.0720
     31  S         27.1040  -23.0240  -13.3440 S.3     1  UNL1       -0.0680
@<TRIPOS>BOND
     1    29    30    2
     2    29    28    1
     3    30    31    1
     4    28    27    2
     5    31    27    1
     6    24    22    2
     7    27    25    1
     8    25    22    1
     9    25    26    1
    10    22    23    2
    11    22     4    1
    12     3     4    2
    13     3     2    1
    14     4     5    1
    15     2     1    2
    16     5     6    2
    17     1     6    1
    18     1     7    1
    19    14    13    1
    20    14    15    1
    21     7    10    1
    22     7     8   am
    23    13    12    1
    24    15    11    1
    25     9     8    2
    26     8    11    1
    27    11    12    1
    28    11    16    1
    29    16    21    2
    30    16    17    1
    31    21    20    1
    32    17    18    2
    33    20    19    2
    34    18    19    1
