@<TRIPOS>MOLECULE
23057_out_ligand_01.pdbqt
 35 39 0 0 0
SMALL
GASTEIGER

@<TRIPOS>ATOM
      1  C         18.5740  -20.9750  -11.2040 C.ar    1  UNL1        0.1960
      2  N         17.3860  -20.4720  -11.4340 N.ar    1  UNL1       -0.1220
      3  N         16.4820  -21.1750  -10.6890 N.ar    1  UNL1       -0.1320
      4  C         17.1330  -22.1120  -10.0210 C.ar    1  UNL1        0.1480
      5  N         18.4940  -21.9920  -10.2610 N.ar    1  UNL1       -0.2740
      6  C         16.4610  -23.2170   -9.2680 C.3     1  UNL1        0.1730
      7  N         17.1850  -23.6630   -8.0660 N.pl3   1  UNL1       -0.2850
      8  H         18.1200  -23.2610   -8.1010 H       1  UNL1        0.1280
      9  C         16.5940  -23.4380   -6.8000 C.2     1  UNL1        0.0190
     10  C         15.4110  -24.1050   -6.4410 C.2     1  UNL1        0.0240
     11  C         14.8040  -23.9080   -5.2030 C.2     1  UNL1        0.0030
     12  C         15.4000  -23.0750   -4.2660 C.2     1  UNL1        0.0120
     13  C         16.6240  -22.4550   -4.5410 C.2     1  UNL1       -0.0240
     14  C         17.2300  -21.6620   -3.5510 C.2     1  UNL1        0.0120
     15  C         17.2500  -22.6400   -5.8060 C.2     1  UNL1       -0.0050
     16  C         18.4600  -21.0500   -3.7740 C.2     1  UNL1        0.0010
     17  C         19.0960  -21.2190   -4.9970 C.2     1  UNL1        0.0010
     18  C         18.5010  -22.0010   -5.9930 C.2     1  UNL1        0.0140
     19  C         19.5520  -22.6820   -9.6200 C.2     1  UNL1        0.0430
     20  C         19.7900  -24.0340   -9.8920 C.2     1  UNL1        0.0300
     21  C         20.8540  -24.6950   -9.2710 C.2     1  UNL1        0.0020
     22  C         21.6800  -24.0130   -8.3810 C.2     1  UNL1        0.0000
     23  C         21.4480  -22.6670   -8.1080 C.2     1  UNL1        0.0020
     24  C         20.3860  -21.9980   -8.7270 C.2     1  UNL1        0.0300
     25  S         20.0470  -20.3180  -11.8350 S.3     1  UNL1       -0.0820
     26  C         20.8060  -21.7920  -12.5720 C.3     1  UNL1        0.1660
     27  C         22.1750  -21.4170  -13.1080 C.2     1  UNL1        0.1690
     28  O         22.3250  -20.6830  -14.0850 O.2     1  UNL1       -0.2910
     29  C         23.3780  -21.9870  -12.4430 C.2     1  UNL1        0.0110
     30  C         24.4460  -22.4060  -13.2480 C.2     1  UNL1        0.0160
     31  C         25.5630  -23.0080  -12.6660 C.2     1  UNL1        0.0200
     32  C         25.6150  -23.1800  -11.2840 C.2     1  UNL1        0.0110
     33 BR         27.1210  -24.0000  -10.4910 Br      1  UNL1       -0.0510
     34  C         24.5650  -22.7430  -10.4760 C.2     1  UNL1        0.0200
     35  C         23.4440  -22.1440  -11.0560 C.2     1  UNL1        0.0160
@<TRIPOS>BOND
     1    28    27    2
     2    30    31    1
     3    30    29    2
     4    27    26    1
     5    27    29    1
     6    31    32    2
     7    26    25    1
     8    29    35    1
     9    25     1    1
    10     2     1   ar
    11     2     3   ar
    12    32    33    1
    13    32    34    1
    14     1     5   ar
    15    35    34    2
    16     3     4   ar
    17     5     4   ar
    18     5    19    1
    19     4     6    1
    20    20    19    2
    21    20    21    1
    22    19    24    1
    23    21    22    2
    24     6     7    1
    25    24    23    2
    26    22    23    1
    27     8     7    1
    28     7     9    1
    29     9    10    2
    30     9    15    1
    31    10    11    1
    32    18    15    1
    33    18    17    2
    34    15    13    2
    35    11    12    2
    36    17    16    1
    37    13    12    1
    38    13    14    1
    39    16    14    2
