@<TRIPOS>MOLECULE
23062_out_ligand_01.pdbqt
 35 38 0 0 0
SMALL
GASTEIGER

@<TRIPOS>ATOM
      1  C         20.7860  -22.3840  -10.7840 C.2     1  UNL1        0.0340
      2  C         19.7160  -21.5550  -11.1350 C.2     1  UNL1        0.0310
      3  C         18.4460  -21.7660  -10.5890 C.2     1  UNL1        0.0270
      4  C         18.2490  -22.8040   -9.6770 C.2     1  UNL1        0.0800
      5  C         19.3020  -23.6520   -9.3300 C.2     1  UNL1        0.0270
      6  C         20.5670  -23.4360   -9.8840 C.2     1  UNL1        0.0310
      7  S         16.6370  -23.0830   -8.9870 S.O2    1  UNL1        0.2630
      8  O         15.9130  -23.9240   -9.9190 O.2     1  UNL1       -0.2000
      9  O         16.0900  -21.8190   -8.5490 O.2     1  UNL1       -0.2000
     10  N         16.9730  -24.0630   -7.6530 N.pl3   1  UNL1       -0.2800
     11  H         16.7450  -25.0380   -7.8430 H       1  UNL1        0.1790
     12  C         16.6590  -23.5610   -6.3520 C.2     1  UNL1        0.0530
     13  C         15.5190  -24.0700   -5.7240 C.2     1  UNL1        0.0310
     14  C         15.1690  -23.6320   -4.4520 C.2     1  UNL1        0.0030
     15  C         15.9550  -22.6810   -3.8050 C.2     1  UNL1        0.0120
     16  C         17.1080  -22.1590   -4.4150 C.2     1  UNL1       -0.0240
     17  C         17.8920  -21.2030   -3.7490 C.2     1  UNL1        0.0120
     18  C         17.4830  -22.6020   -5.7080 C.2     1  UNL1        0.0010
     19  C         19.0430  -20.6820   -4.3380 C.2     1  UNL1        0.0010
     20  C         19.4280  -21.1120   -5.6010 C.2     1  UNL1        0.0010
     21  C         18.6590  -22.0600   -6.2790 C.2     1  UNL1        0.0140
     22  N         22.0900  -22.2370  -11.2910 N.am    1  UNL1       -0.3250
     23  C         23.1910  -21.6810  -10.6660 C.2     1  UNL1        0.2460
     24  O         23.2340  -21.2090   -9.5340 O.2     1  UNL1       -0.2710
     25  H         22.2740  -22.6380  -12.2070 H       1  UNL1        0.1690
     26  C         24.4350  -21.6710  -11.5650 C.3     1  UNL1        0.2780
     27  O         24.9010  -22.9590  -11.9500 O.2     1  UNL1       -0.3420
     28  C         24.9520  -23.2510  -13.2870 C.2     1  UNL1        0.0690
     29  C         24.5170  -22.2210  -14.1210 C.2     1  UNL1        0.0390
     30  C         24.4980  -22.3930  -15.5070 C.2     1  UNL1        0.0390
     31  C         24.9120  -23.5960  -16.0790 C.2     1  UNL1        0.0680
     32  C         25.3430  -24.6290  -15.2460 C.2     1  UNL1        0.0390
     33  C         25.3630  -24.4570  -13.8540 C.2     1  UNL1        0.0390
     34  O         24.8450  -23.6360  -17.4420 O.2     1  UNL1       -0.3560
     35  C         25.0310  -22.4080  -18.1350 C.3     1  UNL1        0.2100
@<TRIPOS>BOND
     1    35    34    1
     2    34    31    1
     3    31    30    2
     4    31    32    1
     5    30    29    1
     6    32    33    2
     7    29    28    2
     8    33    28    1
     9    28    27    1
    10    25    22    1
    11    27    26    1
    12    26    23    1
    13    22     1    1
    14    22    23   am
    15     2     1    2
    16     2     3    1
    17     1     6    1
    18    23    24    2
    19     3     4    2
    20     8     7    2
    21     6     5    2
    22     4     5    1
    23     4     7    1
    24     7     9    2
    25     7    10    1
    26    11    10    1
    27    10    12    1
    28    12    13    2
    29    12    18    1
    30    21    18    1
    31    21    20    2
    32    13    14    1
    33    18    16    2
    34    20    19    1
    35    14    15    2
    36    16    15    1
    37    16    17    1
    38    19    17    2
