@<TRIPOS>MOLECULE
23087_out_ligand_01.pdbqt
 26 28 0 0 0
SMALL
GASTEIGER

@<TRIPOS>ATOM
      1  N         20.1380  -23.0550   -7.9780 N.am    1  UNL1       -0.3230
      2  C         20.8430  -24.0260   -8.6650 C.2     1  UNL1        0.2570
      3  O         20.6060  -25.2240   -8.7250 O.2     1  UNL1       -0.2670
      4  H         20.4620  -22.1010   -8.0900 H       1  UNL1        0.1690
      5  C         19.0050  -23.2380   -7.1610 C.2     1  UNL1        0.0350
      6  C         18.1210  -24.3140   -7.2820 C.2     1  UNL1        0.0310
      7  C         17.0160  -24.4270   -6.4320 C.2     1  UNL1        0.0270
      8  C         16.8020  -23.4640   -5.4460 C.2     1  UNL1        0.0740
      9  C         17.6680  -22.3760   -5.3180 C.2     1  UNL1        0.0270
     10  C         18.7680  -22.2700   -6.1740 C.2     1  UNL1        0.0310
     11  S         15.4010  -23.6010   -4.3690 S.O2    1  UNL1        0.2390
     12  O         14.2260  -23.8360   -5.1730 O.2     1  UNL1       -0.2060
     13  O         15.7610  -24.4420   -3.2510 O.2     1  UNL1       -0.2060
     14  N         15.3000  -22.0370   -3.7510 N.3     1  UNL1       -0.2250
     15  H         16.1120  -21.4620   -3.9760 H       1  UNL1        0.1360
     16  H         15.1400  -22.0920   -2.7440 H       1  UNL1        0.1360
     17  C         21.9820  -23.4900   -9.4500 C.2     1  UNL1        0.0430
     18  C         23.2630  -23.8110   -8.9760 C.2     1  UNL1        0.0180
     19  C         24.3850  -23.4040   -9.6850 C.2     1  UNL1        0.0020
     20  C         24.2310  -22.6750  -10.8650 C.2     1  UNL1        0.0120
     21  C         22.9560  -22.3240  -11.3430 C.2     1  UNL1       -0.0250
     22  C         22.8270  -21.5750  -12.5240 C.2     1  UNL1        0.0120
     23  C         21.7990  -22.7190  -10.6280 C.2     1  UNL1       -0.0100
     24  C         21.5730  -21.1960  -13.0010 C.2     1  UNL1        0.0010
     25  C         20.4290  -21.5530  -12.2990 C.2     1  UNL1        0.0010
     26  C         20.5400  -22.3000  -11.1240 C.2     1  UNL1        0.0130
@<TRIPOS>BOND
     1    24    22    2
     2    24    25    1
     3    22    21    1
     4    25    26    2
     5    21    20    2
     6    21    23    1
     7    26    23    1
     8    20    19    1
     9    23    17    2
    10    19    18    2
    11    17    18    1
    12    17     2    1
    13     3     2    2
    14     2     1   am
    15     4     1    1
    16     1     5    1
    17     6     5    2
    18     6     7    1
    19     5    10    1
    20     7     8    2
    21    10     9    2
    22     8     9    1
    23     8    11    1
    24    12    11    2
    25    11    14    1
    26    11    13    2
    27    15    14    1
    28    14    16    1
