@<TRIPOS>MOLECULE
23109_out_ligand_01.pdbqt
 31 34 0 0 0
SMALL
GASTEIGER

@<TRIPOS>ATOM
      1  C         20.7980  -22.3850   -7.7200 C.2     1  UNL1        0.0320
      2  C         21.9040  -21.5410   -7.8480 C.2     1  UNL1        0.0190
      3  C         22.9230  -21.8500   -8.7540 C.2     1  UNL1        0.0310
      4  C         22.8500  -23.0000   -9.5480 C.2     1  UNL1        0.0420
      5  C         21.7670  -23.8660   -9.3790 C.2     1  UNL1        0.0310
      6  C         20.7400  -23.5580   -8.4780 C.2     1  UNL1        0.0190
      7  N         23.9700  -23.2750  -10.3850 N.pl3   1  UNL1       -0.2810
      8  H         24.9000  -23.3150   -9.9680 H       1  UNL1        0.1790
      9  S         24.0490  -22.8960  -12.0280 S.O2    1  UNL1        0.2650
     10  O         22.7160  -22.4280  -12.3480 O.2     1  UNL1       -0.2000
     11  O         24.6490  -24.0320  -12.6910 O.2     1  UNL1       -0.2000
     12  C         25.1210  -21.4870  -12.1050 C.2     1  UNL1        0.1090
     13  C         25.7110  -20.9950  -10.9270 C.2     1  UNL1        0.0280
     14  C         26.5680  -19.9040  -10.9860 C.2     1  UNL1        0.0030
     15  C         26.8230  -19.3030  -12.2120 C.2     1  UNL1        0.0140
     16  C         26.2150  -19.7840  -13.3850 C.2     1  UNL1       -0.0060
     17  C         26.4650  -19.1610  -14.6160 C.2     1  UNL1        0.0150
     18  C         25.3400  -20.8950  -13.3500 C.2     1  UNL1        0.0900
     19  C         25.8540  -19.6290  -15.7710 C.2     1  UNL1        0.0200
     20  C         25.0080  -20.7090  -15.6530 C.2     1  UNL1        0.1170
     21  N         24.7480  -21.3310  -14.4840 N.2     1  UNL1       -0.2590
     22  C         19.7370  -22.0210   -6.7430 C.2     1  UNL1        0.2520
     23  O         19.8900  -21.0490   -6.0130 O.2     1  UNL1       -0.2680
     24  N         18.6090  -22.8150   -6.7410 N.am    1  UNL1       -0.3520
     25  H         18.5360  -23.5840   -7.3920 H       1  UNL1        0.1630
     26  C         17.5340  -22.6170   -5.7790 C.3     1  UNL1        0.0840
     27  C         17.4510  -23.7940   -4.8010 C.3     1  UNL1        0.0250
     28  C         16.3950  -23.5620   -3.7180 C.3     1  UNL1        0.0020
     29  C         15.2500  -22.6490   -4.1620 C.3     1  UNL1        0.0000
     30  C         14.9740  -22.7760   -5.6530 C.3     1  UNL1        0.0020
     31  C         16.1930  -22.4040   -6.5000 C.3     1  UNL1        0.0250
@<TRIPOS>BOND
     1    19    20    1
     2    19    17    2
     3    20    21    2
     4    17    16    1
     5    21    18    1
     6    16    18    1
     7    16    15    2
     8    18    12    2
     9    11     9    2
    10    10     9    2
    11    15    14    1
    12    12     9    1
    13    12    13    1
    14     9     7    1
    15    14    13    2
    16     7     8    1
    17     7     4    1
    18     4     5    2
    19     4     3    1
    20     5     6    1
    21     3     2    2
    22     6     1    2
    23     2     1    1
    24     1    22    1
    25    25    24    1
    26    22    24   am
    27    22    23    2
    28    24    26    1
    29    31    26    1
    30    31    30    1
    31    26    27    1
    32    30    29    1
    33    27    28    1
    34    29    28    1
