@<TRIPOS>MOLECULE
23132_out_ligand_01.pdbqt
 28 31 0 0 0
SMALL
GASTEIGER

@<TRIPOS>ATOM
      1  C         22.0150  -22.2350   -9.9640 C.2     1  UNL1        0.0320
      2  C         21.1560  -22.1600  -11.0680 C.2     1  UNL1        0.0180
      3  C         19.7740  -22.2730  -10.8890 C.2     1  UNL1        0.0190
      4  C         19.2430  -22.4590   -9.6060 C.2     1  UNL1        0.0450
      5  C         20.0980  -22.5410   -8.5000 C.2     1  UNL1       -0.0380
      6  C         21.4830  -22.4420   -8.6850 C.2     1  UNL1        0.0250
      7  C         19.5040  -22.7830   -7.1410 C.3     1  UNL1        0.0770
      8  C         18.1280  -22.1160   -7.0920 C.3     1  UNL1        0.1690
      9  O         17.3070  -22.6320   -8.1660 O.3     1  UNL1       -0.3070
     10  C         17.7730  -22.6160   -9.4390 C.2     1  UNL1        0.2940
     11  O         17.0360  -22.7460  -10.4060 O.2     1  UNL1       -0.2590
     12  C         23.4960  -22.1260  -10.1030 C.2     1  UNL1        0.2510
     13  O         24.0530  -21.0530   -9.9100 O.2     1  UNL1       -0.2680
     14  N         24.1610  -23.2690  -10.4980 N.am    1  UNL1       -0.3570
     15  H         23.6230  -24.0220  -10.9050 H       1  UNL1        0.1620
     16  C         25.5700  -23.2210  -10.8510 C.3     1  UNL1        0.1280
     17  C         25.8160  -23.3820  -12.3560 C.3     1  UNL1        0.0660
     18  C         25.3700  -22.1730  -13.1330 C.2     1  UNL1       -0.0160
     19  C         24.1910  -21.9940  -13.8310 C.2     1  UNL1        0.0150
     20  C         24.1130  -20.7110  -14.4440 C.2     1  UNL1        0.0080
     21  C         25.2370  -19.9540  -14.2000 C.2     1  UNL1        0.0500
     22  S         26.3760  -20.7880  -13.2370 S.3     1  UNL1       -0.1060
     23  C         17.3480  -22.2870   -5.7990 C.2     1  UNL1       -0.0290
     24  C         15.9650  -22.5360   -5.8780 C.2     1  UNL1        0.0100
     25  C         15.1910  -22.6860   -4.7260 C.2     1  UNL1        0.0010
     26  C         15.7830  -22.5860   -3.4710 C.2     1  UNL1        0.0000
     27  C         17.1510  -22.3380   -3.3710 C.2     1  UNL1        0.0010
     28  C         17.9280  -22.1900   -4.5240 C.2     1  UNL1        0.0100
@<TRIPOS>BOND
     1    20    21    2
     2    20    19    1
     3    21    22    1
     4    19    18    2
     5    22    18    1
     6    18    17    1
     7    17    16    1
     8     2     3    1
     9     2     1    2
    10    15    14    1
    11     3     4    2
    12    16    14    1
    13    14    12   am
    14    11    10    2
    15    12     1    1
    16    12    13    2
    17     1     6    1
    18     4    10    1
    19     4     5    1
    20    10     9    1
    21     6     5    2
    22     5     7    1
    23     9     8    1
    24     7     8    1
    25     8    23    1
    26    24    23    2
    27    24    25    1
    28    23    28    1
    29    25    26    2
    30    28    27    2
    31    26    27    1
