@<TRIPOS>MOLECULE
23159_out_ligand_01.pdbqt
 36 39 0 0 0
SMALL
GASTEIGER

@<TRIPOS>ATOM
      1  C         18.4180  -23.1660   -9.2880 C.2     1  UNL1        0.0790
      2  C         19.5190  -23.8910   -8.8220 C.2     1  UNL1        0.0260
      3  C         20.7950  -23.6240   -9.3330 C.2     1  UNL1        0.0180
      4  C         20.9700  -22.6470  -10.3260 C.2     1  UNL1        0.0320
      5  C         19.8500  -21.9390  -10.7920 C.2     1  UNL1        0.0180
      6  C         18.5750  -22.2010  -10.2830 C.2     1  UNL1        0.0260
      7  C         22.3000  -22.3010  -10.9170 C.2     1  UNL1        0.2510
      8  O         22.4960  -21.1680  -11.3450 O.2     1  UNL1       -0.2680
      9  N         23.2550  -23.2930  -10.9690 N.am    1  UNL1       -0.3540
     10  H         23.0990  -24.1790  -10.5150 H       1  UNL1        0.1620
     11  C         24.6310  -23.0140  -11.3740 C.3     1  UNL1        0.1630
     12  C         24.7380  -22.0380  -12.5890 C.3     1  UNL1        0.2730
     13  C         24.7940  -22.8540  -13.8860 C.2     1  UNL1       -0.0240
     14  C         25.2680  -24.1750  -13.8690 C.2     1  UNL1        0.0090
     15  C         25.3490  -24.9150  -15.0500 C.2     1  UNL1        0.0010
     16  C         24.9550  -24.3470  -16.2600 C.2     1  UNL1        0.0000
     17  C         24.4770  -23.0390  -16.2910 C.2     1  UNL1        0.0010
     18  C         24.3960  -22.2960  -15.1130 C.2     1  UNL1        0.0090
     19  N         25.8940  -21.1170  -12.4860 N.3     1  UNL1        0.0990
     20  C         26.0970  -20.5770  -11.1360 C.3     1  UNL1        0.2730
     21  C         26.9960  -19.3650  -11.3480 C.3     1  UNL1        0.0320
     22  C         26.8670  -19.0260  -12.8270 C.3     1  UNL1        0.0320
     23  C         25.7540  -19.9260  -13.3340 C.3     1  UNL1        0.2730
     24  S         16.7940  -23.5240   -8.6520 S.O2    1  UNL1        0.2630
     25  O         16.9320  -24.6250   -7.7200 O.2     1  UNL1       -0.2000
     26  O         15.8830  -23.6090   -9.7740 O.2     1  UNL1       -0.2000
     27  N         16.4280  -22.1710   -7.7170 N.pl3   1  UNL1       -0.2800
     28  H         15.8100  -21.5220   -8.1950 H       1  UNL1        0.1790
     29  C         16.3440  -22.2760   -6.2960 C.2     1  UNL1        0.0490
     30  C         15.1430  -22.6890   -5.7150 C.2     1  UNL1        0.0310
     31  C         15.0250  -22.7750   -4.3320 C.2     1  UNL1        0.0030
     32  C         16.1130  -22.4620   -3.5230 C.2     1  UNL1        0.0070
     33  C         17.3410  -22.0710   -4.0840 C.2     1  UNL1       -0.0540
     34  C         18.4870  -21.7690   -3.1530 C.3     1  UNL1        0.0490
     35  C         17.4620  -21.9650   -5.4900 C.2     1  UNL1       -0.0290
     36  C         18.7670  -21.5650   -6.1310 C.3     1  UNL1        0.0510
@<TRIPOS>BOND
     1    17    16    2
     2    17    18    1
     3    16    15    1
     4    18    13    2
     5    15    14    2
     6    13    14    1
     7    13    12    1
     8    23    22    1
     9    23    19    1
    10    22    21    1
    11    12    19    1
    12    12    11    1
    13    19    20    1
    14    11     9    1
    15    21    20    1
    16     8     7    2
    17     9     7   am
    18     9    10    1
    19     7     4    1
    20     5     4    2
    21     5     6    1
    22     4     3    1
    23     6     1    2
    24    26    24    2
    25     3     2    2
    26     1     2    1
    27     1    24    1
    28    24    25    2
    29    24    27    1
    30    28    27    1
    31    27    29    1
    32    29    30    2
    33    29    35    1
    34    36    35    1
    35    30    31    1
    36    35    33    2
    37    31    32    2
    38    33    32    1
    39    33    34    1
