@<TRIPOS>MOLECULE
23169_out_ligand_01.pdbqt
 31 33 0 0 0
SMALL
GASTEIGER

@<TRIPOS>ATOM
      1  C         19.3510  -22.5450  -10.1370 C.2     1  UNL1        0.0550
      2  C         18.5890  -23.1690   -9.1330 C.2     1  UNL1        0.0440
      3  C         17.2250  -22.8890   -9.0030 C.2     1  UNL1        0.0810
      4  C         16.5930  -22.0120   -9.8830 C.2     1  UNL1        0.0270
      5  C         17.3380  -21.4020  -10.8920 C.2     1  UNL1        0.0260
      6  C         18.7120  -21.6630  -11.0240 C.2     1  UNL1        0.0490
      7 CL         19.5120  -20.8710  -12.3380 Cl      1  UNL1       -0.0830
      8  C         20.8030  -22.9020  -10.1750 C.2     1  UNL1        0.2570
      9  N         21.6280  -22.0520  -10.8840 N.am    1  UNL1       -0.3230
     10  H         21.1820  -21.2890  -11.3800 H       1  UNL1        0.1690
     11  O         21.1590  -23.8940   -9.5460 O.2     1  UNL1       -0.2670
     12  C         23.0240  -22.1550  -11.0650 C.2     1  UNL1        0.0360
     13  C         23.9700  -21.5240  -10.2530 C.2     1  UNL1        0.0290
     14  C         25.3360  -21.6810  -10.5060 C.2     1  UNL1        0.0040
     15  C         25.7680  -22.4740  -11.5690 C.2     1  UNL1        0.0180
     16  C         24.8350  -23.1170  -12.3840 C.2     1  UNL1        0.0020
     17  C         23.4680  -22.9430  -12.1350 C.2     1  UNL1        0.0480
     18  S         25.3450  -24.1290  -13.7620 S.3     1  UNL1       -0.1340
     19  C         25.2630  -22.8980  -15.0920 C.3     1  UNL1        0.0950
     20  S         16.2830  -23.6880   -7.7260 S.O2    1  UNL1        0.2630
     21  O         15.7530  -24.9140   -8.2850 O.2     1  UNL1       -0.2000
     22  O         15.4070  -22.7100   -7.1160 O.2     1  UNL1       -0.2000
     23  N         17.4820  -24.1430   -6.6250 N.pl3   1  UNL1       -0.2810
     24  H         17.4060  -25.1350   -6.3960 H       1  UNL1        0.1790
     25  C         17.7840  -23.2500   -5.5620 C.2     1  UNL1        0.0430
     26  C         17.4550  -23.6160   -4.2570 C.2     1  UNL1        0.0300
     27  C         17.7590  -22.7590   -3.2010 C.2     1  UNL1        0.0030
     28  C         18.4000  -21.5430   -3.4480 C.2     1  UNL1        0.0070
     29  C         18.7520  -21.1790   -4.7560 C.2     1  UNL1       -0.0600
     30  C         19.4250  -19.8660   -5.0220 C.3     1  UNL1        0.0480
     31  C         18.4230  -22.0370   -5.8150 C.2     1  UNL1        0.0370
@<TRIPOS>BOND
     1    19    18    1
     2    18    16    1
     3    16    17    1
     4    16    15    2
     5     7     6    1
     6    17    12    2
     7    15    14    1
     8    10     9    1
     9    12     9    1
    10    12    13    1
    11     6     5    1
    12     6     1    2
    13     5     4    2
    14     9     8   am
    15    14    13    2
    16     8     1    1
    17     8    11    2
    18     1     2    1
    19     4     3    1
    20     2     3    2
    21     3    20    1
    22    21    20    2
    23    20    22    2
    24    20    23    1
    25    23    24    1
    26    23    25    1
    27    31    25    2
    28    31    29    1
    29    25    26    1
    30    30    29    1
    31    29    28    2
    32    26    27    2
    33    28    27    1
