@<TRIPOS>MOLECULE
23177_out_ligand_01.pdbqt
 31 33 0 0 0
SMALL
GASTEIGER

@<TRIPOS>ATOM
      1  N         21.3230  -21.7730  -12.3670 N.am    1  UNL1       -0.3230
      2  C         20.9170  -21.6610  -11.0490 C.2     1  UNL1        0.2590
      3  O         21.6340  -21.4260  -10.0830 O.2     1  UNL1       -0.2670
      4  H         20.5970  -21.9300  -13.0580 H       1  UNL1        0.1690
      5  C         19.4560  -21.7690  -10.8110 C.2     1  UNL1        0.0680
      6  C         18.6260  -20.9280  -11.5660 C.2     1  UNL1        0.0210
      7  C         17.2470  -20.9820  -11.3990 C.2     1  UNL1        0.0200
      8  C         16.7390  -21.8750  -10.4760 C.2     1  UNL1        0.1180
      9  N         17.5090  -22.6880   -9.7200 N.2     1  UNL1       -0.2530
     10  C         18.8580  -22.6190   -9.8790 C.2     1  UNL1        0.1130
     11  S         19.7590  -23.6940   -8.7710 S.3     1  UNL1       -0.0700
     12  C         18.9950  -23.2570   -7.2200 C.2     1  UNL1        0.0070
     13  C         19.2390  -22.0120   -6.6270 C.2     1  UNL1        0.0200
     14  C         18.6350  -21.6800   -5.4110 C.2     1  UNL1        0.0250
     15  C         17.7820  -22.5910   -4.7890 C.2     1  UNL1        0.0340
     16 CL         17.0400  -22.1830   -3.2930 Cl      1  UNL1       -0.0840
     17  C         17.5260  -23.8280   -5.3760 C.2     1  UNL1        0.0250
     18  C         18.1290  -24.1600   -6.5920 C.2     1  UNL1        0.0200
     19  C         22.6440  -21.7440  -12.8620 C.2     1  UNL1        0.0360
     20  C         23.0270  -21.0860  -14.0290 C.2     1  UNL1        0.0300
     21  C         24.3650  -21.0850  -14.4420 C.2     1  UNL1        0.0100
     22  C         25.3550  -21.7530  -13.7070 C.2     1  UNL1       -0.0390
     23  C         26.7770  -21.6760  -14.1890 C.3     1  UNL1        0.0500
     24  C         24.9640  -22.4180  -12.5320 C.2     1  UNL1        0.0820
     25  C         23.6210  -22.4060  -12.1140 C.2     1  UNL1        0.0540
     26  S         26.1340  -23.2940  -11.5130 S.O2    1  UNL1        0.2390
     27  O         26.5040  -24.5240  -12.1670 O.2     1  UNL1       -0.2060
     28  O         27.1210  -22.3510  -11.0370 O.2     1  UNL1       -0.2060
     29  N         25.2060  -23.6620  -10.1560 N.3     1  UNL1       -0.2250
     30  H         24.3720  -24.1690  -10.4590 H       1  UNL1        0.1360
     31  H         25.7200  -24.1790   -9.4430 H       1  UNL1        0.1360
@<TRIPOS>BOND
     1    21    20    1
     2    21    22    2
     3    23    22    1
     4    20    19    2
     5    22    24    1
     6     4     1    1
     7    19     1    1
     8    19    25    1
     9    24    25    2
    10    24    26    1
    11     1     2   am
    12    27    26    2
    13     6     7    1
    14     6     5    2
    15    26    28    2
    16    26    29    1
    17     7     8    2
    18     2     5    1
    19     2     3    2
    20     5    10    1
    21     8     9    1
    22    30    29    1
    23    29    31    1
    24    10     9    2
    25    10    11    1
    26    11    12    1
    27    12    13    2
    28    12    18    1
    29    13    14    1
    30    18    17    2
    31    14    15    2
    32    17    15    1
    33    15    16    1
