@<TRIPOS>MOLECULE
23193_out_ligand_01.pdbqt
 34 37 0 0 0
SMALL
GASTEIGER

@<TRIPOS>ATOM
      1  C         17.9800  -23.7250   -8.3120 C.2     1  UNL1        0.0750
      2  C         17.6410  -22.9360   -9.4160 C.2     1  UNL1        0.0260
      3  C         18.6450  -22.4970  -10.2830 C.2     1  UNL1        0.0180
      4  C         19.9840  -22.8410  -10.0410 C.2     1  UNL1        0.0320
      5  C         20.3080  -23.6540   -8.9440 C.2     1  UNL1        0.0180
      6  C         19.3070  -24.0960   -8.0770 C.2     1  UNL1        0.0260
      7  C         21.0870  -22.3970  -10.9430 C.2     1  UNL1        0.2560
      8  O         20.7980  -21.7310  -11.9280 O.2     1  UNL1       -0.2670
      9  N         22.3490  -22.8430  -10.5900 N.am    1  UNL1       -0.3230
     10  H         22.4010  -23.5390   -9.8580 H       1  UNL1        0.1690
     11  C         23.5700  -22.5260  -11.2220 C.2     1  UNL1        0.0350
     12  C         24.4210  -21.6340  -10.5530 C.2     1  UNL1        0.0290
     13  C         25.6480  -21.2620  -11.1060 C.2     1  UNL1        0.0030
     14  C         26.0390  -21.7770  -12.3400 C.2     1  UNL1        0.0170
     15  C         25.1950  -22.6650  -13.0170 C.2     1  UNL1        0.0340
     16  C         23.9580  -23.0280  -12.4650 C.2     1  UNL1        0.0460
     17  C         25.5730  -23.2120  -14.3460 C.2     1  UNL1        0.2520
     18  O         26.4380  -24.0730  -14.4350 O.2     1  UNL1       -0.2680
     19  N         24.9040  -22.6620  -15.4240 N.am    1  UNL1       -0.3520
     20  H         24.3450  -21.8310  -15.2790 H       1  UNL1        0.1630
     21  C         25.1990  -23.0440  -16.7690 C.3     1  UNL1        0.0840
     22  C         24.0890  -23.4060  -17.7160 C.3     1  UNL1        0.0270
     23  C         24.8600  -22.1350  -17.9180 C.3     1  UNL1        0.0270
     24  S         16.7150  -24.3010   -7.1980 S.O2    1  UNL1        0.2470
     25  O         15.6270  -24.8230   -8.0010 O.2     1  UNL1       -0.2050
     26  O         17.3840  -25.1220   -6.2110 O.2     1  UNL1       -0.2050
     27  N         16.1850  -22.8390   -6.4710 N.pl3   1  UNL1       -0.1760
     28  C         14.7580  -22.8190   -6.0680 C.3     1  UNL1        0.1360
     29  C         17.0770  -22.3260   -5.4610 C.2     1  UNL1        0.0250
     30  C         16.8530  -22.5240   -4.0960 C.2     1  UNL1        0.0240
     31  C         17.7080  -21.9420   -3.1580 C.2     1  UNL1        0.0020
     32  C         18.7720  -21.1460   -3.5800 C.2     1  UNL1        0.0000
     33  C         18.9810  -20.9260   -4.9410 C.2     1  UNL1        0.0020
     34  C         18.1280  -21.5080   -5.8810 C.2     1  UNL1        0.0240
@<TRIPOS>BOND
     1    23    22    1
     2    23    21    1
     3    22    21    1
     4    21    19    1
     5    19    20    1
     6    19    17   am
     7    18    17    2
     8    17    15    1
     9    15    16    1
    10    15    14    2
    11    16    11    2
    12    14    13    1
    13     8     7    2
    14    11     9    1
    15    11    12    1
    16    13    12    2
    17     7     9   am
    18     7     4    1
    19     9    10    1
    20     3     4    2
    21     3     2    1
    22     4     5    1
    23     2     1    2
    24     5     6    2
    25     1     6    1
    26     1    24    1
    27    25    24    2
    28    24    27    1
    29    24    26    2
    30    27    28    1
    31    27    29    1
    32    34    29    2
    33    34    33    1
    34    29    30    1
    35    33    32    2
    36    30    31    2
    37    32    31    1
