@<TRIPOS>MOLECULE
23231_out_ligand_01.pdbqt
 35 38 0 0 0
SMALL
GASTEIGER

@<TRIPOS>ATOM
      1  C         20.0680  -22.6790  -10.2440 C.2     1  UNL1        0.0320
      2  C         20.3470  -23.4910   -9.1360 C.2     1  UNL1        0.0180
      3  C         19.3160  -23.9150   -8.2940 C.2     1  UNL1        0.0260
      4  C         18.0030  -23.5180   -8.5640 C.2     1  UNL1        0.0790
      5  C         17.7080  -22.7390   -9.6870 C.2     1  UNL1        0.0260
      6  C         18.7420  -22.3180  -10.5290 C.2     1  UNL1        0.0180
      7  C         21.2020  -22.2520  -11.1150 C.2     1  UNL1        0.2560
      8  O         20.9450  -21.6170  -12.1310 O.2     1  UNL1       -0.2670
      9  N         22.4510  -22.6780  -10.7010 N.am    1  UNL1       -0.3230
     10  H         22.4780  -23.3510   -9.9470 H       1  UNL1        0.1690
     11  C         23.6940  -22.3680  -11.2930 C.2     1  UNL1        0.0350
     12  C         24.5320  -21.4900  -10.5900 C.2     1  UNL1        0.0290
     13  C         25.7780  -21.1240  -11.1040 C.2     1  UNL1        0.0030
     14  C         26.2010  -21.6310  -12.3300 C.2     1  UNL1        0.0170
     15  C         25.3710  -22.5070  -13.0400 C.2     1  UNL1        0.0340
     16  C         24.1150  -22.8630  -12.5280 C.2     1  UNL1        0.0460
     17  C         25.7840  -23.0450  -14.3620 C.2     1  UNL1        0.2520
     18  O         26.8500  -23.6380  -14.4790 O.2     1  UNL1       -0.2680
     19  N         24.9070  -22.8050  -15.4030 N.am    1  UNL1       -0.3520
     20  H         24.1450  -22.1550  -15.2570 H       1  UNL1        0.1630
     21  C         25.1930  -23.2160  -16.7410 C.3     1  UNL1        0.0840
     22  C         25.1640  -22.2230  -17.8700 C.3     1  UNL1        0.0270
     23  C         24.0970  -23.2730  -17.7680 C.3     1  UNL1        0.0270
     24  S         16.6870  -24.0650   -7.4950 S.O2    1  UNL1        0.2630
     25  O         17.2740  -24.9270   -6.4920 O.2     1  UNL1       -0.2000
     26  O         15.5970  -24.5180   -8.3310 O.2     1  UNL1       -0.2000
     27  N         16.2280  -22.6490   -6.6960 N.pl3   1  UNL1       -0.2790
     28  H         15.2120  -22.5920   -6.6060 H       1  UNL1        0.1790
     29  C         16.9820  -22.2220   -5.5540 C.2     1  UNL1        0.0640
     30  C         18.1300  -21.4460   -5.7270 C.2     1  UNL1        0.0320
     31  C         18.8840  -21.0520   -4.6190 C.2     1  UNL1        0.0020
     32  C         18.4920  -21.4290   -3.3350 C.2     1  UNL1        0.0020
     33  C         17.3430  -22.1990   -3.1530 C.2     1  UNL1        0.0260
     34  C         16.5880  -22.5930   -4.2600 C.2     1  UNL1        0.0610
     35 CL         15.1710  -23.5460   -3.9970 Cl      1  UNL1       -0.0820
@<TRIPOS>BOND
     1    22    23    1
     2    22    21    1
     3    23    21    1
     4    21    19    1
     5    19    20    1
     6    19    17   am
     7    18    17    2
     8    17    15    1
     9    15    16    1
    10    15    14    2
    11    16    11    2
    12    14    13    1
    13     8     7    2
    14    11     9    1
    15    11    12    1
    16     7     9   am
    17     7     1    1
    18    13    12    2
    19     9    10    1
    20     6     1    2
    21     6     5    1
    22     1     2    1
    23     5     4    2
    24     2     3    2
    25     4     3    1
    26     4    24    1
    27    26    24    2
    28    24    27    1
    29    24    25    2
    30    27    28    1
    31    27    29    1
    32    30    29    2
    33    30    31    1
    34    29    34    1
    35    31    32    2
    36    34    35    1
    37    34    33    2
    38    32    33    1
