@<TRIPOS>MOLECULE
23230_out_ligand_01.pdbqt
 35 38 0 0 0
SMALL
GASTEIGER

@<TRIPOS>ATOM
      1  C         20.1030  -22.4870   -7.1580 C.ar    1  UNL1        0.0980
      2  S         19.6540  -24.0200   -7.8330 S.2     1  UNL1       -0.0750
      3  C         18.1740  -23.9510   -7.0680 C.ar    1  UNL1       -0.0070
      4  C         17.9970  -22.8330   -6.3060 C.ar    1  UNL1       -0.0210
      5  C         19.1170  -21.9580   -6.3360 C.ar    1  UNL1        0.0850
      6  C         19.1470  -20.7420   -5.5790 C.1     1  UNL1        0.1030
      7  N         19.0540  -19.7920   -4.9140 N.1     1  UNL1       -0.1910
      8  C         16.6660  -22.8500   -5.6400 C.3     1  UNL1        0.0420
      9  C         15.9230  -23.9790   -6.4220 C.3     1  UNL1        0.0100
     10  C         17.0230  -24.8820   -7.0560 C.3     1  UNL1        0.0470
     11  N         21.3640  -22.1430   -7.5930 N.am    1  UNL1       -0.3190
     12  C         21.9370  -22.5120   -8.7980 C.2     1  UNL1        0.2350
     13  O         21.4230  -23.2560   -9.6320 O.2     1  UNL1       -0.2720
     14  H         21.9230  -21.6340   -6.9180 H       1  UNL1        0.1690
     15  C         23.3440  -21.9070   -8.9740 C.3     1  UNL1        0.1950
     16  N         23.5840  -21.3330  -10.3030 N.pl3   1  UNL1       -0.2830
     17  H         24.1030  -20.4420  -10.2010 H       1  UNL1        0.1280
     18  C         24.2740  -22.1130  -11.2620 C.2     1  UNL1        0.0240
     19  C         25.3620  -22.9170  -10.8870 C.2     1  UNL1        0.0240
     20  C         26.0420  -23.7070  -11.8200 C.2     1  UNL1        0.0020
     21  C         25.6330  -23.7260  -13.1470 C.2     1  UNL1        0.0010
     22  C         24.5200  -22.9830  -13.5380 C.2     1  UNL1        0.0190
     23  C         23.8130  -22.2060  -12.6010 C.2     1  UNL1        0.0530
     24  C         22.5980  -21.4420  -13.0430 C.2     1  UNL1        0.2530
     25  N         21.4880  -21.5090  -12.2250 N.am    1  UNL1       -0.3530
     26  H         21.5890  -21.8410  -11.2760 H       1  UNL1        0.1630
     27  O         22.6160  -20.7650  -14.0690 O.2     1  UNL1       -0.2680
     28  C         20.3050  -20.7360  -12.5290 C.3     1  UNL1        0.1610
     29  C         19.1170  -21.2530  -11.7590 C.2     1  UNL1       -0.0410
     30  C         18.0250  -20.4120  -11.5090 C.2     1  UNL1        0.0090
     31  C         16.9110  -20.8830  -10.8080 C.2     1  UNL1        0.0070
     32  C         16.8750  -22.1980  -10.3340 C.2     1  UNL1       -0.0620
     33  C         15.6730  -22.7160   -9.6010 C.3     1  UNL1        0.0480
     34  C         17.9600  -23.0440  -10.5930 C.2     1  UNL1        0.0070
     35  C         19.0750  -22.5770  -11.2970 C.2     1  UNL1        0.0090
@<TRIPOS>BOND
     1    27    24    2
     2    22    21    2
     3    22    23    1
     4    21    20    1
     5    24    23    1
     6    24    25   am
     7    23    18    2
     8    28    25    1
     9    28    29    1
    10    25    26    1
    11    20    19    2
    12    29    30    2
    13    29    35    1
    14    30    31    1
    15    35    34    2
    16    18    19    1
    17    18    16    1
    18    31    32    2
    19    34    32    1
    20    32    33    1
    21    16    17    1
    22    16    15    1
    23    13    12    2
    24    15    12    1
    25    12    11   am
    26     2     1   ar
    27     2     3   ar
    28    11     1    1
    29    11    14    1
    30     1     5   ar
    31     3    10    1
    32     3     4   ar
    33    10     9    1
    34     9     8    1
    35     5     4   ar
    36     5     6    1
    37     4     8    1
    38     6     7    3
