@<TRIPOS>MOLECULE
23254_out_ligand_01.pdbqt
 40 43 0 0 0
SMALL
GASTEIGER

@<TRIPOS>ATOM
      1  C         23.1390  -21.9350  -10.9270 C.2     1  UNL1        0.0340
      2  C         22.5360  -21.8640  -12.1870 C.2     1  UNL1        0.0170
      3  C         21.1470  -21.8150  -12.2850 C.2     1  UNL1        0.0030
      4  C         20.3650  -21.8400  -11.1280 C.2     1  UNL1        0.0290
      5  C         20.9590  -21.9220   -9.8600 C.2     1  UNL1        0.0350
      6  C         22.3510  -21.9760   -9.7680 C.2     1  UNL1        0.0460
      7  C         24.6200  -22.0000  -10.7850 C.2     1  UNL1        0.2510
      8  N         25.1760  -23.2640  -10.8070 N.am    1  UNL1       -0.3570
      9  H         24.6090  -24.0360  -11.1310 H       1  UNL1        0.1620
     10  O         25.2800  -20.9740  -10.6800 O.2     1  UNL1       -0.2680
     11  C         26.6180  -23.4420  -10.8080 C.3     1  UNL1        0.1270
     12  C         27.1140  -24.2130  -12.0330 C.3     1  UNL1        0.0580
     13  C         26.5840  -23.6250  -13.3190 C.2     1  UNL1       -0.0570
     14  C         25.7120  -24.3730  -14.1260 C.2     1  UNL1        0.0090
     15  C         25.2330  -23.8460  -15.3260 C.2     1  UNL1        0.0250
     16  C         25.6210  -22.5620  -15.7160 C.2     1  UNL1        0.0740
     17  C         26.4990  -21.8100  -14.9310 C.2     1  UNL1        0.0250
     18  C         26.9770  -22.3440  -13.7340 C.2     1  UNL1        0.0090
     19  S         25.0030  -21.8980  -17.2380 S.O2    1  UNL1        0.2390
     20  O         26.1260  -21.5600  -18.0830 O.2     1  UNL1       -0.2060
     21  O         23.9130  -22.7280  -17.6900 O.2     1  UNL1       -0.2060
     22  N         24.3650  -20.4250  -16.7280 N.3     1  UNL1       -0.2250
     23  H         23.3490  -20.4520  -16.8360 H       1  UNL1        0.1360
     24  H         24.7760  -19.6230  -17.2040 H       1  UNL1        0.1360
     25  N         20.0890  -21.9420   -8.7500 N.am    1  UNL1       -0.3230
     26  C         19.7480  -23.0270   -7.9690 C.2     1  UNL1        0.2570
     27  O         20.1120  -24.1880   -8.0980 O.2     1  UNL1       -0.2670
     28  H         19.6540  -21.0590   -8.5100 H       1  UNL1        0.1690
     29  C         18.7920  -22.6600   -6.8860 C.2     1  UNL1        0.0500
     30  C         19.2480  -21.7430   -6.0190 C.2     1  UNL1        0.0920
     31  C         18.4430  -21.3360   -4.8500 C.2     1  UNL1        0.2460
     32  O         18.8650  -20.5060   -4.0530 O.2     1  UNL1       -0.2680
     33  N         17.2300  -21.9470   -4.6900 N.am    1  UNL1       -0.3230
     34  C         16.7070  -22.8840   -5.5890 C.2     1  UNL1        0.0460
     35  H         16.6940  -21.6520   -3.8850 H       1  UNL1        0.1690
     36  C         15.4390  -23.4180   -5.3570 C.2     1  UNL1        0.0300
     37  C         17.4570  -23.2570   -6.7160 C.2     1  UNL1        0.0060
     38  C         14.8980  -24.3260   -6.2670 C.2     1  UNL1        0.0020
     39  C         15.6190  -24.6870   -7.4050 C.2     1  UNL1        0.0010
     40  C         16.8910  -24.1520   -7.6320 C.2     1  UNL1        0.0150
@<TRIPOS>BOND
     1    20    19    2
     2    21    19    2
     3    19    22    1
     4    19    16    1
     5    24    22    1
     6    23    22    1
     7    16    15    2
     8    16    17    1
     9    15    14    1
    10    17    18    2
    11    14    13    2
    12    18    13    1
    13    13    12    1
    14     3     2    1
    15     3     4    2
    16     2     1    2
    17    12    11    1
    18     9     8    1
    19     4     5    1
    20     1     7    1
    21     1     6    1
    22    11     8    1
    23     8     7   am
    24     7    10    2
    25     5     6    2
    26     5    25    1
    27    25    28    1
    28    25    26   am
    29    27    26    2
    30    26    29    1
    31    40    39    2
    32    40    37    1
    33    39    38    1
    34    29    37    1
    35    29    30    2
    36    37    34    2
    37    38    36    2
    38    30    31    1
    39    34    36    1
    40    34    33    1
    41    31    33   am
    42    31    32    2
    43    33    35    1
