@<TRIPOS>MOLECULE
23253_out_ligand_01.pdbqt
 34 37 0 0 0
SMALL
GASTEIGER

@<TRIPOS>ATOM
      1  C         18.9070  -21.7530  -10.8570 C.2     1  UNL1        0.0340
      2  C         17.8940  -20.9330  -11.3720 C.2     1  UNL1        0.0170
      3  C         16.5890  -21.0380  -10.8880 C.2     1  UNL1        0.0030
      4  C         16.2890  -21.9620   -9.8870 C.2     1  UNL1        0.0300
      5  C         17.2920  -22.7900   -9.3850 C.2     1  UNL1        0.0430
      6  C         18.5940  -22.7010   -9.8770 C.2     1  UNL1        0.0470
      7  C         20.2920  -21.5950  -11.3840 C.2     1  UNL1        0.2560
      8  O         20.4620  -20.8400  -12.3330 O.2     1  UNL1       -0.2670
      9  N         21.2660  -22.3120  -10.7100 N.am    1  UNL1       -0.3230
     10  H         20.9750  -22.8430   -9.8990 H       1  UNL1        0.1690
     11  C         22.6480  -22.3550  -10.9890 C.2     1  UNL1        0.0350
     12  C         23.4990  -21.7310  -10.0640 C.2     1  UNL1        0.0290
     13  C         24.8830  -21.7240  -10.2510 C.2     1  UNL1        0.0030
     14  C         25.4350  -22.3460  -11.3690 C.2     1  UNL1        0.0170
     15  C         24.5970  -22.9780  -12.2940 C.2     1  UNL1        0.0340
     16  C         23.2060  -22.9720  -12.1100 C.2     1  UNL1        0.0460
     17  C         25.1560  -23.6410  -13.5010 C.2     1  UNL1        0.2520
     18  O         25.8180  -24.6670  -13.3930 O.2     1  UNL1       -0.2680
     19  N         24.8950  -23.0080  -14.7010 N.am    1  UNL1       -0.3520
     20  H         24.5010  -22.0760  -14.6850 H       1  UNL1        0.1630
     21  C         25.4090  -23.4980  -15.9410 C.3     1  UNL1        0.0840
     22  C         24.5650  -23.4530  -17.1840 C.3     1  UNL1        0.0270
     23  C         25.7550  -22.5480  -17.0560 C.3     1  UNL1        0.0270
     24  N         16.9970  -23.6910   -8.3240 N.pl3   1  UNL1       -0.2810
     25  H         16.1340  -23.5460   -7.8020 H       1  UNL1        0.1790
     26  S         18.2650  -24.1950   -7.3190 S.O2    1  UNL1        0.2630
     27  O         19.4730  -24.3240   -8.1070 O.2     1  UNL1       -0.2000
     28  O         17.7510  -25.3010   -6.5400 O.2     1  UNL1       -0.2000
     29  C         18.4680  -22.8110   -6.2200 C.2     1  UNL1        0.0790
     30  C         17.6980  -22.7430   -5.0540 C.2     1  UNL1        0.0250
     31  C         17.8610  -21.6620   -4.1890 C.2     1  UNL1        0.0020
     32  C         18.7920  -20.6650   -4.4820 C.2     1  UNL1        0.0000
     33  C         19.5710  -20.7470   -5.6380 C.2     1  UNL1        0.0020
     34  C         19.4170  -21.8250   -6.5090 C.2     1  UNL1        0.0250
@<TRIPOS>BOND
     1    22    23    1
     2    22    21    1
     3    23    21    1
     4    21    19    1
     5    19    20    1
     6    19    17   am
     7    17    18    2
     8    17    15    1
     9     8     7    2
    10    15    16    1
    11    15    14    2
    12    16    11    2
    13     7     1    1
    14     7     9   am
    15     2     3    1
    16     2     1    2
    17    14    13    1
    18    11     9    1
    19    11    12    1
    20     3     4    2
    21     1     6    1
    22     9    10    1
    23    13    12    2
    24     4     5    1
    25     6     5    2
    26     5    24    1
    27    24    25    1
    28    24    26    1
    29    27    26    2
    30    26    28    2
    31    26    29    1
    32    34    29    2
    33    34    33    1
    34    29    30    1
    35    33    32    2
    36    30    31    2
    37    32    31    1
