@<TRIPOS>MOLECULE
23267_out_ligand_01.pdbqt
 29 32 0 0 0
SMALL
GASTEIGER

@<TRIPOS>ATOM
      1  C         20.4060  -23.7850   -9.1840 C.2     1  UNL1        0.2580
      2  O         20.7560  -24.9560   -9.2140 O.2     1  UNL1       -0.2670
      3  N         21.1130  -22.6760   -9.6090 N.am    1  UNL1       -0.3230
      4  H         20.7070  -21.7690   -9.4090 H       1  UNL1        0.1690
      5  C         22.3660  -22.6600  -10.2530 C.2     1  UNL1        0.0350
      6  C         23.5680  -22.9950   -9.6280 C.2     1  UNL1        0.0290
      7  C         24.7710  -22.9740  -10.3420 C.2     1  UNL1        0.0030
      8  C         24.7870  -22.6120  -11.6870 C.2     1  UNL1        0.0170
      9  C         23.5910  -22.2580  -12.3210 C.2     1  UNL1        0.0340
     10  C         22.3850  -22.2980  -11.6060 C.2     1  UNL1        0.0460
     11  C         23.5400  -21.8640  -13.7560 C.2     1  UNL1        0.2520
     12  O         22.6890  -21.0670  -14.1380 O.2     1  UNL1       -0.2680
     13  N         24.5090  -22.4120  -14.5760 N.am    1  UNL1       -0.3520
     14  H         25.2840  -22.9110  -14.1600 H       1  UNL1        0.1630
     15  C         24.5960  -22.0840  -15.9640 C.3     1  UNL1        0.0840
     16  C         25.7710  -22.5400  -16.7870 C.3     1  UNL1        0.0270
     17  C         24.4170  -23.1490  -17.0090 C.3     1  UNL1        0.0270
     18  C         19.0990  -23.4680   -8.5760 C.2     1  UNL1        0.0570
     19  C         18.0520  -22.8940   -9.2920 C.2     1  UNL1        0.0470
     20  N         16.8700  -22.5730   -8.7030 N.2     1  UNL1       -0.2520
     21  C         18.1490  -22.5940  -10.7610 C.3     1  UNL1        0.0710
     22  C         16.6880  -22.8600   -7.4000 C.2     1  UNL1        0.0670
     23  C         15.4830  -22.5430   -6.7910 C.2     1  UNL1        0.0330
     24  C         17.6850  -23.4780   -6.6180 C.2     1  UNL1       -0.0060
     25  C         15.2420  -22.8270   -5.4420 C.2     1  UNL1        0.0090
     26  C         16.2190  -23.4550   -4.6680 C.2     1  UNL1       -0.0610
     27  C         15.9790  -23.7340   -3.2150 C.3     1  UNL1        0.0480
     28  C         17.4470  -23.7680   -5.2610 C.2     1  UNL1        0.0200
     29  C         18.9050  -23.7830   -7.2300 C.2     1  UNL1        0.0330
@<TRIPOS>BOND
     1    17    16    1
     2    17    15    1
     3    16    15    1
     4    15    13    1
     5    13    14    1
     6    13    11   am
     7    12    11    2
     8    11     9    1
     9     9     8    2
    10     9    10    1
    11     8     7    1
    12    10     5    2
    13    21    19    1
    14     7     6    2
    15     5     6    1
    16     5     3    1
    17     3     4    1
    18     3     1   am
    19    19    20    1
    20    19    18    2
    21     2     1    2
    22     1    18    1
    23    20    22    2
    24    18    29    1
    25    22    23    1
    26    22    24    1
    27    29    24    2
    28    23    25    2
    29    24    28    1
    30    25    26    1
    31    28    26    2
    32    26    27    1
