@<TRIPOS>MOLECULE
23272_out_ligand_01.pdbqt
 31 33 0 0 0
SMALL
GASTEIGER

@<TRIPOS>ATOM
      1  C         17.5220  -22.6150   -9.6170 C.2     1  UNL1        0.0800
      2  C         16.7340  -21.7580  -10.3920 C.2     1  UNL1        0.0250
      3  C         17.3370  -20.9550  -11.3600 C.2     1  UNL1        0.0030
      4  C         18.7220  -20.9970  -11.5410 C.2     1  UNL1        0.0170
      5  C         19.5130  -21.8330  -10.7400 C.2     1  UNL1        0.0330
      6  C         18.9110  -22.6430   -9.7710 C.2     1  UNL1        0.0420
      7  S         16.7520  -23.6470   -8.3880 S.O2    1  UNL1        0.2630
      8  O         17.8100  -24.3410   -7.6840 O.2     1  UNL1       -0.2000
      9  O         15.6810  -24.3790   -9.0280 O.2     1  UNL1       -0.2000
     10  N         16.1080  -22.5380   -7.2840 N.pl3   1  UNL1       -0.2790
     11  H         15.1190  -22.7210   -7.1160 H       1  UNL1        0.1790
     12  C         16.8830  -22.1880   -6.1310 C.2     1  UNL1        0.0600
     13  C         16.5310  -22.6620   -4.8590 C.2     1  UNL1        0.0380
     14  C         17.3360  -22.3800   -3.7560 C.2     1  UNL1        0.0220
     15 BR         14.9760  -23.7180   -4.5920 Br      1  UNL1       -0.0490
     16  C         18.4950  -21.6180   -3.9180 C.2     1  UNL1        0.0080
     17  C         18.8440  -21.1150   -5.1770 C.2     1  UNL1       -0.0600
     18  C         20.1150  -20.3380   -5.3570 C.3     1  UNL1        0.0480
     19  C         18.0340  -21.4090   -6.2810 C.2     1  UNL1        0.0380
     20  C         20.9890  -21.9180  -10.9190 C.2     1  UNL1        0.2570
     21  O         21.6780  -22.0180   -9.9120 O.2     1  UNL1       -0.2670
     22  N         21.4060  -21.8410  -12.2260 N.am    1  UNL1       -0.3050
     23  H         20.7400  -21.6350  -12.9590 H       1  UNL1        0.1700
     24  C         22.7300  -21.9270  -12.6770 C.2     1  UNL1        0.1630
     25  N         23.5950  -22.8170  -12.1580 N.2     1  UNL1       -0.2410
     26  C         24.8510  -22.8300  -12.6530 C.2     1  UNL1        0.1190
     27  C         25.2950  -21.9890  -13.6610 C.2     1  UNL1        0.0220
     28  C         24.3960  -21.0740  -14.1990 C.2     1  UNL1        0.0420
     29  C         23.0990  -21.0440  -13.7010 C.2     1  UNL1        0.1110
     30  O         22.1750  -20.1610  -14.2010 O.2     1  UNL1       -0.3570
     31  H         22.2110  -20.1990  -15.1720 H       1  UNL1        0.2180
@<TRIPOS>BOND
     1    31    30    1
     2    30    29    1
     3    28    29    1
     4    28    27    2
     5    29    24    2
     6    27    26    1
     7    23    22    1
     8    24    22    1
     9    24    25    1
    10    26    25    2
    11    22    20   am
    12     4     3    2
    13     4     5    1
    14     3     2    1
    15    20     5    1
    16    20    21    2
    17     5     6    2
    18     2     1    2
    19     6     1    1
    20     1     7    1
    21     9     7    2
    22     7     8    2
    23     7    10    1
    24    10    11    1
    25    10    12    1
    26    19    12    2
    27    19    17    1
    28    12    13    1
    29    18    17    1
    30    17    16    2
    31    13    15    1
    32    13    14    2
    33    16    14    1
