@<TRIPOS>MOLECULE
23277_out_ligand_01.pdbqt
 29 31 0 0 0
SMALL
GASTEIGER

@<TRIPOS>ATOM
      1  N         20.7550  -22.0960   -9.7990 N.am    1  UNL1       -0.3230
      2  C         20.6410  -23.2280   -9.0120 C.2     1  UNL1        0.2560
      3  O         21.2440  -24.2850   -9.1470 O.2     1  UNL1       -0.2670
      4  H         20.2880  -21.2600   -9.4730 H       1  UNL1        0.1690
      5  C         19.6990  -23.0990   -7.8650 C.2     1  UNL1        0.0330
      6  C         18.6190  -23.9980   -7.7840 C.2     1  UNL1        0.0190
      7  C         17.7030  -23.9240   -6.7290 C.2     1  UNL1        0.0320
      8  C         17.8570  -22.9190   -5.7930 C.2     1  UNL1        0.0510
      9  C         18.9370  -22.0370   -5.8590 C.2     1  UNL1       -0.0280
     10  N         17.1000  -22.6580   -4.6150 N.pl3   1  UNL1       -0.2750
     11  C         19.8640  -22.1040   -6.8930 C.2     1  UNL1        0.0260
     12  C         18.9580  -21.1160   -4.6790 C.3     1  UNL1        0.0620
     13  C         17.5990  -21.3880   -4.0130 C.3     1  UNL1        0.1460
     14  S         15.4570  -22.9980   -4.5100 S.O2    1  UNL1        0.2290
     15  C         14.8270  -22.3890   -6.0640 C.3     1  UNL1        0.1860
     16  O         15.2580  -24.4310   -4.4850 O.2     1  UNL1       -0.2060
     17  O         14.9070  -22.1600   -3.4620 O.2     1  UNL1       -0.2060
     18  C         21.5230  -21.9440  -10.9720 C.2     1  UNL1        0.0350
     19  C         21.0020  -21.5390  -12.2020 C.2     1  UNL1        0.0290
     20  C         21.8350  -21.3930  -13.3160 C.2     1  UNL1        0.0030
     21  C         23.2000  -21.6570  -13.2130 C.2     1  UNL1        0.0170
     22  C         23.7330  -22.0770  -11.9910 C.2     1  UNL1        0.0340
     23  C         22.8950  -22.2070  -10.8740 C.2     1  UNL1        0.0460
     24  C         25.1820  -22.3690  -11.8160 C.2     1  UNL1        0.2510
     25  N         25.5390  -23.7000  -11.7480 N.am    1  UNL1       -0.3570
     26  H         24.8160  -24.3980  -11.6330 H       1  UNL1        0.1620
     27  O         25.9810  -21.4450  -11.7060 O.2     1  UNL1       -0.2680
     28  C         26.9050  -24.1020  -11.4860 C.3     1  UNL1        0.1180
     29  C         27.1200  -24.4480  -10.0240 C.3     1  UNL1        0.0260
@<TRIPOS>BOND
     1    20    21    2
     2    20    19    1
     3    21    22    1
     4    19    18    2
     5    22    24    1
     6    22    23    2
     7    24    25   am
     8    24    27    2
     9    25    26    1
    10    25    28    1
    11    28    29    1
    12    18    23    1
    13    18     1    1
    14     1     4    1
    15     1     2   am
    16     3     2    2
    17     2     5    1
    18     5     6    2
    19     5    11    1
    20     6     7    1
    21    11     9    2
    22     7     8    2
    23    15    14    1
    24     9     8    1
    25     9    12    1
    26     8    10    1
    27    12    13    1
    28    10    14    1
    29    10    13    1
    30    14    16    2
    31    14    17    2
