@<TRIPOS>MOLECULE
23284_out_ligand_01.pdbqt
 35 37 0 0 0
SMALL
GASTEIGER

@<TRIPOS>ATOM
      1  N         19.8320  -23.5300   -9.3870 N.pl3   1  UNL1       -0.2830
      2  H         20.5660  -23.8930  -10.0050 H       1  UNL1        0.1280
      3  C         20.5230  -23.0230   -8.1800 C.3     1  UNL1        0.1950
      4  C         21.9460  -22.5230   -8.4420 C.2     1  UNL1        0.2380
      5  N         22.5370  -23.1240   -9.5430 N.am    1  UNL1       -0.2780
      6  C         23.4150  -22.4390  -10.3650 C.2     1  UNL1        0.3270
      7  H         21.9210  -23.7180  -10.0790 H       1  UNL1        0.1730
      8  N         23.8620  -23.2790  -11.3750 N.am    1  UNL1       -0.3080
      9  O         23.7210  -21.2640  -10.2250 O.2     1  UNL1       -0.2470
     10  H         23.7730  -24.2630  -11.1740 H       1  UNL1        0.1700
     11  O         22.5240  -21.7800   -7.6530 O.2     1  UNL1       -0.2720
     12  C         24.6490  -22.9340  -12.4990 C.2     1  UNL1        0.0420
     13  C         25.9840  -23.3280  -12.6220 C.2     1  UNL1        0.0300
     14  C         26.7430  -22.9660  -13.7390 C.2     1  UNL1        0.0090
     15  C         26.1820  -22.2010  -14.7610 C.2     1  UNL1       -0.0610
     16  C         27.0050  -21.7910  -15.9450 C.3     1  UNL1        0.0480
     17  C         24.8530  -21.7810  -14.6350 C.2     1  UNL1        0.0150
     18  C         24.0750  -22.1400  -13.5170 C.2     1  UNL1       -0.0350
     19  C         22.6520  -21.6550  -13.4610 C.3     1  UNL1        0.0500
     20  C         19.0870  -22.5640  -10.0990 C.2     1  UNL1        0.0240
     21  C         19.7760  -21.7280  -10.9910 C.2     1  UNL1        0.0240
     22  C         19.1010  -20.7850  -11.7740 C.2     1  UNL1        0.0020
     23  C         17.7190  -20.6570  -11.6740 C.2     1  UNL1        0.0010
     24  C         17.0100  -21.4670  -10.7870 C.2     1  UNL1        0.0190
     25  C         17.6870  -22.4160  -10.0000 C.2     1  UNL1        0.0530
     26  C         16.8910  -23.2510   -9.0620 C.2     1  UNL1        0.2530
     27  O         15.8640  -23.8020   -9.4390 O.2     1  UNL1       -0.2680
     28  N         17.4150  -23.3750   -7.7930 N.am    1  UNL1       -0.3510
     29  H         18.3850  -23.1120   -7.6500 H       1  UNL1        0.1630
     30  C         16.8870  -24.3560   -6.8700 C.3     1  UNL1        0.1870
     31  C         16.2580  -23.6350   -5.7360 C.2     1  UNL1        0.0700
     32  C         15.3560  -22.5930   -5.6610 C.2     1  UNL1        0.0360
     33  C         15.1080  -22.3760   -4.2840 C.2     1  UNL1        0.0270
     34  C         15.8780  -23.2940   -3.6080 C.2     1  UNL1        0.1420
     35  O         16.5760  -24.0680   -4.4800 O.2     1  UNL1       -0.3250
@<TRIPOS>BOND
     1    16    15    1
     2    15    17    2
     3    15    14    1
     4    17    18    1
     5    14    13    2
     6    18    19    1
     7    18    12    2
     8    13    12    1
     9    12     8    1
    10    22    23    2
    11    22    21    1
    12    23    24    1
    13     8    10    1
    14     8     6   am
    15    21    20    2
    16    24    25    2
    17     6     9    2
    18     6     5   am
    19    20    25    1
    20    20     1    1
    21     7     5    1
    22     2     1    1
    23    25    26    1
    24     5     4   am
    25    27    26    2
    26     1     3    1
    27    26    28   am
    28     4     3    1
    29     4    11    2
    30    28    29    1
    31    28    30    1
    32    30    31    1
    33    31    32    2
    34    31    35    1
    35    32    33    1
    36    35    34    1
    37    33    34    2
