@<TRIPOS>MOLECULE
23296_out_ligand_01.pdbqt
 33 37 0 0 0
SMALL
GASTEIGER

@<TRIPOS>ATOM
      1  C         21.3690  -22.5470  -10.0900 C.2     1  UNL1        0.0320
      2  C         20.4920  -22.0710  -11.0720 C.2     1  UNL1        0.0180
      3  C         19.1240  -21.9650  -10.7980 C.2     1  UNL1        0.0190
      4  C         18.6260  -22.3310   -9.5410 C.2     1  UNL1        0.0450
      5  C         19.4970  -22.8110   -8.5550 C.2     1  UNL1       -0.0380
      6  C         20.8640  -22.9310   -8.8380 C.2     1  UNL1        0.0250
      7  C         18.9320  -23.2330   -7.2310 C.3     1  UNL1        0.0770
      8  C         17.7210  -22.3500   -6.9320 C.3     1  UNL1        0.1690
      9  O         16.7550  -22.4370   -8.0010 O.3     1  UNL1       -0.3070
     10  C         17.1610  -22.2550   -9.2850 C.2     1  UNL1        0.2940
     11  O         16.3700  -22.0640  -10.1970 O.2     1  UNL1       -0.2590
     12  C         22.8320  -22.7010  -10.3300 C.2     1  UNL1        0.2520
     13  O         23.4960  -23.4370   -9.6080 O.2     1  UNL1       -0.2680
     14  N         23.3770  -21.9700  -11.3620 N.am    1  UNL1       -0.3500
     15  H         22.8070  -21.3340  -11.9030 H       1  UNL1        0.1630
     16  C         24.7920  -22.0710  -11.6780 C.3     1  UNL1        0.1140
     17  C         25.6280  -21.0180  -10.9550 C.3     1  UNL1        0.0570
     18  C         26.7270  -20.6900  -11.9520 C.3     1  UNL1        0.2750
     19  N         25.9880  -20.6760  -13.2170 N.3     1  UNL1        0.0940
     20  C         25.1140  -21.8610  -13.1720 C.3     1  UNL1        0.2970
     21  C         26.8580  -20.6910  -14.3990 C.3     1  UNL1        0.3110
     22  C         26.7250  -19.4460  -15.2500 C.2     1  UNL1       -0.0300
     23  C         26.9580  -18.1770  -14.6980 C.2     1  UNL1        0.0090
     24  C         26.8280  -17.0270  -15.4810 C.2     1  UNL1        0.0010
     25  C         26.4620  -17.1330  -16.8220 C.2     1  UNL1        0.0000
     26  C         26.2290  -18.3890  -17.3820 C.2     1  UNL1        0.0010
     27  C         26.3600  -19.5400  -16.6010 C.2     1  UNL1        0.0090
     28  C         17.0660  -22.7590   -5.6260 C.2     1  UNL1       -0.0290
     29  C         15.6940  -22.5620   -5.4050 C.2     1  UNL1        0.0100
     30  C         15.1000  -22.9720   -4.2100 C.2     1  UNL1        0.0010
     31  C         15.8680  -23.5880   -3.2240 C.2     1  UNL1        0.0000
     32  C         17.2300  -23.7950   -3.4310 C.2     1  UNL1        0.0010
     33  C         17.8270  -23.3840   -4.6260 C.2     1  UNL1        0.0100
@<TRIPOS>BOND
     1    26    25    2
     2    26    27    1
     3    25    24    1
     4    27    22    2
     5    24    23    2
     6    22    23    1
     7    22    21    1
     8    21    19    1
     9    19    20    1
    10    19    18    1
    11    20    16    1
    12    18    17    1
    13    15    14    1
    14    16    14    1
    15    16    17    1
    16    14    12   am
    17     2     3    1
    18     2     1    2
    19     3     4    2
    20    12     1    1
    21    12    13    2
    22    11    10    2
    23     1     6    1
    24     4    10    1
    25     4     5    1
    26    10     9    1
    27     6     5    2
    28     5     7    1
    29     9     8    1
    30     7     8    1
    31     8    28    1
    32    28    29    2
    33    28    33    1
    34    29    30    1
    35    33    32    2
    36    30    31    2
    37    32    31    1
