@<TRIPOS>MOLECULE
23297_out_ligand_01.pdbqt
 32 34 0 0 0
SMALL
GASTEIGER

@<TRIPOS>ATOM
      1  C         21.4190  -22.1520  -10.6170 C.2     1  UNL1        0.0340
      2  C         22.2050  -22.5270   -9.5220 C.2     1  UNL1        0.0170
      3  C         23.5480  -22.8430   -9.7130 C.2     1  UNL1        0.0030
      4  C         24.1030  -22.7820  -10.9940 C.2     1  UNL1        0.0290
      5  C         23.3260  -22.4020  -12.1000 C.2     1  UNL1        0.0350
      6  C         21.9820  -22.0810  -11.9020 C.2     1  UNL1        0.0460
      7  C         19.9840  -21.7930  -10.4460 C.2     1  UNL1        0.2520
      8  N         19.3600  -22.3530   -9.3510 N.am    1  UNL1       -0.3490
      9  H         19.8380  -23.1240   -8.9050 H       1  UNL1        0.1630
     10  O         19.4410  -21.0640  -11.2630 O.2     1  UNL1       -0.2680
     11  C         17.9260  -22.2880   -9.0940 C.3     1  UNL1        0.1140
     12  C         17.0790  -23.2820   -9.8940 C.3     1  UNL1        0.0370
     13  C         17.6350  -22.2980   -7.6030 C.2     1  UNL1       -0.0350
     14  C         18.6660  -22.2360   -6.6530 C.2     1  UNL1        0.0090
     15  C         18.3830  -22.2270   -5.2870 C.2     1  UNL1        0.0010
     16  C         17.0630  -22.2730   -4.8460 C.2     1  UNL1        0.0160
     17  C         16.0100  -22.3310   -5.7680 C.2     1  UNL1        0.0480
     18  C         16.3080  -22.3430   -7.1430 C.2     1  UNL1        0.0250
     19  C         14.5780  -22.4170   -5.3020 C.3     1  UNL1        0.4170
     20  F         14.0780  -23.6850   -5.3630 F       1  UNL1       -0.1660
     21  F         13.7200  -21.6450   -6.0270 F       1  UNL1       -0.1660
     22  F         14.4290  -22.0220   -4.0060 F       1  UNL1       -0.1660
     23  N         23.9740  -22.3800  -13.3540 N.am    1  UNL1       -0.3230
     24  C         23.7370  -21.5130  -14.4060 C.2     1  UNL1        0.2570
     25  O         22.9360  -20.5890  -14.4320 O.2     1  UNL1       -0.2670
     26  H         24.7390  -23.0330  -13.4590 H       1  UNL1        0.1690
     27  C         24.5780  -21.7360  -15.6060 C.2     1  UNL1        0.0490
     28  C         25.1310  -20.6970  -16.3600 C.2     1  UNL1        0.0200
     29  C         25.9080  -21.0020  -17.4760 C.2     1  UNL1        0.0200
     30  C         26.1100  -22.3360  -17.7950 C.2     1  UNL1        0.1160
     31  N         25.6030  -23.3610  -17.0790 N.2     1  UNL1       -0.2720
     32  C         24.8580  -23.0400  -15.9930 C.2     1  UNL1        0.1330
@<TRIPOS>BOND
     1    30    29    2
     2    30    31    1
     3    29    28    1
     4    31    32    2
     5    28    27    2
     6    32    27    1
     7    27    24    1
     8    25    24    2
     9    24    23   am
    10    26    23    1
    11    23     5    1
    12     5     6    1
    13     5     4    2
    14     6     1    2
    15    10     7    2
    16     4     3    1
    17     1     7    1
    18     1     2    1
    19     7     8   am
    20    12    11    1
    21     3     2    2
    22     8    11    1
    23     8     9    1
    24    11    13    1
    25    13    18    2
    26    13    14    1
    27    18    17    1
    28    14    15    2
    29    21    19    1
    30    17    19    1
    31    17    16    2
    32    20    19    1
    33    19    22    1
    34    15    16    1
