@<TRIPOS>MOLECULE
23300_out_ligand_01.pdbqt
 37 39 0 0 0
SMALL
GASTEIGER

@<TRIPOS>ATOM
      1  C         23.1680  -22.1460  -10.9220 C.2     1  UNL1       -0.0400
      2  C         22.5330  -21.8070  -12.1270 C.2     1  UNL1        0.0100
      3  C         21.1460  -21.6500  -12.1790 C.2     1  UNL1        0.0170
      4  C         20.3790  -21.8170  -11.0170 C.2     1  UNL1        0.0320
      5  C         21.0030  -22.1610   -9.8140 C.2     1  UNL1        0.0170
      6  C         22.3910  -22.3250   -9.7680 C.2     1  UNL1        0.0100
      7  C         18.9070  -21.6430  -11.1070 C.2     1  UNL1        0.2520
      8  O         18.4170  -20.6970  -11.7190 O.2     1  UNL1       -0.2680
      9  N         18.1380  -22.5480  -10.4130 N.am    1  UNL1       -0.3480
     10  H         18.5760  -23.1190   -9.7000 H       1  UNL1        0.1630
     11  C         16.6890  -22.4410  -10.3830 C.3     1  UNL1        0.2260
     12  C         16.0970  -22.9990   -9.0820 C.2     1  UNL1        0.2390
     13  O         15.3880  -24.0030   -9.1050 O.2     1  UNL1       -0.2710
     14  N         16.4420  -22.2420   -7.9730 N.am    1  UNL1       -0.3250
     15  H         17.0580  -21.4560   -8.1740 H       1  UNL1        0.1690
     16  C         16.0650  -22.4310   -6.6230 C.2     1  UNL1        0.0410
     17  C         14.7840  -22.1080   -6.1640 C.2     1  UNL1        0.0300
     18  C         14.4300  -22.2990   -4.8300 C.2     1  UNL1        0.0030
     19  C         15.3550  -22.8160   -3.9320 C.2     1  UNL1        0.0070
     20  C         16.6500  -23.1520   -4.3510 C.2     1  UNL1       -0.0540
     21  C         17.5990  -23.7190   -3.3300 C.3     1  UNL1        0.0490
     22  C         17.0170  -22.9610   -5.7080 C.2     1  UNL1       -0.0290
     23  C         18.4050  -23.3290   -6.1830 C.3     1  UNL1        0.0510
     24  C         24.6700  -22.3200  -10.8780 C.3     1  UNL1        0.1700
     25  N         25.0730  -23.5380  -11.5690 N.3     1  UNL1       -0.3110
     26  H         24.9500  -24.4290  -11.0900 H       1  UNL1        0.1720
     27  S         26.4400  -23.4800  -12.5320 S.O2    1  UNL1        0.2590
     28  O         27.1010  -24.7560  -12.3790 O.2     1  UNL1       -0.2010
     29  O         27.1200  -22.2310  -12.2630 O.2     1  UNL1       -0.2010
     30  C         25.7380  -23.4230  -14.1590 C.2     1  UNL1        0.0800
     31  C         25.3310  -24.6100  -14.7670 C.2     1  UNL1        0.0260
     32  C         24.7820  -24.5700  -16.0480 C.2     1  UNL1        0.0090
     33  C         24.6370  -23.3490  -16.7300 C.2     1  UNL1       -0.0560
     34  C         24.0450  -23.3480  -18.1140 C.3     1  UNL1        0.0490
     35  C         25.0590  -22.1510  -16.1120 C.2     1  UNL1       -0.0550
     36  C         25.6150  -22.2000  -14.8240 C.2     1  UNL1        0.0320
     37  C         24.9360  -20.8220  -16.8100 C.3     1  UNL1        0.0490
@<TRIPOS>BOND
     1    34    33    1
     2    37    35    1
     3    33    35    2
     4    33    32    1
     5    35    36    1
     6    32    31    2
     7    36    30    2
     8    31    30    1
     9    30    27    1
    10    27    28    2
    11    27    29    2
    12    27    25    1
    13     3     2    1
    14     3     4    2
    15     2     1    2
    16     8     7    2
    17    25    26    1
    18    25    24    1
    19     7     4    1
    20     7     9   am
    21     4     5    1
    22     1    24    1
    23     1     6    1
    24     9    11    1
    25     9    10    1
    26    11    12    1
    27     5     6    2
    28    13    12    2
    29    12    14   am
    30    15    14    1
    31    14    16    1
    32    16    17    2
    33    16    22    1
    34    23    22    1
    35    17    18    1
    36    22    20    2
    37    18    19    2
    38    20    19    1
    39    20    21    1
