@<TRIPOS>MOLECULE
23309_out_ligand_01.pdbqt
 36 39 0 0 0
SMALL
GASTEIGER

@<TRIPOS>ATOM
      1  N         20.2170  -22.1410   -7.1150 N.am    1  UNL1       -0.3200
      2  C         21.0720  -22.8880   -7.9060 C.2     1  UNL1        0.2320
      3  O         20.9580  -24.0750   -8.2040 O.2     1  UNL1       -0.2720
      4  H         20.4680  -21.1740   -6.8990 H       1  UNL1        0.1690
      5  C         22.2330  -22.0660   -8.4520 C.3     1  UNL1        0.1850
      6  S         23.3570  -23.1510   -9.3900 S.3     1  UNL1       -0.0800
      7  C         23.4240  -22.2700  -10.8790 C.ar    1  UNL1        0.2030
      8  N         24.5540  -21.9590  -11.4750 N.ar    1  UNL1       -0.1350
      9  N         24.2090  -21.4370  -12.6880 N.ar    1  UNL1        0.0190
     10  N         22.8950  -21.4250  -12.8470 N.ar    1  UNL1        0.0030
     11  N         22.3570  -21.8790  -11.6790 N.ar    1  UNL1       -0.2170
     12  C         20.9480  -21.8500  -11.4890 C.2     1  UNL1        0.0570
     13  C         20.2220  -22.9620  -11.0480 C.2     1  UNL1        0.0340
     14  C         18.8320  -22.8810  -10.8630 C.2     1  UNL1        0.0390
     15  C         18.1500  -21.6910  -11.1090 C.2     1  UNL1        0.0780
     16  C         18.8740  -20.5760  -11.5310 C.2     1  UNL1        0.0390
     17  C         20.2600  -20.6470  -11.7120 C.2     1  UNL1        0.0340
     18  O         16.8090  -21.4760  -10.9730 O.2     1  UNL1       -0.2550
     19  C         16.1180  -22.2140   -9.9780 C.3     1  UNL1        0.5300
     20  F         16.3740  -21.7290   -8.7450 F       1  UNL1       -0.1440
     21  F         14.7900  -22.1030  -10.2040 F       1  UNL1       -0.1440
     22  F         16.4430  -23.5230  -10.0280 F       1  UNL1       -0.1440
     23  C         18.9830  -22.5250   -6.6050 C.ar    1  UNL1        0.0930
     24  C         18.3100  -21.9040   -5.5550 C.ar    1  UNL1        0.0720
     25  C         16.9970  -22.4980   -5.3750 C.ar    1  UNL1       -0.0260
     26  C         16.8010  -23.5620   -6.2370 C.ar    1  UNL1       -0.0080
     27  C         15.9130  -22.0800   -4.4170 C.3     1  UNL1        0.0410
     28  S         18.1210  -23.8260   -7.2640 S.2     1  UNL1       -0.0750
     29  C         15.5570  -24.3900   -6.3460 C.3     1  UNL1        0.0470
     30  C         14.6360  -24.1470   -5.1440 C.3     1  UNL1        0.0050
     31  C         14.5410  -22.6550   -4.8030 C.3     1  UNL1        0.0050
     32  C         18.9300  -20.7940   -4.8260 C.2     1  UNL1        0.2520
     33  N         18.7640  -20.7640   -3.4730 N.am    1  UNL1       -0.3660
     34  H         18.5180  -21.6020   -2.9700 H       1  UNL1        0.1590
     35  H         19.3310  -20.0860   -2.9830 H       1  UNL1        0.1590
     36  O         19.6410  -19.9520   -5.3710 O.2     1  UNL1       -0.2680
@<TRIPOS>BOND
     1    10     9   ar
     2    10    11   ar
     3     9     8   ar
     4    17    16    1
     5    17    12    2
     6    11    12    1
     7    11     7   ar
     8    16    15    2
     9    12    13    1
    10     8     7   ar
    11    15    18    1
    12    15    14    1
    13    13    14    2
    14    18    19    1
    15     7     6    1
    16    21    19    1
    17    22    19    1
    18    19    20    1
    19     6     5    1
    20     5     2    1
    21     3     2    2
    22     2     1   am
    23    28    23   ar
    24    28    26   ar
    25     1     4    1
    26     1    23    1
    27    23    24   ar
    28    29    26    1
    29    29    30    1
    30    26    25   ar
    31    24    25   ar
    32    24    32    1
    33    25    27    1
    34    36    32    2
    35    30    31    1
    36    32    33   am
    37    31    27    1
    38    33    35    1
    39    33    34    1
