@<TRIPOS>MOLECULE
23318_out_ligand_01.pdbqt
 30 34 0 0 0
SMALL
GASTEIGER

@<TRIPOS>ATOM
      1  C         20.5880  -22.4090  -10.1550 C.2     1  UNL1        0.0350
      2  C         21.8340  -23.0370  -10.0710 C.2     1  UNL1        0.0300
      3  C         22.8000  -22.8620  -11.0710 C.2     1  UNL1        0.0170
      4  C         22.5380  -22.0510  -12.1830 C.2     1  UNL1        0.0100
      5  C         21.2890  -21.4190  -12.2560 C.2     1  UNL1        0.0170
      6  C         20.3230  -21.5960  -11.2550 C.2     1  UNL1        0.0300
      7  N         19.6800  -22.6430   -9.1050 N.am    1  UNL1       -0.3230
      8  C         18.3130  -22.8260   -9.1760 C.2     1  UNL1        0.2580
      9  O         17.6500  -22.8170  -10.2100 O.2     1  UNL1       -0.2670
     10  H         20.0750  -22.6840   -8.1650 H       1  UNL1        0.1690
     11  C         17.5960  -23.0550   -7.8730 C.2     1  UNL1        0.0610
     12  C         16.5260  -23.9740   -7.9050 C.2     1  UNL1        0.0190
     13  C         15.7960  -24.2590   -6.7580 C.2     1  UNL1        0.0020
     14  C         16.1300  -23.6300   -5.5680 C.2     1  UNL1        0.0140
     15  C         17.1930  -22.7140   -5.5180 C.2     1  UNL1       -0.0060
     16  C         17.5160  -22.0860   -4.3080 C.2     1  UNL1        0.0150
     17  C         17.9520  -22.4060   -6.6750 C.2     1  UNL1        0.0820
     18  C         18.5640  -21.1790   -4.2480 C.2     1  UNL1        0.0200
     19  C         19.2590  -20.9280   -5.4090 C.2     1  UNL1        0.1170
     20  N         18.9780  -21.5130   -6.5970 N.2     1  UNL1       -0.2590
     21  C         23.5140  -21.8360  -13.2590 C.ar    1  UNL1        0.1390
     22  N         23.2630  -21.2790  -14.4310 N.ar    1  UNL1       -0.2280
     23  C         24.4470  -21.2840  -15.1240 C.ar    1  UNL1        0.0860
     24  C         24.7380  -20.8100  -16.4100 C.2     1  UNL1        0.0340
     25  C         25.4570  -21.8650  -14.3700 C.ar    1  UNL1        0.0620
     26  C         26.0470  -20.9400  -16.8940 C.2     1  UNL1        0.0020
     27  C         27.0420  -21.5300  -16.1110 C.2     1  UNL1        0.0020
     28  C         26.7700  -22.0090  -14.8240 C.2     1  UNL1        0.0320
     29  N         24.8390  -22.2090  -13.1960 N.ar    1  UNL1       -0.3380
     30  H         25.2820  -22.6730  -12.4210 H       1  UNL1        0.1670
@<TRIPOS>BOND
     1    26    24    1
     2    26    27    2
     3    24    23    2
     4    27    28    1
     5    23    22   ar
     6    23    25   ar
     7    28    25    2
     8    22    21   ar
     9    25    29   ar
    10    21    29   ar
    11    21     4    1
    12    29    30    1
    13     5     4    2
    14     5     6    1
    15     4     3    1
    16     6     1    2
    17     3     2    2
    18     9     8    2
    19     1     2    1
    20     1     7    1
    21     8     7   am
    22     8    11    1
    23     7    10    1
    24    12    11    2
    25    12    13    1
    26    11    17    1
    27    13    14    2
    28    17    20    1
    29    17    15    2
    30    20    19    2
    31    14    15    1
    32    15    16    1
    33    19    18    1
    34    16    18    2
