@<TRIPOS>MOLECULE
23316_out_ligand_01.pdbqt
 34 37 0 0 0
SMALL
GASTEIGER

@<TRIPOS>ATOM
      1  C         18.8300  -21.3410  -11.4230 C.2     1  UNL1        0.2600
      2  O         18.4040  -20.3310  -11.9750 O.2     1  UNL1       -0.2670
      3  N         18.0020  -22.1840  -10.7100 N.am    1  UNL1       -0.3560
      4  H         18.4230  -22.9020  -10.1330 H       1  UNL1        0.1620
      5  C         20.2320  -21.7210  -11.3970 C.ar    1  UNL1        0.1020
      6  C         21.0180  -22.2810  -10.3980 C.ar    1  UNL1        0.0740
      7  C         22.4140  -22.4160  -10.7900 C.ar    1  UNL1        0.0350
      8  C         23.5730  -23.0340  -10.2280 C.2     1  UNL1       -0.0450
      9  C         22.5980  -21.8310  -12.0440 C.ar    1  UNL1        0.1110
     10  C         24.7950  -22.8560  -10.9050 C.2     1  UNL1        0.0340
     11  C         23.6070  -23.8920   -8.9890 C.3     1  UNL1        0.0490
     12  C         24.8390  -22.1790  -12.1130 C.2     1  UNL1        0.0320
     13  C         26.1510  -22.0100  -12.8240 C.3     1  UNL1        0.0700
     14  N         23.7530  -21.6790  -12.7190 N.2     1  UNL1       -0.2460
     15  S         21.1570  -21.3070  -12.7710 S.2     1  UNL1       -0.0620
     16  N         20.4880  -22.6610   -9.1260 N.pl3   1  UNL1       -0.3310
     17  C         20.3630  -21.8390   -8.0240 C.2     1  UNL1        0.0970
     18  C         19.7650  -22.5410   -7.0010 C.2     1  UNL1        0.0190
     19  C         19.4830  -23.8330   -7.4920 C.2     1  UNL1        0.0190
     20  C         19.9150  -23.8740   -8.8000 C.2     1  UNL1        0.0970
     21  C         16.6170  -21.8470  -10.4400 C.3     1  UNL1        0.1270
     22  C         15.8140  -23.0320   -9.8890 C.3     1  UNL1        0.0580
     23  C         15.9290  -23.1620   -8.3860 C.2     1  UNL1       -0.0570
     24  C         16.1030  -22.0190   -7.5900 C.2     1  UNL1        0.0090
     25  C         16.2470  -22.1350   -6.2070 C.2     1  UNL1        0.0250
     26  C         16.2070  -23.3990   -5.6150 C.2     1  UNL1        0.0740
     27  C         16.0430  -24.5460   -6.3940 C.2     1  UNL1        0.0250
     28  C         15.9020  -24.4250   -7.7770 C.2     1  UNL1        0.0090
     29  S         16.4280  -23.5460   -3.8670 S.O2    1  UNL1        0.2390
     30  O         17.8350  -23.4520   -3.5590 O.2     1  UNL1       -0.2060
     31  O         15.5970  -24.6180   -3.3690 O.2     1  UNL1       -0.2060
     32  N         15.7290  -22.1270   -3.3050 N.3     1  UNL1       -0.2250
     33  H         15.5450  -22.2030   -2.3040 H       1  UNL1        0.1360
     34  H         16.3130  -21.3290   -3.5570 H       1  UNL1        0.1360
@<TRIPOS>BOND
     1    13    12    1
     2    15     9   ar
     3    15     5   ar
     4    14    12    2
     5    14     9    1
     6    12    10    1
     7     9     7   ar
     8     2     1    2
     9     1     5    1
    10     1     3   am
    11     5     6   ar
    12    10     8    2
    13     7     6   ar
    14     7     8    1
    15     3    21    1
    16     3     4    1
    17    21    22    1
    18     6    16    1
    19     8    11    1
    20    22    23    1
    21    16    20    1
    22    16    17    1
    23    20    19    2
    24    23    28    2
    25    23    24    1
    26    17    18    2
    27    28    27    1
    28    24    25    2
    29    19    18    1
    30    27    26    2
    31    25    26    1
    32    26    29    1
    33    29    30    2
    34    29    31    2
    35    29    32    1
    36    34    32    1
    37    32    33    1
