@<TRIPOS>MOLECULE
23333_out_ligand_01.pdbqt
 34 37 0 0 0
SMALL
GASTEIGER

@<TRIPOS>ATOM
      1  C         21.1170  -22.1050  -10.0790 C.2     1  UNL1        0.0320
      2  C         20.1740  -21.7590  -11.0560 C.2     1  UNL1        0.0180
      3  C         18.8070  -21.8310  -10.7660 C.2     1  UNL1        0.0190
      4  C         18.3750  -22.2490   -9.5010 C.2     1  UNL1        0.0450
      5  C         19.3110  -22.6060   -8.5240 C.2     1  UNL1       -0.0380
      6  C         20.6800  -22.5450   -8.8200 C.2     1  UNL1        0.0250
      7  C         18.8200  -23.0980   -7.1940 C.3     1  UNL1        0.0770
      8  C         17.5050  -22.3860   -6.8800 C.3     1  UNL1        0.1690
      9  O         16.5520  -22.5940   -7.9430 O.3     1  UNL1       -0.3070
     10  C         16.9160  -22.3570   -9.2280 C.2     1  UNL1        0.2940
     11  O         16.0960  -22.2570  -10.1310 O.2     1  UNL1       -0.2590
     12  C         22.5840  -22.0580  -10.3380 C.2     1  UNL1        0.2510
     13  N         23.1160  -23.1080  -11.0560 N.am    1  UNL1       -0.3530
     14  H         22.4980  -23.7430  -11.5390 H       1  UNL1        0.1630
     15  O         23.2410  -21.1010   -9.9480 O.2     1  UNL1       -0.2680
     16  C         24.5040  -23.1130  -11.4630 C.3     1  UNL1        0.1610
     17  C         24.6230  -23.0420  -12.9660 C.2     1  UNL1       -0.0400
     18  C         24.1340  -21.9230  -13.6580 C.2     1  UNL1        0.0100
     19  C         24.2290  -21.8500  -15.0480 C.2     1  UNL1        0.0250
     20  C         24.8020  -22.9130  -15.7520 C.2     1  UNL1        0.0740
     21  C         25.2930  -24.0350  -15.0810 C.2     1  UNL1        0.0250
     22  C         25.1970  -24.0990  -13.6890 C.2     1  UNL1        0.0100
     23  S         24.9230  -22.8120  -17.5170 S.O2    1  UNL1        0.2390
     24  O         26.2980  -23.0310  -17.8960 O.2     1  UNL1       -0.2060
     25  O         23.8270  -23.5540  -18.0980 O.2     1  UNL1       -0.2060
     26  N         24.5590  -21.1900  -17.7880 N.3     1  UNL1       -0.2250
     27  H         23.6790  -21.0530  -18.2840 H       1  UNL1        0.1360
     28  H         25.3450  -20.7530  -18.2710 H       1  UNL1        0.1360
     29  C         16.9240  -22.8830   -5.5710 C.2     1  UNL1       -0.0290
     30  C         15.6290  -23.4270   -5.5430 C.2     1  UNL1        0.0100
     31  C         15.0680  -23.8620   -4.3410 C.2     1  UNL1        0.0010
     32  C         15.7880  -23.7560   -3.1530 C.2     1  UNL1        0.0000
     33  C         17.0710  -23.2130   -3.1660 C.2     1  UNL1        0.0010
     34  C         17.6350  -22.7770   -4.3660 C.2     1  UNL1        0.0100
@<TRIPOS>BOND
     1    27    26    1
     2    28    26    1
     3    25    23    2
     4    24    23    2
     5    26    23    1
     6    23    20    1
     7    20    21    2
     8    20    19    1
     9    21    22    1
    10    19    18    2
    11    22    17    2
    12    18    17    1
    13    17    16    1
    14    14    13    1
    15    16    13    1
    16    13    12   am
    17     2     3    1
    18     2     1    2
    19     3     4    2
    20    12     1    1
    21    12    15    2
    22    11    10    2
    23     1     6    1
    24     4    10    1
    25     4     5    1
    26    10     9    1
    27     6     5    2
    28     5     7    1
    29     9     8    1
    30     7     8    1
    31     8    29    1
    32    29    30    2
    33    29    34    1
    34    30    31    1
    35    34    33    2
    36    31    32    2
    37    33    32    1
