@<TRIPOS>MOLECULE
23338_out_ligand_01.pdbqt
 31 34 0 0 0
SMALL
GASTEIGER

@<TRIPOS>ATOM
      1  C         17.6440  -23.7270   -8.3900 C.ar    1  UNL1        0.1170
      2  N         18.9150  -23.9040   -8.1870 N.ar    1  UNL1       -0.2260
      3  C         19.7290  -23.2360   -9.0480 C.ar    1  UNL1        0.1160
      4  S         21.4200  -23.3260   -8.9140 S.2     1  UNL1       -0.0630
      5  C         21.6590  -22.3280  -10.2880 C.ar    1  UNL1        0.0810
      6  C         20.4570  -21.8650  -10.8150 C.ar    1  UNL1       -0.0210
      7  C         20.3120  -20.9010  -11.9510 C.3     1  UNL1        0.0510
      8  C         19.3420  -22.4320  -10.0980 C.ar    1  UNL1        0.0750
      9  C         17.9170  -22.2740  -10.3170 C.ar    1  UNL1        0.2600
     10  O         17.4270  -21.6480  -11.2520 O.2     1  UNL1       -0.2670
     11  N         17.1340  -22.9170   -9.3870 N.ar    1  UNL1       -0.3100
     12  H         16.1400  -22.8780   -9.5670 H       1  UNL1        0.1700
     13  C         16.6220  -24.4130   -7.5070 C.3     1  UNL1        0.1580
     14  S         15.5670  -23.1770   -6.6750 S.3     1  UNL1       -0.1220
     15  C         16.7130  -22.5750   -5.4380 C.2     1  UNL1        0.0070
     16  C         16.5810  -22.9040   -4.0770 C.2     1  UNL1       -0.0450
     17  C         17.4810  -22.3440   -3.1570 C.2     1  UNL1        0.0090
     18  C         15.5030  -23.8240   -3.5700 C.3     1  UNL1        0.0490
     19  C         18.5000  -21.4880   -3.5780 C.2     1  UNL1        0.0070
     20  C         18.6420  -21.1690   -4.9290 C.2     1  UNL1       -0.0610
     21  C         19.7700  -20.2940   -5.3910 C.3     1  UNL1        0.0480
     22  C         17.7540  -21.7300   -5.8550 C.2     1  UNL1        0.0250
     23  C         23.0300  -22.0870  -10.7150 C.2     1  UNL1        0.2590
     24  O         23.8190  -21.3570  -10.1230 O.2     1  UNL1       -0.2670
     25  N         23.3990  -22.7880  -11.8500 N.am    1  UNL1       -0.3520
     26  H         22.7750  -23.5090  -12.1860 H       1  UNL1        0.1630
     27  C         24.7430  -22.7230  -12.3780 C.3     1  UNL1        0.0840
     28  C         24.9510  -21.5590  -13.3500 C.3     1  UNL1        0.0250
     29  C         26.0390  -22.0190  -14.3220 C.3     1  UNL1        0.0020
     30  C         26.3200  -23.4800  -13.9910 C.3     1  UNL1        0.0020
     31  C         25.0970  -23.9450  -13.2190 C.3     1  UNL1        0.0250
@<TRIPOS>BOND
     1    29    30    1
     2    29    28    1
     3    30    31    1
     4    28    27    1
     5    31    27    1
     6    27    25    1
     7    26    25    1
     8     7     6    1
     9    25    23   am
    10    10     9    2
    11     6     5   ar
    12     6     8   ar
    13    23     5    1
    14    23    24    2
    15     9     8   ar
    16     9    11   ar
    17     5     4   ar
    18     8     3   ar
    19    12    11    1
    20    11     1   ar
    21     3     4   ar
    22     3     2   ar
    23     1     2   ar
    24     1    13    1
    25    13    14    1
    26    14    15    1
    27    22    15    2
    28    22    20    1
    29    15    16    1
    30    21    20    1
    31    20    19    2
    32    16    18    1
    33    16    17    2
    34    19    17    1
