@<TRIPOS>MOLECULE
23340_out_ligand_01.pdbqt
 35 38 0 0 0
SMALL
GASTEIGER

@<TRIPOS>ATOM
      1  N         25.1360  -23.3260  -10.6990 N.am    1  UNL1       -0.3570
      2  C         24.4600  -22.1260  -10.6740 C.2     1  UNL1        0.2510
      3  O         25.0140  -21.0360  -10.7660 O.2     1  UNL1       -0.2680
      4  H         24.6700  -24.1590  -10.3630 H       1  UNL1        0.1620
      5  C         22.9850  -22.1970  -10.4780 C.2     1  UNL1        0.0320
      6  C         22.0850  -22.0480  -11.5410 C.2     1  UNL1        0.0180
      7  C         20.7070  -22.1220  -11.3060 C.2     1  UNL1        0.0190
      8  C         20.2230  -22.3260  -10.0090 C.2     1  UNL1        0.0450
      9  C         21.1180  -22.4540   -8.9380 C.2     1  UNL1       -0.0380
     10  C         18.7560  -22.4360   -9.7850 C.2     1  UNL1        0.2940
     11  C         22.4980  -22.3950   -9.1770 C.2     1  UNL1        0.0250
     12  C         20.5730  -22.6930   -7.5610 C.3     1  UNL1        0.0770
     13  C         19.2260  -21.9800   -7.4540 C.3     1  UNL1        0.1690
     14  O         18.3330  -22.4310   -8.4950 O.3     1  UNL1       -0.3070
     15  O         17.9810  -22.5510  -10.7240 O.2     1  UNL1       -0.2590
     16  C         18.5930  -22.2270   -6.0980 C.2     1  UNL1       -0.0290
     17  C         18.7540  -21.2840   -5.0710 C.2     1  UNL1        0.0100
     18  C         18.2040  -21.5100   -3.8060 C.2     1  UNL1        0.0010
     19  C         17.4920  -22.6790   -3.5530 C.2     1  UNL1        0.0000
     20  C         17.3290  -23.6260   -4.5620 C.2     1  UNL1        0.0010
     21  C         17.8780  -23.4040   -5.8260 C.2     1  UNL1        0.0100
     22  C         26.5870  -23.3690  -10.7640 C.3     1  UNL1        0.1270
     23  C         27.1150  -24.1490  -11.9730 C.3     1  UNL1        0.0580
     24  C         26.5990  -23.6090  -13.2890 C.2     1  UNL1       -0.0570
     25  C         25.8100  -24.4170  -14.1220 C.2     1  UNL1        0.0090
     26  C         25.3090  -23.9160  -15.3240 C.2     1  UNL1        0.0250
     27  C         25.6050  -22.6020  -15.6960 C.2     1  UNL1        0.0740
     28  C         26.3770  -21.7810  -14.8730 C.2     1  UNL1        0.0250
     29  C         26.8750  -22.2880  -13.6710 C.2     1  UNL1        0.0090
     30  S         24.9580  -21.9700  -17.2220 S.O2    1  UNL1        0.2390
     31  O         26.0630  -21.7150  -18.1140 O.2     1  UNL1       -0.2060
     32  O         23.8170  -22.7700  -17.6030 O.2     1  UNL1       -0.2060
     33  N         24.3270  -20.4870  -16.7310 N.3     1  UNL1       -0.2250
     34  H         24.8260  -19.6880  -17.1230 H       1  UNL1        0.1360
     35  H         24.3040  -20.4590  -15.7110 H       1  UNL1        0.1360
@<TRIPOS>BOND
     1    31    30    2
     2    32    30    2
     3    30    33    1
     4    30    27    1
     5    34    33    1
     6    33    35    1
     7    27    26    2
     8    27    28    1
     9    26    25    1
    10    28    29    2
    11    25    24    2
    12    29    24    1
    13    24    23    1
    14    23    22    1
    15     6     7    1
    16     6     5    2
    17     7     8    2
    18     3     2    2
    19    22     1    1
    20    15    10    2
    21     1     2   am
    22     1     4    1
    23     2     5    1
    24     5    11    1
    25     8    10    1
    26     8     9    1
    27    10    14    1
    28    11     9    2
    29     9    12    1
    30    14    13    1
    31    12    13    1
    32    13    16    1
    33    16    21    2
    34    16    17    1
    35    21    20    1
    36    17    18    2
    37    20    19    2
    38    18    19    1
