@<TRIPOS>MOLECULE
23355_out_ligand_01.pdbqt
 28 30 0 0 0
SMALL
GASTEIGER

@<TRIPOS>ATOM
      1  N         21.4260  -22.6130  -10.6190 N.am    1  UNL1       -0.3230
      2  C         21.5550  -21.6510  -11.6050 C.2     1  UNL1        0.2560
      3  O         20.8300  -20.6810  -11.7880 O.2     1  UNL1       -0.2670
      4  H         22.0240  -23.4260  -10.6910 H       1  UNL1        0.1690
      5  C         20.4810  -22.6400   -9.5740 C.2     1  UNL1        0.0350
      6  C         19.1310  -22.7130   -9.9260 C.2     1  UNL1        0.0390
      7  C         18.1250  -22.7530   -8.9430 C.2     1  UNL1       -0.0290
      8  C         16.6880  -22.8850   -9.3710 C.3     1  UNL1        0.0420
      9  C         18.4530  -22.6600   -7.5770 C.2     1  UNL1        0.0430
     10  C         15.9700  -23.7480   -8.3540 C.3     1  UNL1        0.0250
     11  C         16.0740  -23.1030   -6.9820 C.3     1  UNL1        0.1320
     12  N         17.4110  -22.6440   -6.5940 N.am    1  UNL1       -0.3180
     13  C         17.4790  -22.1170   -5.3010 C.2     1  UNL1        0.2200
     14  C         18.5930  -21.1700   -4.9260 C.3     1  UNL1        0.1170
     15  O         16.5980  -22.3420   -4.4610 O.2     1  UNL1       -0.2730
     16  C         19.8100  -22.6500   -7.2410 C.2     1  UNL1        0.0320
     17  C         20.8120  -22.6310   -8.2230 C.2     1  UNL1        0.0320
     18  C         22.6850  -21.8740  -12.5490 C.2     1  UNL1        0.0330
     19  C         22.7320  -21.2360  -13.7960 C.2     1  UNL1        0.0170
     20  C         23.7990  -21.4780  -14.6630 C.2     1  UNL1        0.0020
     21  C         24.8200  -22.3550  -14.2900 C.2     1  UNL1        0.0170
     22  C         24.7780  -22.9980  -13.0460 C.2     1  UNL1        0.0320
     23  C         23.6980  -22.7690  -12.1840 C.2     1  UNL1        0.0340
     24  C         25.8390  -23.9470  -12.6110 C.2     1  UNL1        0.2490
     25  N         26.1890  -23.9450  -11.2890 N.am    1  UNL1       -0.3660
     26  H         26.8190  -24.6850  -11.0060 H       1  UNL1        0.1590
     27  H         25.6020  -23.5410  -10.5750 H       1  UNL1        0.1590
     28  O         26.3620  -24.7290  -13.3940 O.2     1  UNL1       -0.2680
@<TRIPOS>BOND
     1    20    21    2
     2    20    19    1
     3    21    22    1
     4    19    18    2
     5    28    24    2
     6    22    24    1
     7    22    23    2
     8    24    25   am
     9    18    23    1
    10    18     2    1
    11     3     2    2
    12     2     1   am
    13    25    26    1
    14    25    27    1
    15     4     1    1
    16     1     5    1
    17     6     5    2
    18     6     7    1
    19     5    17    1
    20     8     7    1
    21     8    10    1
    22     7     9    2
    23    10    11    1
    24    17    16    2
    25     9    16    1
    26     9    12    1
    27    11    12    1
    28    12    13   am
    29    13    14    1
    30    13    15    2
