@<TRIPOS>MOLECULE
23386_out_ligand_01.pdbqt
 36 40 0 0 0
SMALL
GASTEIGER

@<TRIPOS>ATOM
      1  C         23.0040  -21.8180  -12.4950 C.ar    1  UNL1        0.1440
      2  N         24.2040  -22.1070  -12.0290 N.ar    1  UNL1       -0.1330
      3  N         24.0580  -22.7200  -10.8170 N.ar    1  UNL1       -0.1230
      4  C         22.7740  -22.7910  -10.5530 C.ar    1  UNL1        0.1920
      5  N         22.0550  -22.1980  -11.5620 N.ar    1  UNL1       -0.3050
      6  S         22.1030  -23.5170   -9.1350 S.3     1  UNL1       -0.0840
      7  C         21.9950  -22.0630   -8.0440 C.3     1  UNL1        0.1420
      8  C         20.6850  -22.0850   -7.2840 C.2     1  UNL1        0.0510
      9  C         20.3970  -21.1280   -6.3950 C.3     1  UNL1        0.1030
     10  C         19.1220  -21.1840   -5.6630 C.2     1  UNL1        0.2550
     11  O         18.8650  -20.2920   -4.8560 O.2     1  UNL1       -0.2680
     12  N         18.3080  -22.2660   -5.9580 N.am    1  UNL1       -0.2730
     13  C         17.0840  -22.3930   -5.3100 C.3     1  UNL1        0.1080
     14  C         18.7270  -23.2050   -6.8920 C.2     1  UNL1        0.1370
     15  C         16.2520  -23.4190   -5.5490 C.2     1  UNL1       -0.0460
     16  C         14.9280  -23.5760   -4.8660 C.3     1  UNL1        0.0490
     17  C         16.6390  -24.4280   -6.5090 C.2     1  UNL1        0.0120
     18  C         17.8070  -24.3450   -7.1570 C.2     1  UNL1        0.0510
     19  N         19.8520  -23.1500   -7.5350 N.2     1  UNL1       -0.2340
     20  C         20.6160  -21.9950  -11.6690 C.3     1  UNL1        0.0930
     21  C         19.7970  -23.0770  -10.9370 C.3     1  UNL1        0.0260
     22  C         18.4040  -22.5980  -10.5240 C.3     1  UNL1        0.0020
     23  C         17.8190  -21.6250  -11.5390 C.3     1  UNL1        0.0000
     24  C         18.6750  -20.3650  -11.6930 C.3     1  UNL1        0.0020
     25  C         20.1480  -20.5730  -11.3250 C.3     1  UNL1        0.0260
     26  C         22.7450  -21.1700  -13.8200 C.3     1  UNL1        0.1730
     27  N         23.7460  -20.2290  -14.3290 N.pl3   1  UNL1       -0.2860
     28  H         24.1070  -19.6300  -13.5900 H       1  UNL1        0.1280
     29  C         24.7870  -20.6520  -15.1650 C.2     1  UNL1        0.0110
     30  C         25.9660  -19.8940  -15.1720 C.2     1  UNL1        0.0230
     31  C         27.0250  -20.2010  -16.0300 C.2     1  UNL1        0.0050
     32  C         26.9170  -21.2660  -16.9220 C.2     1  UNL1        0.0370
     33  C         25.7440  -22.0160  -16.9590 C.2     1  UNL1        0.0690
     34  C         24.6880  -21.6960  -16.0910 C.2     1  UNL1        0.0600
     35  O         25.4990  -23.0760  -17.7900 O.2     1  UNL1       -0.3560
     36  C         24.1380  -23.3690  -18.0800 C.3     1  UNL1        0.2100
@<TRIPOS>BOND
     1    36    35    1
     2    35    33    1
     3    33    32    2
     4    33    34    1
     5    32    31    1
     6    34    29    2
     7    31    30    2
     8    30    29    1
     9    29    27    1
    10    27    26    1
    11    27    28    1
    12    26     1    1
    13     1     2   ar
    14     1     5   ar
    15     2     3   ar
    16    24    23    1
    17    24    25    1
    18    20     5    1
    19    20    25    1
    20    20    21    1
    21     5     4   ar
    22    23    22    1
    23    21    22    1
    24     3     4   ar
    25     4     6    1
    26     6     7    1
    27     7     8    1
    28    19     8    2
    29    19    14    1
    30     8     9    1
    31    18    14    2
    32    18    17    1
    33    14    12    1
    34    17    15    2
    35     9    10    1
    36    12    10   am
    37    12    13    1
    38    10    11    2
    39    15    13    1
    40    15    16    1
