@<TRIPOS>MOLECULE
23394_out_ligand_01.pdbqt
 34 37 0 0 0
SMALL
GASTEIGER

@<TRIPOS>ATOM
      1  C         19.9060  -22.8450   -9.1940 C.2     1  UNL1        0.0320
      2  C         20.0480  -22.2800  -10.4690 C.2     1  UNL1        0.0190
      3  C         21.2430  -22.4440  -11.1760 C.2     1  UNL1        0.0310
      4  C         22.2950  -23.1630  -10.6080 C.2     1  UNL1        0.0420
      5  C         22.1670  -23.7110   -9.3330 C.2     1  UNL1        0.0310
      6  C         20.9750  -23.5510   -8.6250 C.2     1  UNL1        0.0190
      7  N         23.5290  -23.2920  -11.3000 N.pl3   1  UNL1       -0.2810
      8  H         23.4920  -23.4280  -12.3090 H       1  UNL1        0.1790
      9  S         24.7810  -22.2320  -10.8870 S.O2    1  UNL1        0.2630
     10  O         24.2260  -21.3290   -9.9010 O.2     1  UNL1       -0.2000
     11  O         25.9840  -22.9860  -10.6120 O.2     1  UNL1       -0.2000
     12  C         25.0130  -21.3060  -12.3860 C.2     1  UNL1        0.0820
     13  C         24.2660  -21.6630  -13.5380 C.2     1  UNL1        0.0280
     14  C         24.4120  -20.9470  -14.7300 C.2     1  UNL1        0.0330
     15  C         25.2990  -19.8960  -14.7140 C.ar    1  UNL1        0.0630
     16  N         25.6500  -19.0160  -15.7300 N.ar    1  UNL1       -0.3070
     17  C         26.0230  -19.5440  -13.5730 C.ar    1  UNL1        0.0640
     18  C         26.5970  -18.1060  -15.2340 C.ar    1  UNL1        0.3250
     19  H         25.3030  -18.9990  -16.6750 H       1  UNL1        0.1700
     20  O         27.1210  -17.1970  -15.8510 O.2     1  UNL1       -0.2470
     21  N         26.8180  -18.4490  -13.8930 N.ar    1  UNL1       -0.3060
     22  H         27.4590  -17.9600  -13.2890 H       1  UNL1        0.1700
     23  C         25.9020  -20.2220  -12.3860 C.2     1  UNL1        0.0570
     24  C         18.6560  -22.6830   -8.3960 C.2     1  UNL1        0.2570
     25  N         18.7630  -23.0850   -7.0790 N.am    1  UNL1       -0.3070
     26  H         19.6750  -23.3430   -6.7420 H       1  UNL1        0.1700
     27  O         17.6900  -22.1860   -8.9590 O.2     1  UNL1       -0.2670
     28  C         17.7200  -23.0840   -6.1370 C.2     1  UNL1        0.1360
     29  N         16.7350  -23.9950   -6.2470 N.2     1  UNL1       -0.2430
     30  C         15.7440  -23.9910   -5.3340 C.2     1  UNL1        0.1190
     31  C         15.6810  -23.1040   -4.2800 C.2     1  UNL1        0.0200
     32  C         16.6980  -22.1670   -4.1610 C.2     1  UNL1        0.0120
     33  C         17.7440  -22.1420   -5.0960 C.2     1  UNL1       -0.0160
     34  C         18.8310  -21.1180   -4.9430 C.3     1  UNL1        0.0520
@<TRIPOS>BOND
     1    19    16    1
     2    20    18    2
     3    16    18   ar
     4    16    15   ar
     5    18    21   ar
     6    14    15    2
     7    14    13    1
     8    15    17   ar
     9    21    17   ar
    10    21    22    1
    11    17    23    2
    12    13    12    2
    13    12    23    1
    14    12     9    1
    15     8     7    1
    16     7     9    1
    17     7     4    1
    18     3     4    2
    19     3     2    1
    20     9    11    2
    21     9    10    2
    22     4     5    1
    23     2     1    2
    24     5     6    2
    25     1     6    1
    26     1    24    1
    27    27    24    2
    28    24    25   am
    29    25    26    1
    30    25    28    1
    31    29    28    2
    32    29    30    1
    33    28    33    1
    34    30    31    2
    35    33    34    1
    36    33    32    2
    37    31    32    1
