@<TRIPOS>MOLECULE
233_out_ligand_01.pdbqt
 32 34 0 0 0
SMALL
GASTEIGER

@<TRIPOS>ATOM
      1  C         19.4810  -21.9480  -10.7370 C.2     1  UNL1        0.0360
      2  C         18.8470  -20.9220  -11.4440 C.2     1  UNL1        0.0290
      3  C         17.4640  -20.7300  -11.3420 C.2     1  UNL1        0.0040
      4  C         16.6970  -21.5670  -10.5380 C.2     1  UNL1        0.0250
      5  C         17.3220  -22.6070   -9.8510 C.2     1  UNL1        0.0820
      6  C         18.7090  -22.7900   -9.9300 C.2     1  UNL1        0.0540
      7  S         16.3580  -23.6970   -8.8300 S.O2    1  UNL1        0.2630
      8  O         17.2650  -24.4700   -8.0090 O.2     1  UNL1       -0.2000
      9  O         15.3820  -24.3420   -9.6840 O.2     1  UNL1       -0.2000
     10  N         15.4850  -22.6260   -7.8560 N.pl3   1  UNL1       -0.2810
     11  H         15.2140  -21.7840   -8.3620 H       1  UNL1        0.1790
     12  C         15.8170  -22.5060   -6.4800 C.2     1  UNL1        0.0430
     13  C         14.9860  -23.0390   -5.4960 C.2     1  UNL1        0.0300
     14  C         15.3490  -22.9510   -4.1540 C.2     1  UNL1        0.0030
     15  C         16.5430  -22.3280   -3.7930 C.2     1  UNL1        0.0160
     16  C         17.3840  -21.7790   -4.7730 C.2     1  UNL1        0.0500
     17  C         17.0110  -21.8770   -6.1240 C.2     1  UNL1        0.0460
     18  C         18.6850  -21.1260   -4.3760 C.3     1  UNL1        0.4170
     19  F         19.7010  -21.3770   -5.2480 F       1  UNL1       -0.1660
     20  F         19.1220  -21.5430   -3.1580 F       1  UNL1       -0.1660
     21  F         18.5900  -19.7700   -4.2970 F       1  UNL1       -0.1660
     22  N         20.8700  -22.1950  -10.7750 N.am    1  UNL1       -0.3230
     23  C         21.7460  -21.9520  -11.8180 C.2     1  UNL1        0.2590
     24  O         21.4410  -21.4910  -12.9130 O.2     1  UNL1       -0.2670
     25  H         21.2670  -22.5920   -9.9300 H       1  UNL1        0.1690
     26  C         23.1830  -22.2940  -11.5790 C.2     1  UNL1        0.0700
     27  C         23.8400  -23.1100  -12.5110 C.2     1  UNL1        0.0200
     28  C         25.1840  -23.4570  -12.3360 C.2     1  UNL1        0.0010
     29  C         25.8870  -22.9900  -11.2270 C.2     1  UNL1        0.0030
     30  C         25.2460  -22.1810  -10.2930 C.2     1  UNL1        0.0430
     31  C         23.9050  -21.8390  -10.4730 C.2     1  UNL1        0.1320
     32  F         23.3300  -21.0540   -9.5480 F       1  UNL1       -0.2050
@<TRIPOS>BOND
     1    24    23    2
     2    27    28    1
     3    27    26    2
     4    28    29    2
     5    23    26    1
     6    23    22   am
     7    26    31    1
     8     2     3    1
     9     2     1    2
    10     3     4    2
    11    29    30    1
    12    22     1    1
    13    22    25    1
    14     1     6    1
    15     4     5    1
    16    31    30    2
    17    31    32    1
    18     6     5    2
    19     5     7    1
    20     9     7    2
    21     7     8    2
    22     7    10    1
    23    11    10    1
    24    10    12    1
    25    12    17    2
    26    12    13    1
    27    17    16    1
    28    13    14    2
    29    19    18    1
    30    16    18    1
    31    16    15    2
    32    18    21    1
    33    18    20    1
    34    14    15    1
