@<TRIPOS>MOLECULE
23400_out_ligand_01.pdbqt
 35 39 0 0 0
SMALL
GASTEIGER

@<TRIPOS>ATOM
      1  C         16.9460  -21.7900  -10.4380 C.2     1  UNL1        0.0290
      2  C         17.3720  -21.1600  -11.6100 C.2     1  UNL1        0.0270
      3  C         18.7340  -20.9810  -11.8950 C.2     1  UNL1        0.0310
      4  C         19.7250  -21.4430  -11.0300 C.2     1  UNL1        0.0350
      5  C         19.3040  -22.1380   -9.8900 C.2     1  UNL1        0.0560
      6  C         17.9380  -22.3390   -9.6180 C.2     1  UNL1        0.0980
      7  N         21.1030  -21.3210  -11.2630 N.pl3   1  UNL1       -0.3400
      8  H         21.3400  -20.6440  -11.9740 H       1  UNL1        0.1670
      9  C         22.2200  -22.0300  -10.7930 C.2     1  UNL1        0.1430
     10  N         22.2590  -22.5280   -9.5340 N.2     1  UNL1       -0.2230
     11  C         23.3440  -23.1980   -9.1170 C.2     1  UNL1        0.2360
     12  N         24.4560  -23.4580   -9.8050 N.2     1  UNL1       -0.2340
     13  C         24.4070  -22.9550  -11.0480 C.ar    1  UNL1        0.1140
     14  S         25.7400  -23.1730  -12.1160 S.2     1  UNL1       -0.0730
     15  C         23.3530  -22.2370  -11.6160 C.ar    1  UNL1        0.0530
     16  C         24.9430  -22.3270  -13.3120 C.ar    1  UNL1       -0.0080
     17  C         23.7030  -21.8730  -12.9500 C.ar    1  UNL1       -0.0280
     18  C         25.3410  -21.9830  -14.6960 C.3     1  UNL1        0.0470
     19  C         23.0700  -21.1330  -14.0740 C.3     1  UNL1        0.0410
     20  C         24.2650  -20.9160  -15.0550 C.3     1  UNL1        0.0100
     21  S         17.5130  -23.2980   -8.1830 S.O2    1  UNL1        0.2470
     22  O         16.4940  -24.2540   -8.5660 O.2     1  UNL1       -0.2050
     23  O         18.7480  -23.7480   -7.5680 O.2     1  UNL1       -0.2050
     24  N         16.8390  -22.1380   -7.1390 N.pl3   1  UNL1       -0.1800
     25  H         16.0440  -21.6930   -7.6090 H       1  UNL1        0.1460
     26  C         16.5600  -22.5420   -5.7880 C.2     1  UNL1        0.0440
     27  C         15.4350  -23.3250   -5.5170 C.2     1  UNL1        0.0260
     28  C         15.1310  -23.6900   -4.2030 C.2     1  UNL1        0.0020
     29  C         15.9520  -23.2770   -3.1530 C.2     1  UNL1        0.0020
     30  C         17.0860  -22.5080   -3.4160 C.2     1  UNL1        0.0260
     31  C         17.3920  -22.1460   -4.7300 C.2     1  UNL1        0.0560
     32 CL         18.8210  -21.2170   -5.0170 Cl      1  UNL1       -0.0820
     33  N         15.5740  -22.0430  -10.2750 N.pl3   1  UNL1       -0.3010
     34  H         15.3750  -22.9010   -9.7670 H       1  UNL1        0.1240
     35  H         15.0530  -22.0190  -11.1600 H       1  UNL1        0.1240
@<TRIPOS>BOND
     1    20    18    1
     2    20    19    1
     3    18    16    1
     4    19    17    1
     5    16    17   ar
     6    16    14   ar
     7    17    15   ar
     8    14    13   ar
     9     8     7    1
    10     3     2    1
    11     3     4    2
    12    15    13   ar
    13    15     9    2
    14     2     1    2
    15     7     4    1
    16     7     9    1
    17    35    33    1
    18    13    12    2
    19     4     5    1
    20     9    10    1
    21     1    33    1
    22     1     6    1
    23    33    34    1
    24     5     6    2
    25    12    11    1
    26     6    21    1
    27    10    11    2
    28    22    21    2
    29    21    23    2
    30    21    24    1
    31    25    24    1
    32    24    26    1
    33    26    27    2
    34    26    31    1
    35    27    28    1
    36    32    31    1
    37    31    30    2
    38    28    29    2
    39    30    29    1
