@<TRIPOS>MOLECULE
23418_out_ligand_01.pdbqt
 31 34 0 0 0
SMALL
GASTEIGER

@<TRIPOS>ATOM
      1  C         20.5240  -21.5250  -11.4230 C.2     1  UNL1        0.2560
      2  O         19.8620  -20.5330  -11.7040 O.2     1  UNL1       -0.2670
      3  N         20.2220  -22.4860  -10.4760 N.am    1  UNL1       -0.3230
      4  H         20.9370  -23.1690  -10.2670 H       1  UNL1        0.1690
      5  C         21.8240  -21.7220  -12.1270 C.2     1  UNL1        0.0320
      6  C         22.8190  -22.4790  -11.4910 C.2     1  UNL1        0.0180
      7  C         24.0520  -22.6870  -12.1120 C.2     1  UNL1        0.0260
      8  C         24.2880  -22.1300  -13.3720 C.2     1  UNL1        0.0790
      9  C         23.3150  -21.3510  -14.0060 C.2     1  UNL1        0.0260
     10  C         22.0830  -21.1440  -13.3800 C.2     1  UNL1        0.0180
     11  S         25.8640  -22.3890  -14.1510 S.O2    1  UNL1        0.2590
     12  O         26.3600  -23.6940  -13.7750 O.2     1  UNL1       -0.2010
     13  O         25.7370  -21.9860  -15.5340 O.2     1  UNL1       -0.2010
     14  N         26.8110  -21.2300  -13.4030 N.3     1  UNL1       -0.3110
     15  H         27.5850  -21.6040  -12.8580 H       1  UNL1        0.1720
     16  C         26.2630  -19.9090  -13.0860 C.3     1  UNL1        0.0850
     17  C         26.6410  -19.5350  -11.6590 C.3     1  UNL1        0.0320
     18  C         26.8330  -18.9060  -14.0820 C.3     1  UNL1        0.0320
     19  C         19.0510  -22.5770   -9.6900 C.2     1  UNL1        0.0350
     20  C         17.8450  -22.8470  -10.3760 C.2     1  UNL1        0.0300
     21  C         16.6260  -22.9510   -9.6990 C.2     1  UNL1        0.0100
     22  C         16.6320  -22.7800   -8.3270 C.2     1  UNL1       -0.0430
     23  C         17.8250  -22.5070   -7.6280 C.2     1  UNL1       -0.0170
     24  C         15.4610  -22.8420   -7.3670 C.2     1  UNL1        0.0780
     25  C         19.0350  -22.4030   -8.3020 C.3     1  UNL1        0.0420
     26  C         17.5190  -22.3770   -6.2180 C.2     1  UNL1       -0.0190
     27  C         18.3400  -22.1150   -5.1350 C.2     1  UNL1        0.0130
     28  C         16.1320  -22.5700   -6.0360 C.2     1  UNL1       -0.0430
     29  C         17.7600  -22.0450   -3.8640 C.2     1  UNL1        0.0010
     30  C         16.3790  -22.2360   -3.6890 C.2     1  UNL1        0.0010
     31  C         15.5490  -22.5020   -4.7820 C.2     1  UNL1        0.0080
@<TRIPOS>BOND
     1    13    11    2
     2    11    12    2
     3    11    14    1
     4    11     8    1
     5    18    16    1
     6     9    10    1
     7     9     8    2
     8    14    16    1
     9    14    15    1
    10    10     5    2
    11     8     7    1
    12    16    17    1
    13     5     6    1
    14     5     1    1
    15     7     6    2
    16     2     1    2
    17     1     3   am
    18     3     4    1
    19     3    19    1
    20    20    21    1
    21    20    19    2
    22    21    22    2
    23    19    25    1
    24    22    23    1
    25    22    24    1
    26    25    23    1
    27    23    26    2
    28    24    28    2
    29    26    28    1
    30    26    27    1
    31    28    31    1
    32    27    29    2
    33    31    30    2
    34    29    30    1
