@<TRIPOS>MOLECULE
23430_out_ligand_01.pdbqt
 27 29 0 0 0
SMALL
GASTEIGER

@<TRIPOS>ATOM
      1  C         19.1600  -22.5900   -9.9550 C.2     1  UNL1        0.0340
      2  C         18.3470  -21.7390  -10.7090 C.2     1  UNL1        0.0170
      3  C         18.8930  -21.0400  -11.7850 C.2     1  UNL1        0.0030
      4  C         20.2470  -21.1800  -12.1070 C.2     1  UNL1        0.0290
      5  C         21.0740  -22.0130  -11.3530 C.2     1  UNL1        0.0350
      6  C         20.5230  -22.7100  -10.2710 C.2     1  UNL1        0.0460
      7  C         18.6460  -23.3600   -8.7900 C.2     1  UNL1        0.2520
      8  O         19.2400  -24.3660   -8.4160 O.2     1  UNL1       -0.2680
      9  N         17.4860  -22.8970   -8.2070 N.am    1  UNL1       -0.3520
     10  H         17.0320  -22.0720   -8.5740 H       1  UNL1        0.1630
     11  C         16.9260  -23.5030   -6.9980 C.3     1  UNL1        0.0840
     12  C         17.9380  -23.4090   -5.8450 C.3     1  UNL1        0.0250
     13  C         18.0260  -22.0230   -5.2050 C.3     1  UNL1        0.0020
     14  C         17.5910  -21.9830   -3.7410 C.3     1  UNL1        0.0000
     15  C         16.2950  -22.7080   -3.3740 C.3     1  UNL1        0.0000
     16  C         15.0780  -22.3860   -4.2380 C.3     1  UNL1        0.0000
     17  C         14.8600  -23.3280   -5.4300 C.3     1  UNL1        0.0020
     18  C         15.5410  -22.8920   -6.7270 C.3     1  UNL1        0.0250
     19  N         22.4530  -22.1960  -11.5940 N.am    1  UNL1       -0.3220
     20  C         23.5210  -21.7820  -10.8080 C.2     1  UNL1        0.2630
     21  O         23.3970  -21.1200   -9.7820 O.2     1  UNL1       -0.2670
     22  H         22.6840  -22.6370  -12.4730 H       1  UNL1        0.1690
     23  C         24.8270  -22.1930  -11.3290 C.2     1  UNL1        0.0720
     24  C         26.1030  -21.7590  -11.0030 C.2     1  UNL1        0.0250
     25  C         27.1200  -22.4260  -11.7500 C.2     1  UNL1        0.0090
     26  C         26.5940  -23.3420  -12.6300 C.2     1  UNL1        0.0500
     27  S         24.8890  -23.3890  -12.5620 S.3     1  UNL1       -0.0970
@<TRIPOS>BOND
     1    26    27    1
     2    26    25    2
     3    27    23    1
     4    22    19    1
     5     4     3    2
     6     4     5    1
     7     3     2    1
     8    25    24    1
     9    19     5    1
    10    19    20   am
    11     5     6    2
    12    23    24    2
    13    23    20    1
    14    20    21    2
    15     2     1    2
    16     6     1    1
    17     1     7    1
    18     7     8    2
    19     7     9   am
    20    10     9    1
    21     9    11    1
    22    11    18    1
    23    11    12    1
    24    18    17    1
    25    12    13    1
    26    17    16    1
    27    13    14    1
    28    16    15    1
    29    14    15    1
