@<TRIPOS>MOLECULE
23448_out_ligand_01.pdbqt
 32 35 0 0 0
SMALL
GASTEIGER

@<TRIPOS>ATOM
      1  N         19.4190  -23.4030   -7.6220 N.am    1  UNL1       -0.3210
      2  C         20.3780  -22.4260   -7.4450 C.2     1  UNL1        0.2560
      3  O         20.3390  -21.5010   -6.6440 O.2     1  UNL1       -0.2670
      4  H         19.6320  -24.1780   -8.2400 H       1  UNL1        0.1690
      5  C         18.1660  -23.5150   -6.9800 C.2     1  UNL1        0.0690
      6  C         17.9680  -23.3340   -5.6110 C.2     1  UNL1        0.0320
      7  C         16.6880  -23.4610   -5.0590 C.2     1  UNL1        0.0020
      8  C         15.5940  -23.7710   -5.8670 C.2     1  UNL1        0.0030
      9  C         15.7750  -23.9520   -7.2360 C.2     1  UNL1        0.0390
     10  C         17.0520  -23.8060   -7.7860 C.2     1  UNL1        0.1020
     11  O         17.2390  -24.0160   -9.1360 O.2     1  UNL1       -0.3080
     12  C         17.4700  -22.9070   -9.9230 C.2     1  UNL1        0.0760
     13  C         16.5520  -21.8740  -10.1250 C.2     1  UNL1        0.0370
     14  C         16.9010  -20.7800  -10.9190 C.2     1  UNL1        0.0030
     15  C         18.1680  -20.7080  -11.4970 C.2     1  UNL1        0.0070
     16  C         19.1080  -21.7220  -11.2750 C.2     1  UNL1       -0.0590
     17  C         20.4600  -21.6590  -11.9200 C.3     1  UNL1        0.0480
     18  C         18.7450  -22.8250  -10.4900 C.2     1  UNL1        0.0440
     19  C         21.5860  -22.5600   -8.3130 C.2     1  UNL1        0.0320
     20  C         22.3100  -21.4010   -8.6270 C.2     1  UNL1        0.0180
     21  C         23.4460  -21.4730   -9.4370 C.2     1  UNL1        0.0260
     22  C         23.8550  -22.7120   -9.9340 C.2     1  UNL1        0.0740
     23  C         23.1270  -23.8720   -9.6510 C.2     1  UNL1        0.0260
     24  C         21.9900  -23.7960   -8.8420 C.2     1  UNL1        0.0180
     25  S         25.2850  -22.8210  -10.9820 S.O2    1  UNL1        0.2410
     26  O         26.2570  -23.6800  -10.3420 O.2     1  UNL1       -0.2060
     27  O         25.6090  -21.4820  -11.4210 O.2     1  UNL1       -0.2060
     28  N         24.6520  -23.7180  -12.2860 N.3     1  UNL1       -0.2110
     29  H         24.3520  -24.6240  -11.9160 H       1  UNL1        0.1400
     30  C         25.5810  -23.8770  -13.4170 C.3     1  UNL1        0.0710
     31  C         25.2440  -23.2980  -14.7620 C.3     1  UNL1        0.0220
     32  C         25.2610  -24.7880  -14.5670 C.3     1  UNL1        0.0220
@<TRIPOS>BOND
     1    31    32    1
     2    31    30    1
     3    32    30    1
     4    30    28    1
     5    28    29    1
     6    28    25    1
     7    17    16    1
     8    15    16    2
     9    15    14    1
    10    27    25    2
    11    16    18    1
    12    25    26    2
    13    25    22    1
    14    14    13    2
    15    18    12    2
    16    13    12    1
    17    22    23    2
    18    22    21    1
    19    12    11    1
    20    23    24    1
    21    21    20    2
    22    11    10    1
    23    24    19    2
    24    20    19    1
    25    19     2    1
    26     4     1    1
    27    10     9    1
    28    10     5    2
    29     1     2   am
    30     1     5    1
    31     2     3    2
    32     9     8    2
    33     5     6    1
    34     8     7    1
    35     6     7    2
