@<TRIPOS>MOLECULE
23450_out_ligand_01.pdbqt
 31 35 0 0 0
SMALL
GASTEIGER

@<TRIPOS>ATOM
      1  O         19.3420  -20.7120  -11.4070 O.2     1  UNL1       -0.2670
      2  C         20.0120  -21.6890  -11.0950 C.2     1  UNL1        0.2560
      3  N         19.6590  -22.6930  -10.2120 N.am    1  UNL1       -0.3230
      4  H         20.2670  -23.5000  -10.1660 H       1  UNL1        0.1690
      5  C         21.3390  -21.8690  -11.7530 C.2     1  UNL1        0.0320
      6  C         22.2800  -22.7080  -11.1360 C.2     1  UNL1        0.0180
      7  C         23.5340  -22.9080  -11.7180 C.2     1  UNL1        0.0260
      8  C         23.8410  -22.2680  -12.9210 C.2     1  UNL1        0.0740
      9  C         22.9000  -21.4540  -13.5600 C.2     1  UNL1        0.0260
     10  C         21.6460  -21.2550  -12.9750 C.2     1  UNL1        0.0180
     11  S         25.4210  -22.5290  -13.6900 S.O2    1  UNL1        0.2410
     12  O         26.2340  -23.3340  -12.8060 O.2     1  UNL1       -0.2060
     13  O         25.1810  -22.8960  -15.0680 O.2     1  UNL1       -0.2060
     14  N         26.0670  -20.9530  -13.6160 N.3     1  UNL1       -0.2110
     15  H         25.2830  -20.2990  -13.6720 H       1  UNL1        0.1400
     16  C         26.9060  -20.6970  -12.4330 C.3     1  UNL1        0.0710
     17  C         27.0570  -19.3010  -11.8990 C.3     1  UNL1        0.0220
     18  C         26.3010  -20.3310  -11.1090 C.3     1  UNL1        0.0220
     19  C         18.4910  -22.7710   -9.4210 C.2     1  UNL1        0.0350
     20  C         17.2140  -23.0490   -9.9420 C.2     1  UNL1        0.0300
     21  C         16.0870  -23.1090   -9.1140 C.2     1  UNL1        0.0100
     22  C         16.2580  -22.8830   -7.7610 C.2     1  UNL1       -0.0430
     23  C         17.5280  -22.6000   -7.2210 C.2     1  UNL1       -0.0170
     24  C         15.2090  -22.8900   -6.6690 C.2     1  UNL1        0.0780
     25  C         18.6440  -22.5420   -8.0430 C.3     1  UNL1        0.0420
     26  C         17.3950  -22.4110   -5.7920 C.2     1  UNL1       -0.0190
     27  C         18.3400  -22.1170   -4.8240 C.2     1  UNL1        0.0130
     28  C         16.0380  -22.5760   -5.4390 C.2     1  UNL1       -0.0430
     29  C         17.9150  -21.9890   -3.4970 C.2     1  UNL1        0.0010
     30  C         16.5620  -22.1540   -3.1540 C.2     1  UNL1        0.0010
     31  C         15.6090  -22.4510   -4.1290 C.2     1  UNL1        0.0080
@<TRIPOS>BOND
     1    13    11    2
     2    11    14    1
     3    11     8    1
     4    11    12    2
     5    15    14    1
     6    14    16    1
     7     9    10    1
     8     9     8    2
     9    10     5    2
    10     8     7    1
    11    16    17    1
    12    16    18    1
    13    17    18    1
    14     5     6    1
    15     5     2    1
    16     7     6    2
    17     1     2    2
    18     2     3   am
    19     3     4    1
    20     3    19    1
    21    20    19    2
    22    20    21    1
    23    19    25    1
    24    21    22    2
    25    25    23    1
    26    22    23    1
    27    22    24    1
    28    23    26    2
    29    24    28    2
    30    26    28    1
    31    26    27    1
    32    28    31    1
    33    27    29    2
    34    31    30    2
    35    29    30    1
