@<TRIPOS>MOLECULE
23465_out_ligand_01.pdbqt
 27 29 0 0 0
SMALL
GASTEIGER

@<TRIPOS>ATOM
      1  C         20.0760  -23.2000   -9.3220 C.2     1  UNL1        0.2800
      2  O         20.0550  -24.3640   -8.9360 O.2     1  UNL1       -0.2650
      3  N         19.3270  -22.1740   -8.7600 N.am    1  UNL1       -0.3210
      4  H         19.5370  -21.2420   -9.0890 H       1  UNL1        0.1690
      5  C         18.3830  -22.2600   -7.7160 C.2     1  UNL1        0.0350
      6  C         18.6960  -22.1330   -6.3600 C.2     1  UNL1        0.0310
      7  C         17.6980  -22.2350   -5.3860 C.2     1  UNL1        0.0270
      8  C         16.3790  -22.4800   -5.7700 C.2     1  UNL1        0.0740
      9  C         16.0450  -22.6040   -7.1180 C.2     1  UNL1        0.0270
     10  C         17.0490  -22.4960   -8.0850 C.2     1  UNL1        0.0310
     11  S         15.1230  -22.6060   -4.5250 S.O2    1  UNL1        0.2390
     12  O         14.0910  -21.6420   -4.8210 O.2     1  UNL1       -0.2060
     13  O         14.8430  -24.0040   -4.2960 O.2     1  UNL1       -0.2060
     14  N         15.9500  -22.0860   -3.1540 N.3     1  UNL1       -0.2250
     15  H         15.5880  -22.4800   -2.2860 H       1  UNL1        0.1360
     16  H         15.9580  -21.0650   -3.1390 H       1  UNL1        0.1360
     17  C         20.9330  -22.7650  -10.4180 C.ar    1  UNL1        0.1500
     18  C         20.7450  -21.9290  -11.5180 C.ar    1  UNL1       -0.0090
     19  C         19.5030  -21.2300  -11.9370 C.3     1  UNL1        0.0520
     20  C         22.0000  -21.8950  -12.2090 C.ar    1  UNL1        0.0080
     21  C         22.4980  -21.2580  -13.3620 C.2     1  UNL1        0.0380
     22  C         22.8520  -22.7310  -11.5020 C.ar    1  UNL1        0.0870
     23  C         23.8280  -21.4930  -13.7370 C.2     1  UNL1        0.0350
     24  C         24.6540  -22.3410  -12.9960 C.2     1  UNL1        0.0260
     25 CL         24.4530  -20.7170  -15.1420 Cl      1  UNL1       -0.0840
     26  C         24.1760  -22.9860  -11.8510 C.2     1  UNL1        0.0400
     27  O         22.2100  -23.2610  -10.4340 O.2     1  UNL1       -0.3040
@<TRIPOS>BOND
     1    25    23    1
     2    23    21    1
     3    23    24    2
     4    21    20    2
     5    24    26    1
     6    20    18   ar
     7    20    22   ar
     8    19    18    1
     9    26    22    2
    10    18    17   ar
    11    22    27   ar
    12    27    17   ar
    13    17     1    1
    14     1     2    2
    15     1     3   am
    16     4     3    1
    17     3     5    1
    18    10     5    2
    19    10     9    1
    20     5     6    1
    21     9     8    2
    22     6     7    2
    23     8     7    1
    24     8    11    1
    25    12    11    2
    26    11    13    2
    27    11    14    1
    28    14    16    1
    29    14    15    1
