@<TRIPOS>MOLECULE
23460_out_ligand_01.pdbqt
 37 41 0 0 0
SMALL
GASTEIGER

@<TRIPOS>ATOM
      1  C         17.0050  -22.8240   -8.9710 C.2     1  UNL1        0.0750
      2  C         16.3200  -21.9790   -9.8510 C.2     1  UNL1        0.0250
      3  C         17.0050  -21.3880  -10.9130 C.2     1  UNL1        0.0030
      4  C         18.3650  -21.6470  -11.0990 C.2     1  UNL1        0.0170
      5  C         19.0400  -22.5120  -10.2260 C.2     1  UNL1        0.0330
      6  C         18.3600  -23.1050   -9.1580 C.2     1  UNL1        0.0410
      7  C         20.4950  -22.7740  -10.3770 C.2     1  UNL1        0.2560
      8  O         20.9720  -23.7220   -9.7650 O.2     1  UNL1       -0.2670
      9  N         21.1470  -21.9060  -11.2310 N.am    1  UNL1       -0.3230
     10  H         20.5720  -21.2520  -11.7460 H       1  UNL1        0.1690
     11  C         22.5240  -21.8760  -11.5390 C.2     1  UNL1        0.0350
     12  C         23.5330  -21.6880  -10.5750 C.2     1  UNL1        0.0300
     13  C         24.8850  -21.6570  -10.9350 C.2     1  UNL1        0.0100
     14  C         25.2100  -21.8140  -12.2690 C.2     1  UNL1       -0.0430
     15  C         24.2130  -22.0010  -13.2480 C.2     1  UNL1       -0.0170
     16  C         26.5840  -21.8180  -12.9070 C.2     1  UNL1        0.0780
     17  C         22.8750  -22.0310  -12.8910 C.2     1  UNL1        0.0420
     18  C         24.8510  -22.1340  -14.5410 C.2     1  UNL1       -0.0190
     19  C         24.3130  -22.3350  -15.8010 C.2     1  UNL1        0.0130
     20  C         26.2490  -22.0290  -14.3690 C.2     1  UNL1       -0.0430
     21  C         25.1870  -22.4270  -16.8910 C.2     1  UNL1        0.0010
     22  C         26.5760  -22.3200  -16.7120 C.2     1  UNL1        0.0010
     23  C         27.1210  -22.1190  -15.4430 C.3     1  UNL1        0.0080
     24  S         16.1460  -23.5660   -7.6010 S.O2    1  UNL1        0.2460
     25  O         15.5890  -24.8140   -8.0760 O.2     1  UNL1       -0.2060
     26  O         15.3060  -22.5490   -7.0030 O.2     1  UNL1       -0.2060
     27  N         17.3820  -23.9580   -6.5170 N.pl3   1  UNL1       -0.1790
     28  H         18.1920  -24.3350   -7.0170 H       1  UNL1        0.1460
     29  C         17.7310  -23.0020   -5.5090 C.2     1  UNL1        0.0570
     30  C         18.5050  -21.8850   -5.8210 C.2     1  UNL1        0.0510
     31  C         18.8610  -21.0010   -4.8070 C.2     1  UNL1        0.0350
     32  C         18.4470  -21.2240   -3.4940 C.2     1  UNL1        0.0260
     33 CL         19.8250  -19.6240   -5.1730 Cl      1  UNL1       -0.0840
     34  C         17.6650  -22.3410   -3.1820 C.2     1  UNL1        0.0400
     35  C         17.3050  -23.2380   -4.1870 C.2     1  UNL1        0.0900
     36  O         16.5420  -24.3660   -4.0100 O.2     1  UNL1       -0.3540
     37  C         15.1390  -24.1790   -3.8520 C.3     1  UNL1        0.2100
@<TRIPOS>BOND
     1    21    22    2
     2    21    19    1
     3    22    23    1
     4    19    18    2
     5    23    20    1
     6    18    20    1
     7    18    15    1
     8    20    16    2
     9    15    17    1
    10    15    14    2
    11    16    14    1
    12    17    11    2
    13    14    13    1
    14    10     9    1
    15    11     9    1
    16    11    12    1
    17     9     7   am
    18     4     3    2
    19     4     5    1
    20    13    12    2
    21     3     2    1
    22     7     5    1
    23     7     8    2
    24     5     6    2
    25     2     1    2
    26     6     1    1
    27     1    24    1
    28    25    24    2
    29    24    26    2
    30    24    27    1
    31    28    27    1
    32    27    29    1
    33    30    29    2
    34    30    31    1
    35    29    35    1
    36    33    31    1
    37    31    32    2
    38    35    36    1
    39    35    34    2
    40    36    37    1
    41    32    34    1
