@<TRIPOS>MOLECULE
23461_out_ligand_01.pdbqt
 30 32 0 0 0
SMALL
GASTEIGER

@<TRIPOS>ATOM
      1  N         20.5870  -23.3930   -8.0500 N.3     1  UNL1       -0.2760
      2  H         21.0920  -22.5660   -7.7360 H       1  UNL1        0.1290
      3  C         21.4010  -24.1880   -8.9740 C.3     1  UNL1        0.0980
      4  C         22.8400  -23.6630   -9.0530 C.3     1  UNL1        0.0530
      5  C         23.1190  -22.9960  -10.3800 C.2     1  UNL1       -0.0570
      6  C         22.0710  -22.4650  -11.1450 C.2     1  UNL1        0.0090
      7  C         22.3320  -21.8590  -12.3740 C.2     1  UNL1        0.0250
      8  C         23.6470  -21.7930  -12.8440 C.2     1  UNL1        0.0740
      9  C         24.7010  -22.3110  -12.0900 C.2     1  UNL1        0.0250
     10  C         24.4330  -22.9170  -10.8620 C.2     1  UNL1        0.0090
     11  S         23.9750  -21.0160  -14.4030 S.O2    1  UNL1        0.2390
     12  O         25.1240  -20.1540  -14.2560 O.2     1  UNL1       -0.2060
     13  O         23.8770  -22.0110  -15.4460 O.2     1  UNL1       -0.2060
     14  N         22.6140  -20.0380  -14.5810 N.3     1  UNL1       -0.2250
     15  H         21.7390  -20.5540  -14.5070 H       1  UNL1        0.1360
     16  H         22.6880  -19.5350  -15.4670 H       1  UNL1        0.1360
     17  C         19.3280  -22.9720   -8.5340 C.3     1  UNL1        0.1180
     18  N         19.2840  -22.2290   -9.6530 N.2     1  UNL1       -0.2120
     19  C         18.0770  -21.8330  -10.1140 C.2     1  UNL1        0.2360
     20  N         16.9120  -22.1290   -9.4970 N.pl3   1  UNL1       -0.2240
     21  C         16.9600  -22.8820   -8.3950 C.2     1  UNL1        0.0720
     22  C         15.7670  -23.2140   -7.7640 C.2     1  UNL1        0.0320
     23  C         18.1600  -23.3570   -7.8520 C.2     1  UNL1        0.0330
     24  C         15.7330  -24.0080   -6.6140 C.2     1  UNL1        0.0020
     25  C         16.9180  -24.4930   -6.0780 C.2     1  UNL1        0.0010
     26  C         18.1260  -24.1720   -6.6920 C.2     1  UNL1        0.0170
     27  C         18.0330  -20.9700  -11.3790 C.3     1  UNL1        0.4530
     28  F         17.8110  -21.6870  -12.5240 F       1  UNL1       -0.1630
     29  F         17.0520  -20.0190  -11.3570 F       1  UNL1       -0.1630
     30  F         19.1990  -20.2920  -11.6010 F       1  UNL1       -0.1630
@<TRIPOS>BOND
     1    16    14    1
     2    13    11    2
     3    14    15    1
     4    14    11    1
     5    11    12    2
     6    11     8    1
     7     8     7    2
     8     8     9    1
     9    28    27    1
    10     7     6    1
    11     9    10    2
    12    30    27    1
    13    27    29    1
    14    27    19    1
    15     6     5    2
    16    10     5    1
    17     5     4    1
    18    19    18    2
    19    19    20    1
    20    18    17    1
    21    20    21    1
    22     4     3    1
    23     3     1    1
    24    17     1    1
    25    17    23    1
    26    21    23    2
    27    21    22    1
    28     1     2    1
    29    23    26    1
    30    22    24    2
    31    26    25    2
    32    24    25    1
