@<TRIPOS>MOLECULE
23463_out_ligand_01.pdbqt
 37 40 0 0 0
SMALL
GASTEIGER

@<TRIPOS>ATOM
      1  C         20.0920  -23.1130   -9.5030 C.2     1  UNL1        0.0340
      2  C         20.8280  -23.9250   -8.6310 C.2     1  UNL1        0.0170
      3  C         22.2000  -24.0740   -8.8180 C.2     1  UNL1        0.0030
      4  C         22.8340  -23.4190   -9.8770 C.2     1  UNL1        0.0290
      5  C         22.1070  -22.6150  -10.7640 C.2     1  UNL1        0.0350
      6  C         20.7310  -22.4700  -10.5740 C.2     1  UNL1        0.0460
      7  C         18.6250  -22.9350   -9.3320 C.2     1  UNL1        0.2520
      8  N         18.0630  -23.5720   -8.2450 N.am    1  UNL1       -0.3480
      9  H         18.6930  -23.8850   -7.5150 H       1  UNL1        0.1630
     10  O         17.9900  -22.2410  -10.1170 O.2     1  UNL1       -0.2680
     11  C         16.6730  -23.3410   -7.8650 C.3     1  UNL1        0.1200
     12  C         15.7280  -24.3750   -8.5270 C.3     1  UNL1        0.0250
     13  C         15.0870  -23.9270   -9.8380 C.3     1  UNL1        0.0070
     14  C         16.5550  -23.1800   -6.3450 C.2     1  UNL1       -0.0020
     15  C         15.6600  -23.9300   -5.5650 C.2     1  UNL1        0.0120
     16  C         15.5550  -23.7340   -4.1830 C.2     1  UNL1        0.0010
     17  C         16.3340  -22.7720   -3.5500 C.2     1  UNL1        0.0030
     18  C         17.2270  -22.0100   -4.2950 C.2     1  UNL1        0.0370
     19  C         17.3570  -22.2320   -5.6720 C.2     1  UNL1        0.0830
     20  O         18.2250  -21.4580   -6.4020 O.2     1  UNL1       -0.2900
     21  C         19.4140  -21.1830   -5.6710 C.3     1  UNL1        0.5050
     22  F         20.4920  -21.3920   -6.4750 F       1  UNL1       -0.1840
     23  F         19.4100  -19.8620   -5.3680 F       1  UNL1       -0.1840
     24  N         22.8360  -21.9920  -11.8010 N.am    1  UNL1       -0.3230
     25  C         23.8690  -22.5310  -12.5450 C.2     1  UNL1        0.2560
     26  O         24.3830  -23.6340  -12.4010 O.2     1  UNL1       -0.2670
     27  H         22.6010  -21.0240  -11.9760 H       1  UNL1        0.1690
     28  C         24.4220  -21.6340  -13.6000 C.2     1  UNL1        0.0340
     29  C         25.2700  -20.5870  -13.2020 C.2     1  UNL1        0.0190
     30  C         25.8260  -19.7010  -14.1310 C.2     1  UNL1        0.0330
     31  C         25.5010  -19.9200  -15.4700 C.2     1  UNL1        0.0620
     32  N         25.8560  -19.2730  -16.6270 N.pl3   1  UNL1       -0.3490
     33  C         24.6780  -20.9570  -15.8980 C.2     1  UNL1        0.0850
     34  C         25.2550  -19.9170  -17.6710 C.2     1  UNL1        0.2080
     35  H         26.4600  -18.4670  -16.6950 H       1  UNL1        0.1670
     36  N         24.5360  -20.9370  -17.2640 N.2     1  UNL1       -0.2420
     37  C         24.1300  -21.8410  -14.9580 C.2     1  UNL1        0.0510
@<TRIPOS>BOND
     1    34    36    2
     2    34    32    1
     3    36    33    1
     4    35    32    1
     5    32    31    1
     6    33    31    2
     7    33    37    1
     8    31    30    1
     9    37    28    2
    10    30    29    2
    11    28    29    1
    12    28    25    1
    13    25    26    2
    14    25    24   am
    15    27    24    1
    16    24     5    1
    17     5     6    1
    18     5     4    2
    19     6     1    2
    20    10     7    2
    21     4     3    1
    22    13    12    1
    23     1     7    1
    24     1     2    1
    25     7     8   am
    26     3     2    2
    27    12    11    1
    28     8    11    1
    29     8     9    1
    30    11    14    1
    31    22    21    1
    32    20    19    1
    33    20    21    1
    34    14    19    2
    35    14    15    1
    36    19    18    1
    37    21    23    1
    38    15    16    2
    39    18    17    2
    40    16    17    1
