@<TRIPOS>MOLECULE
23470_out_ligand_01.pdbqt
 33 36 0 0 0
SMALL
GASTEIGER

@<TRIPOS>ATOM
      1  C         22.0490  -22.2550   -9.8860 C.2     1  UNL1        0.0320
      2  C         21.1990  -22.0570  -10.9810 C.2     1  UNL1        0.0180
      3  C         19.8140  -22.1430  -10.8190 C.2     1  UNL1        0.0190
      4  C         19.2720  -22.4040   -9.5560 C.2     1  UNL1        0.0450
      5  C         20.1180  -22.5760   -8.4510 C.2     1  UNL1       -0.0380
      6  C         21.5090  -22.5130   -8.6180 C.2     1  UNL1        0.0250
      7  C         19.4990  -22.8550   -7.1100 C.3     1  UNL1        0.0770
      8  C         18.1620  -22.1130   -7.0500 C.3     1  UNL1        0.1690
      9  O         17.3170  -22.5550   -8.1330 O.3     1  UNL1       -0.3070
     10  C         17.7960  -22.5210   -9.4040 C.2     1  UNL1        0.2940
     11  O         17.0620  -22.6080  -10.3790 O.2     1  UNL1       -0.2590
     12  C         23.5160  -22.1490  -10.1020 C.2     1  UNL1        0.2520
     13  N         24.1960  -23.3240  -10.3300 N.am    1  UNL1       -0.3480
     14  H         23.6780  -24.1470  -10.6100 H       1  UNL1        0.1630
     15  O         24.0690  -21.0560  -10.1300 O.2     1  UNL1       -0.2680
     16  C         25.6160  -23.3000  -10.6400 C.3     1  UNL1        0.2260
     17  C         25.8590  -23.3700  -12.1510 C.2     1  UNL1        0.2390
     18  O         26.1750  -24.4330  -12.6780 O.2     1  UNL1       -0.2710
     19  N         25.6730  -22.1540  -12.7860 N.am    1  UNL1       -0.3250
     20  H         25.3500  -21.3810  -12.1960 H       1  UNL1        0.1690
     21  C         25.8180  -21.8570  -14.1620 C.2     1  UNL1        0.0520
     22  C         27.0220  -22.0300  -14.8520 C.2     1  UNL1        0.0310
     23  C         27.1200  -21.7260  -16.2160 C.2     1  UNL1        0.0020
     24  C         26.0160  -21.2440  -16.9110 C.2     1  UNL1        0.0020
     25  C         24.8090  -21.0610  -16.2410 C.2     1  UNL1        0.0210
     26  C         24.7100  -21.3640  -14.8790 C.2     1  UNL1        0.0370
     27 BR         23.0240  -21.0730  -14.0480 Br      1  UNL1       -0.0490
     28  C         17.3700  -22.2680   -5.7640 C.2     1  UNL1       -0.0290
     29  C         18.0400  -22.0810   -4.5410 C.2     1  UNL1        0.0100
     30  C         17.3700  -22.2110   -3.3240 C.2     1  UNL1        0.0010
     31  C         16.0130  -22.5240   -3.3060 C.2     1  UNL1        0.0000
     32  C         15.3300  -22.7010   -4.5060 C.2     1  UNL1        0.0010
     33  C         16.0010  -22.5710   -5.7270 C.2     1  UNL1        0.0100
@<TRIPOS>BOND
     1    24    25    2
     2    24    23    1
     3    25    26    1
     4    23    22    2
     5    26    21    2
     6    26    27    1
     7    22    21    1
     8    21    19    1
     9    19    20    1
    10    19    17   am
    11    18    17    2
    12    17    16    1
    13     2     3    1
    14     2     1    2
    15     3     4    2
    16    16    13    1
    17    14    13    1
    18    11    10    2
    19    13    12   am
    20    15    12    2
    21    12     1    1
    22     1     6    1
    23     4    10    1
    24     4     5    1
    25    10     9    1
    26     6     5    2
    27     5     7    1
    28     9     8    1
    29     7     8    1
    30     8    28    1
    31    28    33    2
    32    28    29    1
    33    33    32    1
    34    29    30    2
    35    32    31    2
    36    30    31    1
