@<TRIPOS>MOLECULE
23472_out_ligand_01.pdbqt
 35 38 0 0 0
SMALL
GASTEIGER

@<TRIPOS>ATOM
      1  C         16.6230  -22.8110   -9.7620 C.2     1  UNL1       -0.0400
      2  C         17.5120  -23.6780  -10.4150 C.2     1  UNL1        0.0100
      3  C         18.6200  -23.1740  -11.1000 C.2     1  UNL1        0.0170
      4  C         18.8440  -21.7960  -11.1540 C.2     1  UNL1        0.0320
      5  C         17.9680  -20.9220  -10.4950 C.2     1  UNL1        0.0170
      6  C         16.8610  -21.4300   -9.8080 C.2     1  UNL1        0.0100
      7  C         20.0390  -21.2960  -11.8910 C.2     1  UNL1        0.2560
      8  O         19.9200  -20.2800  -12.5640 O.2     1  UNL1       -0.2670
      9  N         21.1910  -22.0360  -11.6960 N.am    1  UNL1       -0.3230
     10  H         21.1510  -22.7660  -10.9970 H       1  UNL1        0.1690
     11  C         22.4530  -21.8320  -12.2930 C.2     1  UNL1        0.0370
     12  C         23.5640  -21.8150  -11.4410 C.2     1  UNL1        0.0320
     13  C         24.8520  -21.6390  -11.9550 C.2     1  UNL1        0.0420
     14  C         25.0490  -21.4870  -13.3270 C.2     1  UNL1        0.1020
     15  C         23.9400  -21.4530  -14.1810 C.2     1  UNL1        0.1040
     16  O         26.3610  -21.3720  -13.7120 O.2     1  UNL1       -0.3480
     17  C         22.6520  -21.6550  -13.6640 C.2     1  UNL1        0.0690
     18  O         23.9920  -21.2440  -15.5370 O.2     1  UNL1       -0.3480
     19  C         24.9940  -20.3040  -15.9260 C.3     1  UNL1        0.1780
     20  C         26.3370  -20.9900  -16.1140 C.3     1  UNL1        0.0530
     21  C         26.6360  -21.9600  -14.9840 C.3     1  UNL1        0.1780
     22  C         15.4290  -23.3700   -9.0250 C.3     1  UNL1        0.1700
     23  N         15.8520  -24.2590   -7.9530 N.3     1  UNL1       -0.3110
     24  H         15.3990  -25.1650   -7.8610 H       1  UNL1        0.1720
     25  S         16.4280  -23.6090   -6.5270 S.O2    1  UNL1        0.2590
     26  O         16.4810  -24.6680   -5.5440 O.2     1  UNL1       -0.2010
     27  O         15.6850  -22.3900   -6.2990 O.2     1  UNL1       -0.2010
     28  C         18.0920  -23.1590   -6.9530 C.2     1  UNL1        0.0800
     29  C         18.5970  -21.9310   -6.5250 C.2     1  UNL1        0.0260
     30  C         19.9030  -21.5760   -6.8590 C.2     1  UNL1        0.0090
     31  C         20.7150  -22.4410   -7.6120 C.2     1  UNL1       -0.0560
     32  C         22.1220  -22.0240   -7.9410 C.3     1  UNL1        0.0490
     33  C         20.2060  -23.6920   -8.0220 C.2     1  UNL1       -0.0550
     34  C         18.8890  -24.0430   -7.6850 C.2     1  UNL1        0.0320
     35  C         21.0460  -24.6600   -8.8120 C.3     1  UNL1        0.0490
@<TRIPOS>BOND
     1    20    19    1
     2    20    21    1
     3    19    18    1
     4    18    15    1
     5    21    16    1
     6    15    17    1
     7    15    14    2
     8    16    14    1
     9    17    11    2
    10    14    13    1
    11     8     7    2
    12    11     9    1
    13    11    12    1
    14    13    12    2
    15     7     9   am
    16     7     4    1
    17     9    10    1
    18     4     3    2
    19     4     5    1
    20     3     2    1
    21     5     6    2
    22     2     1    2
    23     6     1    1
    24     1    22    1
    25    22    23    1
    26    35    33    1
    27    33    34    1
    28    33    31    2
    29    23    24    1
    30    23    25    1
    31    32    31    1
    32    34    28    2
    33    31    30    1
    34    28    25    1
    35    28    29    1
    36    30    29    2
    37    25    27    2
    38    25    26    2
