@<TRIPOS>MOLECULE
23478_out_ligand_01.pdbqt
 36 40 0 0 0
SMALL
GASTEIGER

@<TRIPOS>ATOM
      1  C         23.2840  -22.6530   -9.9170 C.2     1  UNL1        0.0320
      2  C         23.0770  -21.5990   -9.0230 C.2     1  UNL1        0.0190
      3  C         22.0130  -21.6540   -8.1150 C.2     1  UNL1        0.0300
      4  C         21.1420  -22.7570   -8.0670 C.2     1  UNL1        0.0330
      5  C         21.3730  -23.8040   -8.9650 C.2     1  UNL1        0.0300
      6  C         22.4370  -23.7610   -9.8750 C.2     1  UNL1        0.0190
      7  C         24.4020  -22.6430  -10.9020 C.2     1  UNL1        0.2560
      8  N         24.2040  -23.4430  -12.0140 N.am    1  UNL1       -0.3230
      9  H         23.3770  -24.0280  -12.0130 H       1  UNL1        0.1690
     10  O         25.3930  -21.9710  -10.6490 O.2     1  UNL1       -0.2670
     11  C         25.0760  -23.6190  -13.1090 C.2     1  UNL1        0.0360
     12  C         26.3120  -24.2680  -13.0290 C.2     1  UNL1        0.0290
     13  C         27.1200  -24.4150  -14.1630 C.2     1  UNL1        0.0040
     14  C         26.7060  -23.9060  -15.3910 C.2     1  UNL1        0.0250
     15  C         25.4830  -23.2400  -15.4680 C.2     1  UNL1        0.0760
     16  C         24.6630  -23.1030  -14.3410 C.2     1  UNL1        0.0540
     17  S         24.9420  -22.5770  -17.0190 S.O2    1  UNL1        0.2390
     18  O         25.8920  -22.9570  -18.0360 O.2     1  UNL1       -0.2060
     19  O         24.5240  -21.2090  -16.8130 O.2     1  UNL1       -0.2060
     20  N         23.5280  -23.4540  -17.2820 N.3     1  UNL1       -0.2250
     21  H         22.7510  -22.9650  -16.8340 H       1  UNL1        0.1360
     22  H         23.5920  -24.4240  -16.9770 H       1  UNL1        0.1360
     23  N         20.0790  -22.7270   -7.1490 N.pl3   1  UNL1       -0.3400
     24  H         20.3340  -22.3900   -6.2330 H       1  UNL1        0.1670
     25  C         18.7390  -23.1380   -7.2260 C.2     1  UNL1        0.1430
     26  N         18.1630  -23.8480   -6.2250 N.2     1  UNL1       -0.2230
     27  C         16.8810  -24.2300   -6.3310 C.2     1  UNL1        0.2360
     28  N         16.0430  -23.9980   -7.3410 N.2     1  UNL1       -0.2340
     29  C         16.6260  -23.3010   -8.3290 C.ar    1  UNL1        0.1140
     30  S         15.7220  -22.8860   -9.7340 S.2     1  UNL1       -0.0730
     31  C         17.9440  -22.8420   -8.3590 C.ar    1  UNL1        0.0530
     32  C         17.0530  -22.1140  -10.3810 C.ar    1  UNL1       -0.0080
     33  C         18.1680  -22.1510   -9.5880 C.ar    1  UNL1       -0.0280
     34  C         17.2350  -21.3930  -11.6630 C.3     1  UNL1        0.0470
     35  C         19.2970  -21.4420  -10.2440 C.3     1  UNL1        0.0410
     36  C         18.7860  -21.2670  -11.7080 C.3     1  UNL1        0.0100
@<TRIPOS>BOND
     1    18    17    2
     2    20    17    1
     3    20    22    1
     4    20    21    1
     5    17    19    2
     6    17    15    1
     7    15    14    2
     8    15    16    1
     9    14    13    1
    10    16    11    2
    11    13    12    2
    12    11    12    1
    13    11     8    1
    14     8     9    1
    15     8     7   am
    16    36    34    1
    17    36    35    1
    18    34    32    1
    19     7    10    2
    20     7     1    1
    21    32    30   ar
    22    32    33   ar
    23    35    33    1
    24     1     6    2
    25     1     2    1
    26     6     5    1
    27    30    29   ar
    28    33    31   ar
    29     2     3    2
    30     5     4    2
    31    31    29   ar
    32    31    25    2
    33    29    28    2
    34     3     4    1
    35     4    23    1
    36    28    27    1
    37    25    23    1
    38    25    26    1
    39    23    24    1
    40    27    26    2
