@<TRIPOS>MOLECULE
23479_out_ligand_01.pdbqt
 35 38 0 0 0
SMALL
GASTEIGER

@<TRIPOS>ATOM
      1  C         18.0980  -23.2680   -9.0050 C.2     1  UNL1        0.0740
      2  C         18.3150  -22.4310  -10.1040 C.2     1  UNL1        0.0260
      3  C         19.6040  -22.3040  -10.6250 C.2     1  UNL1        0.0180
      4  C         20.6720  -23.0140  -10.0550 C.2     1  UNL1        0.0320
      5  C         20.4340  -23.8850   -8.9810 C.2     1  UNL1        0.0180
      6  C         19.1460  -24.0130   -8.4550 C.2     1  UNL1        0.0260
      7  C         22.0330  -22.8360  -10.6410 C.2     1  UNL1        0.2560
      8  O         22.9800  -23.3630  -10.0740 O.2     1  UNL1       -0.2670
      9  N         22.0720  -22.1150  -11.8220 N.am    1  UNL1       -0.3230
     10  H         21.1840  -21.8630  -12.2360 H       1  UNL1        0.1690
     11  C         23.2140  -21.7620  -12.5740 C.2     1  UNL1        0.0370
     12  C         24.5330  -21.8120  -12.0610 C.2     1  UNL1        0.0320
     13  C         25.6420  -21.4480  -12.8400 C.2     1  UNL1        0.0340
     14  C         25.3890  -21.0400  -14.1240 C.ar    1  UNL1        0.0630
     15  N         26.2670  -20.6250  -15.1190 N.ar    1  UNL1       -0.3070
     16  C         24.0980  -20.9830  -14.6380 C.ar    1  UNL1        0.0650
     17  C         25.5280  -20.3040  -16.2660 C.ar    1  UNL1        0.3250
     18  H         27.2690  -20.5530  -15.0580 H       1  UNL1        0.1700
     19  O         25.9660  -19.9050  -17.3290 O.2     1  UNL1       -0.2470
     20  N         24.1790  -20.5320  -15.9510 N.ar    1  UNL1       -0.3060
     21  H         23.4240  -20.3790  -16.5990 H       1  UNL1        0.1700
     22  C         22.9940  -21.3330  -13.8940 C.2     1  UNL1        0.0610
     23  S         16.4540  -23.4220   -8.3350 S.O2    1  UNL1        0.2450
     24  O         15.5250  -23.1660   -9.4160 O.2     1  UNL1       -0.2060
     25  O         16.3990  -24.6540   -7.5760 O.2     1  UNL1       -0.2060
     26  N         16.3390  -22.1080   -7.2760 N.pl3   1  UNL1       -0.1790
     27  H         17.0050  -21.3800   -7.5410 H       1  UNL1        0.1460
     28  C         16.3240  -22.3800   -5.8700 C.2     1  UNL1        0.0560
     29  C         15.1510  -22.8030   -5.2470 C.2     1  UNL1        0.0270
     30  C         15.1590  -23.1010   -3.8850 C.2     1  UNL1        0.0020
     31  C         16.3400  -22.9740   -3.1530 C.2     1  UNL1        0.0030
     32  C         17.5180  -22.5500   -3.7750 C.2     1  UNL1        0.0380
     33  C         17.5210  -22.2530   -5.1390 C.2     1  UNL1        0.0900
     34  O         18.6120  -21.8350   -5.8620 O.2     1  UNL1       -0.3540
     35  C         19.3010  -20.6850   -5.3830 C.3     1  UNL1        0.2100
@<TRIPOS>BOND
     1    19    17    2
     2    21    20    1
     3    17    20   ar
     4    17    15   ar
     5    20    16   ar
     6    15    18    1
     7    15    14   ar
     8    16    14   ar
     9    16    22    1
    10    14    13    1
    11    22    11    2
    12    13    12    2
    13    11    12    1
    14    11     9    1
    15    10     9    1
    16     9     7   am
    17     7     8    2
    18     7     4    1
    19     3     2    1
    20     3     4    2
    21     2     1    2
    22     4     5    1
    23    24    23    2
    24     1     6    1
    25     1    23    1
    26     5     6    2
    27    23    25    2
    28    23    26    1
    29    27    26    1
    30    26    28    1
    31    28    29    2
    32    28    33    1
    33    34    35    1
    34    34    33    1
    35    29    30    1
    36    33    32    2
    37    30    31    2
    38    32    31    1
