@<TRIPOS>MOLECULE
23496_out_ligand_01.pdbqt
 35 38 0 0 0
SMALL
GASTEIGER

@<TRIPOS>ATOM
      1  C         22.5410  -23.0170   -9.1810 C.3     1  UNL1        0.2350
      2  C         23.7360  -22.4640   -9.9530 C.2     1  UNL1        0.2360
      3  N         24.3760  -23.3820  -10.7570 N.am    1  UNL1       -0.3550
      4  H         24.0150  -24.3330  -10.8170 H       1  UNL1        0.1620
      5  O         24.0500  -21.2760   -9.8970 O.2     1  UNL1       -0.2720
      6  C         25.5780  -23.0680  -11.4890 C.3     1  UNL1        0.1610
      7  C         25.3030  -23.0100  -12.9680 C.2     1  UNL1       -0.0400
      8  C         25.6660  -24.0740  -13.8030 C.2     1  UNL1        0.0100
      9  C         25.4050  -24.0160  -15.1710 C.2     1  UNL1        0.0250
     10  C         24.7960  -22.8860  -15.7120 C.2     1  UNL1        0.0740
     11  C         24.4800  -21.7930  -14.9010 C.2     1  UNL1        0.0250
     12  C         24.7330  -21.8620  -13.5330 C.2     1  UNL1        0.0100
     13  S         24.4930  -22.8100  -17.4530 S.O2    1  UNL1        0.2390
     14  O         23.2060  -23.4090  -17.7200 O.2     1  UNL1       -0.2060
     15  O         25.6940  -23.2040  -18.1530 O.2     1  UNL1       -0.2060
     16  N         24.3490  -21.1480  -17.6940 N.3     1  UNL1       -0.2250
     17  H         23.6910  -20.7160  -17.0510 H       1  UNL1        0.1360
     18  H         25.2750  -20.7390  -17.5930 H       1  UNL1        0.1360
     19  N         21.2850  -22.5480   -9.7570 N.am    1  UNL1       -0.2990
     20  C         21.2820  -21.9490  -11.0020 C.2     1  UNL1        0.2140
     21  N         20.2320  -21.5330  -11.6320 N.2     1  UNL1       -0.2350
     22  C         19.0650  -21.7250  -10.9710 C.2     1  UNL1        0.1150
     23  S         17.5790  -21.2650  -11.6590 S.3     1  UNL1       -0.0800
     24  C         18.9110  -22.2770   -9.7140 C.2     1  UNL1        0.0800
     25  C         16.7150  -21.8150  -10.2880 C.2     1  UNL1        0.0650
     26  C         17.5390  -22.3320   -9.3050 C.2     1  UNL1       -0.0010
     27  C         20.1160  -22.6850   -9.0170 C.2     1  UNL1        0.2630
     28  O         20.1270  -23.1050   -7.8600 O.2     1  UNL1       -0.2670
     29  C         16.9760  -22.8330   -8.0570 C.2     1  UNL1       -0.0240
     30  C         16.2500  -24.0330   -8.0330 C.2     1  UNL1        0.0150
     31  C         15.7020  -24.4970   -6.8360 C.2     1  UNL1        0.0430
     32  C         15.8800  -23.7630   -5.6680 C.2     1  UNL1        0.1160
     33  F         15.3550  -24.2040   -4.5210 F       1  UNL1       -0.2060
     34  C         16.5990  -22.5700   -5.6710 C.2     1  UNL1        0.0430
     35  C         17.1490  -22.1050   -6.8660 C.2     1  UNL1        0.0150
@<TRIPOS>BOND
     1    15    13    2
     2    14    13    2
     3    16    18    1
     4    16    13    1
     5    16    17    1
     6    13    10    1
     7    10     9    2
     8    10    11    1
     9     9     8    1
    10    11    12    2
    11     8     7    2
    12    12     7    1
    13     7     6    1
    14    23    22    1
    15    23    25    1
    16    21    20    2
    17    21    22    1
    18     6     3    1
    19    20    19    1
    20    22    24    2
    21     4     3    1
    22     3     2   am
    23    25    26    2
    24     2     5    2
    25     2     1    1
    26    19     1    1
    27    19    27   am
    28    24    26    1
    29    24    27    1
    30    26    29    1
    31    27    28    2
    32    29    30    2
    33    29    35    1
    34    30    31    1
    35    35    34    2
    36    31    32    2
    37    34    32    1
    38    32    33    1
