@<TRIPOS>MOLECULE
23503_out_ligand_01.pdbqt
 34 37 0 0 0
SMALL
GASTEIGER

@<TRIPOS>ATOM
      1  C         21.9790  -22.5920   -9.6980 C.2     1  UNL1        0.0320
      2  C         21.2430  -22.2620  -10.8450 C.2     1  UNL1        0.0180
      3  C         19.8460  -22.2150  -10.7820 C.2     1  UNL1        0.0190
      4  C         19.1840  -22.4810   -9.5740 C.2     1  UNL1        0.0450
      5  C         19.9240  -22.8000   -8.4240 C.2     1  UNL1       -0.0380
      6  C         21.3200  -22.8630   -8.4920 C.2     1  UNL1        0.0250
      7  C         19.1890  -23.0770   -7.1420 C.3     1  UNL1        0.0770
      8  C         17.9270  -22.2110   -7.1290 C.3     1  UNL1        0.1690
      9  O         17.1260  -22.5140   -8.2940 O.3     1  UNL1       -0.3070
     10  C         17.6960  -22.4240   -9.5240 C.2     1  UNL1        0.2940
     11  O         17.0330  -22.3100  -10.5480 O.2     1  UNL1       -0.2590
     12  C         23.4620  -22.6200   -9.7030 C.2     1  UNL1        0.2520
     13  N         24.1080  -21.5130  -10.1990 N.am    1  UNL1       -0.3480
     14  H         23.5670  -20.7630  -10.6100 H       1  UNL1        0.1630
     15  O         24.0650  -23.5890   -9.2530 O.2     1  UNL1       -0.2680
     16  C         25.5400  -21.5270  -10.4830 C.3     1  UNL1        0.2260
     17  C         25.9380  -21.9740  -11.9040 C.2     1  UNL1        0.2390
     18  O         27.1210  -22.1980  -12.1680 O.2     1  UNL1       -0.2710
     19  N         24.8970  -21.9700  -12.8050 N.am    1  UNL1       -0.3260
     20  H         24.0160  -21.5840  -12.4610 H       1  UNL1        0.1690
     21  C         24.9120  -22.3950  -14.1460 C.2     1  UNL1        0.0370
     22  C         25.0470  -23.7340  -14.5340 C.2     1  UNL1        0.0320
     23  C         25.0220  -24.0870  -15.8900 C.2     1  UNL1        0.0480
     24  C         24.8560  -23.1030  -16.8570 C.2     1  UNL1        0.1540
     25  F         24.8290  -23.4450  -18.1530 F       1  UNL1       -0.2030
     26  C         24.7250  -21.7740  -16.4840 C.2     1  UNL1        0.1570
     27  F         24.5640  -20.8230  -17.4160 F       1  UNL1       -0.2030
     28  C         24.7520  -21.4140  -15.1360 C.2     1  UNL1        0.0750
     29  C         17.0400  -22.3340   -5.9020 C.2     1  UNL1       -0.0290
     30  C         17.6430  -22.2490   -4.6350 C.2     1  UNL1        0.0100
     31  C         16.8950  -22.3990   -3.4680 C.2     1  UNL1        0.0010
     32  C         15.5260  -22.6300   -3.5490 C.2     1  UNL1        0.0000
     33  C         14.9070  -22.7000   -4.7940 C.2     1  UNL1        0.0010
     34  C         15.6570  -22.5490   -5.9640 C.2     1  UNL1        0.0100
@<TRIPOS>BOND
     1    25    24    1
     2    27    26    1
     3    24    26    2
     4    24    23    1
     5    26    28    1
     6    23    22    2
     7    28    21    2
     8    22    21    1
     9    21    19    1
    10    19    20    1
    11    19    17   am
    12    18    17    2
    13    17    16    1
    14     2     3    1
    15     2     1    2
    16     3     4    2
    17    14    13    1
    18    11    10    2
    19    16    13    1
    20    13    12   am
    21    12     1    1
    22    12    15    2
    23     1     6    1
    24     4    10    1
    25     4     5    1
    26    10     9    1
    27     6     5    2
    28     5     7    1
    29     9     8    1
    30     7     8    1
    31     8    29    1
    32    34    29    2
    33    34    33    1
    34    29    30    1
    35    33    32    2
    36    30    31    2
    37    32    31    1
