@<TRIPOS>MOLECULE
23520_out_ligand_01.pdbqt
 29 31 0 0 0
SMALL
GASTEIGER

@<TRIPOS>ATOM
      1  C         22.8820  -22.2560   -9.7220 C.2     1  UNL1        0.2440
      2  O         23.4030  -21.1590   -9.5340 O.2     1  UNL1       -0.2710
      3  N         22.9300  -22.9800  -10.9050 N.am    1  UNL1       -0.3250
      4  H         22.4410  -23.8690  -10.8920 H       1  UNL1        0.1690
      5  C         22.0940  -23.0020   -8.6100 C.3     1  UNL1        0.1700
      6  C         21.4030  -22.0130   -7.6730 C.3     1  UNL1        0.0420
      7  N         21.0540  -23.8710   -9.2050 N.pl3   1  UNL1       -0.3760
      8  H         21.2950  -24.8570   -9.1570 H       1  UNL1        0.1600
      9  C         19.7020  -23.5750   -8.9670 C.2     1  UNL1        0.0390
     10  C         19.0570  -24.1920   -7.8830 C.2     1  UNL1        0.0300
     11  C         17.7070  -23.9710   -7.6220 C.2     1  UNL1        0.0030
     12  C         16.9750  -23.1270   -8.4480 C.2     1  UNL1        0.0120
     13  C         17.5790  -22.4910   -9.5420 C.2     1  UNL1       -0.0240
     14  C         16.8110  -21.6530  -10.3670 C.2     1  UNL1        0.0120
     15  C         18.9560  -22.7020   -9.8170 C.2     1  UNL1        0.0010
     16  C         17.3760  -21.0190  -11.4710 C.2     1  UNL1        0.0010
     17  C         18.7170  -21.2130  -11.7630 C.2     1  UNL1        0.0010
     18  C         19.4960  -22.0390  -10.9480 C.2     1  UNL1        0.0140
     19  C         23.5020  -22.6070  -12.1340 C.2     1  UNL1        0.0340
     20  C         22.7990  -21.6730  -12.9040 C.2     1  UNL1        0.0300
     21  C         23.3020  -21.2400  -14.1360 C.2     1  UNL1        0.0190
     22  C         24.5160  -21.7410  -14.6190 C.2     1  UNL1        0.0320
     23  C         25.2280  -22.6650  -13.8460 C.2     1  UNL1        0.0190
     24  C         24.7180  -23.0980  -12.6130 C.2     1  UNL1        0.0300
     25  C         25.0120  -21.2460  -15.9310 C.2     1  UNL1        0.2490
     26  N         24.2220  -20.3670  -16.6190 N.am    1  UNL1       -0.3660
     27  H         24.6310  -19.9600  -17.4500 H       1  UNL1        0.1590
     28  H         23.4570  -19.8680  -16.1890 H       1  UNL1        0.1590
     29  O         26.1040  -21.5800  -16.3740 O.2     1  UNL1       -0.2680
@<TRIPOS>BOND
     1    27    26    1
     2    26    28    1
     3    26    25   am
     4    29    25    2
     5    25    22    1
     6    22    21    2
     7    22    23    1
     8    21    20    1
     9    23    24    2
    10    20    19    2
    11    24    19    1
    12    19     3    1
    13    17    16    1
    14    17    18    2
    15    16    14    2
    16    18    15    1
    17     3     4    1
    18     3     1   am
    19    14    13    1
    20    15    13    1
    21    15     9    2
    22     1     2    2
    23     1     5    1
    24    13    12    2
    25     7     8    1
    26     7     9    1
    27     7     5    1
    28     9    10    1
    29     5     6    1
    30    12    11    1
    31    10    11    2
