@<TRIPOS>MOLECULE
23534_out_ligand_01.pdbqt
 34 37 0 0 0
SMALL
GASTEIGER

@<TRIPOS>ATOM
      1  C         22.2100  -22.5350  -11.5550 C.2     1  UNL1       -0.0440
      2  C         21.4340  -23.2120  -10.6020 C.2     1  UNL1        0.0090
      3  C         20.0830  -22.8970  -10.4350 C.2     1  UNL1        0.0170
      4  C         19.4960  -21.8940  -11.2110 C.2     1  UNL1        0.0330
      5  C         20.2570  -21.2240  -12.1780 C.2     1  UNL1        0.0170
      6  C         21.6060  -21.5460  -12.3470 C.2     1  UNL1        0.0090
      7  C         18.0610  -21.5710  -10.9950 C.2     1  UNL1        0.2710
      8  O         17.6010  -20.5350  -11.4600 O.2     1  UNL1       -0.2660
      9  N         17.3580  -22.5460  -10.3070 N.am    1  UNL1       -0.2430
     10  H         17.8050  -23.4200  -10.0580 H       1  UNL1        0.1920
     11  N         16.0380  -22.3770  -10.0150 N.2     1  UNL1       -0.1840
     12  C         15.6680  -22.5220   -8.7820 C.2     1  UNL1        0.1460
     13  C         16.4540  -22.9660   -7.6040 C.2     1  UNL1       -0.0380
     14  C         16.7240  -24.2670   -7.3790 C.2     1  UNL1       -0.0170
     15  C         17.4820  -24.6890   -6.1360 C.3     1  UNL1        0.0330
     16  C         17.7830  -23.4420   -5.2790 C.3     1  UNL1       -0.0020
     17  C         16.4770  -22.5920   -5.1140 C.3     1  UNL1        0.0150
     18  C         18.3750  -22.1850   -6.0550 C.3     1  UNL1       -0.0360
     19  C         16.8600  -22.0050   -6.5230 C.3     1  UNL1        0.0280
     20  C         18.9080  -21.0530   -5.1530 C.3     1  UNL1        0.0160
     21  C         19.4360  -22.4520   -7.1300 C.3     1  UNL1        0.0160
     22  C         23.6640  -22.8970  -11.7550 C.3     1  UNL1        0.1450
     23  N         24.5200  -22.2780  -10.7180 N.3     1  UNL1       -0.2060
     24  C         23.7630  -21.4230   -9.7810 C.3     1  UNL1        0.1300
     25  S         25.9570  -21.5910  -11.3290 S.O2    1  UNL1        0.2430
     26  O         26.0080  -20.1950  -10.9530 O.2     1  UNL1       -0.2060
     27  O         27.0380  -22.4940  -10.9870 O.2     1  UNL1       -0.2060
     28  C         25.6910  -21.6580  -13.0820 C.2     1  UNL1        0.0740
     29  C         24.9750  -20.6240  -13.6930 C.2     1  UNL1        0.0250
     30  C         24.7340  -20.6750  -15.0660 C.2     1  UNL1        0.0080
     31  C         25.1990  -21.7570  -15.8280 C.2     1  UNL1       -0.0620
     32  C         24.9610  -21.8030  -17.3100 C.3     1  UNL1        0.0480
     33  C         25.9350  -22.7750  -15.2030 C.2     1  UNL1        0.0080
     34  C         26.1810  -22.7300  -13.8300 C.2     1  UNL1        0.0250
@<TRIPOS>BOND
     1    32    31    1
     2    31    33    2
     3    31    30    1
     4    33    34    1
     5    30    29    2
     6    34    28    2
     7    29    28    1
     8    28    25    1
     9     6     5    1
    10     6     1    2
    11     5     4    2
    12    22     1    1
    13    22    23    1
    14     1     2    1
    15     8     7    2
    16    25    27    2
    17    25    26    2
    18    25    23    1
    19     4     7    1
    20     4     3    1
    21     7     9   am
    22    23    24    1
    23     2     3    2
    24     9    10    1
    25     9    11    1
    26    11    12    2
    27    12    13    1
    28    13    14    2
    29    13    19    1
    30    14    15    1
    31    21    18    1
    32    19    18    1
    33    19    17    1
    34    15    16    1
    35    18    16    1
    36    18    20    1
    37    16    17    1
