@<TRIPOS>MOLECULE
23555_out_ligand_01.pdbqt
 34 38 0 0 0
SMALL
GASTEIGER

@<TRIPOS>ATOM
      1  C         22.5830  -21.4560  -12.8920 C.2     1  UNL1        0.0540
      2  C         22.9900  -20.7230  -14.0160 C.2     1  UNL1        0.0190
      3  C         24.1890  -21.0400  -14.6570 C.2     1  UNL1        0.0010
      4  C         24.9840  -22.0800  -14.1760 C.2     1  UNL1        0.0020
      5  C         24.5890  -22.8050  -13.0510 C.2     1  UNL1        0.0250
      6  C         23.3960  -22.4900  -12.3970 C.2     1  UNL1        0.0380
      7  N         22.9760  -23.3110  -11.2980 N.pl3   1  UNL1       -0.1800
      8  H         23.2700  -24.2970  -11.3820 H       1  UNL1        0.1460
      9  S         23.4100  -22.7600   -9.7500 S.O2    1  UNL1        0.2450
     10  O         23.6450  -21.3320   -9.8050 O.2     1  UNL1       -0.2060
     11  O         24.4110  -23.6710   -9.2400 O.2     1  UNL1       -0.2060
     12  C         21.9240  -23.0560   -8.8230 C.2     1  UNL1        0.0750
     13  C         21.2750  -24.2840   -8.9530 C.2     1  UNL1        0.0260
     14  C         20.1040  -24.5200   -8.2320 C.2     1  UNL1        0.0140
     15  C         19.5790  -23.5380   -7.3760 C.2     1  UNL1       -0.0260
     16  C         18.4000  -23.7610   -6.6470 C.2     1  UNL1        0.0120
     17  C         20.2510  -22.2990   -7.2390 C.2     1  UNL1       -0.0250
     18  C         17.8900  -22.7790   -5.7970 C.2     1  UNL1        0.0010
     19  C         18.5510  -21.5610   -5.6630 C.2     1  UNL1        0.0010
     20  C         19.7240  -21.3220   -6.3800 C.2     1  UNL1        0.0120
     21  C         21.4290  -22.0690   -7.9660 C.2     1  UNL1        0.0370
     22  C         21.3180  -21.1120  -12.1930 C.2     1  UNL1        0.2580
     23  O         21.2060  -19.9750  -11.7460 O.2     1  UNL1       -0.2670
     24  N         20.4130  -22.1500  -12.0860 N.am    1  UNL1       -0.3230
     25  H         20.7470  -23.0710  -12.3440 H       1  UNL1        0.1690
     26  C         19.1240  -22.1000  -11.5190 C.2     1  UNL1        0.0370
     27  C         18.3730  -20.9220  -11.7420 C.2     1  UNL1        0.0320
     28  C         17.0860  -20.7690  -11.2150 C.2     1  UNL1        0.0420
     29  C         16.5770  -21.8070  -10.4680 C.2     1  UNL1        0.1050
     30  C         17.3000  -22.9540  -10.2430 C.2     1  UNL1        0.1070
     31  O         15.3530  -21.8380   -9.8790 O.2     1  UNL1       -0.3230
     32  C         18.5720  -23.1300  -10.7510 C.2     1  UNL1        0.0690
     33  O         16.6190  -23.8510   -9.4780 O.2     1  UNL1       -0.3230
     34  C         15.3810  -23.1430   -9.2640 C.3     1  UNL1        0.3520
@<TRIPOS>BOND
     1     3     4    2
     2     3     2    1
     3     4     5    1
     4     2     1    2
     5     5     6    2
     6     1     6    1
     7     1    22    1
     8     6     7    1
     9    25    24    1
    10    22    24   am
    11    22    23    2
    12    24    26    1
    13    27    26    2
    14    27    28    1
    15    26    32    1
    16     8     7    1
    17     7     9    1
    18    28    29    2
    19    32    30    2
    20    29    30    1
    21    29    31    1
    22    30    33    1
    23    31    34    1
    24    10     9    2
    25     9    11    2
    26     9    12    1
    27    33    34    1
    28    13    12    2
    29    13    14    1
    30    12    21    1
    31    14    15    2
    32    21    17    2
    33    15    17    1
    34    15    16    1
    35    17    20    1
    36    16    18    2
    37    20    19    2
    38    18    19    1
