@<TRIPOS>MOLECULE
23561_out_ligand_01.pdbqt
 33 35 0 0 0
SMALL
GASTEIGER

@<TRIPOS>ATOM
      1  C         21.1400  -23.2930   -8.8990 C.2     1  UNL1        0.0220
      2  C         20.2350  -24.3560   -8.8570 C.2     1  UNL1        0.0260
      3  C         19.2230  -24.3760   -7.8950 C.2     1  UNL1        0.0260
      4  C         19.1440  -23.3360   -6.9650 C.2     1  UNL1        0.0740
      5  C         20.0520  -22.2710   -7.0000 C.2     1  UNL1        0.0260
      6  C         21.0600  -22.2560   -7.9660 C.2     1  UNL1        0.0260
      7  S         17.8620  -23.3440   -5.7320 S.O2    1  UNL1        0.2450
      8  O         18.3850  -22.7080   -4.5400 O.2     1  UNL1       -0.2060
      9  O         17.2910  -24.6720   -5.7090 O.2     1  UNL1       -0.2060
     10  N         16.7600  -22.2430   -6.4290 N.pl3   1  UNL1       -0.1810
     11  H         15.9020  -22.3030   -5.8770 H       1  UNL1        0.1460
     12  C         16.4850  -22.5000   -7.8110 C.2     1  UNL1        0.0230
     13  C         15.7180  -23.6060   -8.1850 C.2     1  UNL1        0.0240
     14  C         15.4870  -23.8590   -9.5360 C.2     1  UNL1        0.0030
     15  C         16.0310  -23.0170  -10.5090 C.2     1  UNL1        0.0160
     16  C         16.8240  -21.9180  -10.1400 C.2     1  UNL1        0.0490
     17  C         17.0510  -21.6710   -8.7780 C.2     1  UNL1        0.0400
     18  C         17.3850  -21.0000  -11.1990 C.3     1  UNL1        0.4170
     19  F         17.2640  -21.4840  -12.4670 F       1  UNL1       -0.1660
     20  F         16.7880  -19.7730  -11.2110 F       1  UNL1       -0.1660
     21  F         18.7180  -20.7640  -11.0150 F       1  UNL1       -0.1660
     22  N         22.2030  -23.3230   -9.8590 N.pl3   1  UNL1       -0.1810
     23  H         21.9640  -23.9270  -10.6490 H       1  UNL1        0.1460
     24  S         22.5830  -21.7850  -10.5040 S.O2    1  UNL1        0.2450
     25  O         21.3260  -21.1870  -10.9060 O.2     1  UNL1       -0.2060
     26  O         23.5130  -21.1020   -9.6300 O.2     1  UNL1       -0.2060
     27  C         23.4680  -22.2570  -11.9690 C.2     1  UNL1        0.0740
     28  C         24.3790  -23.3150  -11.9000 C.2     1  UNL1        0.0250
     29  C         25.0960  -23.6790  -13.0400 C.2     1  UNL1        0.0080
     30  C         24.9090  -22.9910  -14.2480 C.2     1  UNL1       -0.0620
     31  C         25.6600  -23.4110  -15.4780 C.3     1  UNL1        0.0480
     32  C         23.9850  -21.9360  -14.3030 C.2     1  UNL1        0.0080
     33  C         23.2770  -21.5560  -13.1600 C.2     1  UNL1        0.0250
@<TRIPOS>BOND
     1    31    30    1
     2    32    30    2
     3    32    33    1
     4    30    29    1
     5    33    27    2
     6    29    28    2
     7    19    18    1
     8    27    28    1
     9    27    24    1
    10    20    18    1
    11    18    21    1
    12    18    16    1
    13    25    24    2
    14    23    22    1
    15    15    16    2
    16    15    14    1
    17    24    22    1
    18    24    26    2
    19    16    17    1
    20    22     1    1
    21    14    13    2
    22     1     2    2
    23     1     6    1
    24     2     3    1
    25    17    12    2
    26    13    12    1
    27     6     5    2
    28     3     4    2
    29    12    10    1
    30     5     4    1
    31     4     7    1
    32    10    11    1
    33    10     7    1
    34     7     9    2
    35     7     8    2
