@<TRIPOS>MOLECULE
23575_out_ligand_01.pdbqt
 35 39 0 0 0
SMALL
GASTEIGER

@<TRIPOS>ATOM
      1  C         24.0980  -22.0830  -13.3090 C.2     1  UNL1        0.0540
      2  C         25.1190  -21.8850  -14.2490 C.2     1  UNL1        0.0190
      3  C         26.3240  -22.5780  -14.1250 C.2     1  UNL1        0.0010
      4  C         26.5160  -23.4630  -13.0640 C.2     1  UNL1        0.0020
      5  C         25.5050  -23.6570  -12.1200 C.2     1  UNL1        0.0250
      6  C         24.2990  -22.9620  -12.2310 C.2     1  UNL1        0.0380
      7  N         23.2510  -23.2550  -11.2940 N.pl3   1  UNL1       -0.1800
      8  H         22.9890  -24.2520  -11.2760 H       1  UNL1        0.1460
      9  S         23.5310  -22.7690   -9.6900 S.O2    1  UNL1        0.2450
     10  O         23.6850  -21.3290   -9.6470 O.2     1  UNL1       -0.2060
     11  O         24.5490  -23.6470   -9.1520 O.2     1  UNL1       -0.2060
     12  C         22.0040  -23.2020   -8.8950 C.2     1  UNL1        0.0750
     13  C         21.4980  -24.4940   -9.0500 C.2     1  UNL1        0.0260
     14  C         20.2970  -24.8380   -8.4300 C.2     1  UNL1        0.0140
     15  C         19.5980  -23.9010   -7.6490 C.2     1  UNL1       -0.0260
     16  C         18.3870  -24.2340   -7.0220 C.2     1  UNL1        0.0120
     17  C         20.1240  -22.5960   -7.4870 C.2     1  UNL1       -0.0250
     18  C         17.7030  -23.2950   -6.2480 C.2     1  UNL1        0.0010
     19  C         18.2220  -22.0130   -6.0880 C.2     1  UNL1        0.0010
     20  C         19.4250  -21.6650   -6.7030 C.2     1  UNL1        0.0120
     21  C         21.3340  -22.2580   -8.1110 C.2     1  UNL1        0.0370
     22  C         22.8170  -21.3420  -13.4250 C.2     1  UNL1        0.2530
     23  O         22.6170  -20.6180  -14.3950 O.2     1  UNL1       -0.2680
     24  N         21.9340  -21.4910  -12.3790 N.am    1  UNL1       -0.3530
     25  H         22.2980  -21.8430  -11.5030 H       1  UNL1        0.1630
     26  C         20.7620  -20.6500  -12.3060 C.3     1  UNL1        0.1610
     27  C         19.6260  -21.3870  -11.6470 C.2     1  UNL1       -0.0380
     28  C         19.7170  -22.7810  -11.4240 C.2     1  UNL1        0.0120
     29  C         18.6600  -23.4860  -10.8410 C.2     1  UNL1        0.0400
     30  C         17.5270  -22.7780  -10.5020 C.2     1  UNL1        0.1050
     31  C         17.4260  -21.4250  -10.7240 C.2     1  UNL1        0.1050
     32  O         16.4060  -23.2970   -9.9330 O.2     1  UNL1       -0.3230
     33  C         18.4510  -20.7030  -11.2960 C.2     1  UNL1        0.0480
     34  O         16.2260  -20.9230  -10.3250 O.2     1  UNL1       -0.3230
     35  C         15.5900  -22.1130   -9.8150 C.3     1  UNL1        0.3520
@<TRIPOS>BOND
     1    23    22    2
     2     2     3    1
     3     2     1    2
     4     3     4    2
     5    22     1    1
     6    22    24   am
     7     1     6    1
     8     4     5    1
     9    24    26    1
    10    24    25    1
    11    26    27    1
    12     6     5    2
    13     6     7    1
    14    27    28    2
    15    27    33    1
    16    28    29    1
    17    33    31    2
    18     7     8    1
    19     7     9    1
    20    29    30    2
    21    31    30    1
    22    31    34    1
    23    30    32    1
    24    34    35    1
    25    32    35    1
    26     9    10    2
    27     9    11    2
    28     9    12    1
    29    13    12    2
    30    13    14    1
    31    12    21    1
    32    14    15    2
    33    21    17    2
    34    15    17    1
    35    15    16    1
    36    17    20    1
    37    16    18    2
    38    20    19    2
    39    18    19    1
