@<TRIPOS>MOLECULE
23579_out_ligand_01.pdbqt
 34 37 0 0 0
SMALL
GASTEIGER

@<TRIPOS>ATOM
      1  C         16.9780  -21.0400  -11.0240 C.3     1  UNL1        0.0500
      2  C         18.2320  -21.7930  -10.6810 C.2     1  UNL1       -0.0390
      3  C         19.4070  -21.4780  -11.3790 C.2     1  UNL1        0.0100
      4  C         20.6100  -22.1360  -11.1030 C.2     1  UNL1        0.0310
      5  C         20.6770  -23.1100  -10.1080 C.2     1  UNL1        0.0440
      6  C         19.5150  -23.4530   -9.4260 C.2     1  UNL1        0.0550
      7  C         18.3030  -22.7890   -9.6900 C.2     1  UNL1        0.0870
      8  N         21.9230  -23.7740   -9.9230 N.pl3   1  UNL1       -0.2810
      9  H         22.1500  -24.5650  -10.5240 H       1  UNL1        0.1790
     10  S         23.3000  -23.0310   -9.3070 S.O2    1  UNL1        0.2630
     11  O         22.9100  -21.8870   -8.5110 O.2     1  UNL1       -0.2000
     12  O         24.0990  -24.0960   -8.7380 O.2     1  UNL1       -0.2000
     13  C         24.1400  -22.4580  -10.7630 C.2     1  UNL1        0.0800
     14  C         23.9720  -23.1250  -11.9770 C.2     1  UNL1        0.0260
     15  C         24.6480  -22.6670  -13.1080 C.2     1  UNL1        0.0140
     16  C         25.4780  -21.5370  -13.0420 C.2     1  UNL1       -0.0260
     17  C         26.1650  -21.0690  -14.1730 C.2     1  UNL1        0.0120
     18  C         25.6240  -20.8500  -11.8120 C.2     1  UNL1       -0.0250
     19  C         26.9820  -19.9390  -14.0960 C.2     1  UNL1        0.0010
     20  C         27.1200  -19.2610  -12.8870 C.2     1  UNL1        0.0010
     21  C         26.4460  -19.7130  -11.7520 C.2     1  UNL1        0.0120
     22  C         24.9440  -21.3170  -10.6770 C.2     1  UNL1        0.0370
     23  S         16.8940  -23.2550   -8.6860 S.O2    1  UNL1        0.2630
     24  O         17.2720  -24.3800   -7.8580 O.2     1  UNL1       -0.2000
     25  O         15.7410  -23.3470   -9.5560 O.2     1  UNL1       -0.2000
     26  N         16.6970  -21.9330   -7.6490 N.pl3   1  UNL1       -0.2780
     27  H         16.0740  -21.2340   -8.0580 H       1  UNL1        0.1790
     28  C         16.5060  -22.1900   -6.2560 C.2     1  UNL1        0.0810
     29  C         15.2410  -22.4560   -5.7360 C.2     1  UNL1        0.0330
     30  C         15.0790  -22.6410   -4.3600 C.2     1  UNL1        0.0020
     31  C         16.1830  -22.5670   -3.5050 C.2     1  UNL1        0.0030
     32  C         17.4510  -22.3080   -4.0230 C.2     1  UNL1        0.0440
     33  C         17.6030  -22.1210   -5.3920 C.2     1  UNL1        0.1430
     34  F         18.8210  -21.8510   -5.8870 F       1  UNL1       -0.2040
@<TRIPOS>BOND
     1    17    19    2
     2    17    16    1
     3    19    20    1
     4    15    16    2
     5    15    14    1
     6    16    18    1
     7    20    21    2
     8    14    13    2
     9    18    21    1
    10    18    22    2
    11     3     4    1
    12     3     2    2
    13     4     5    2
    14     1     2    1
    15    13    22    1
    16    13    10    1
    17     2     7    1
    18     9     8    1
    19     5     8    1
    20     5     6    1
    21     8    10    1
    22     7     6    2
    23     7    23    1
    24    25    23    2
    25    10    12    2
    26    10    11    2
    27    23    24    2
    28    23    26    1
    29    27    26    1
    30    26    28    1
    31    28    29    2
    32    28    33    1
    33    34    33    1
    34    29    30    1
    35    33    32    2
    36    30    31    2
    37    32    31    1
