@<TRIPOS>MOLECULE
23571_out_ligand_01.pdbqt
 33 35 0 0 0
SMALL
GASTEIGER

@<TRIPOS>ATOM
      1  C         19.7690  -22.5120  -10.1380 C.2     1  UNL1        0.0870
      2  C         21.0660  -23.0510  -10.2500 C.2     1  UNL1        0.0500
      3  C         21.9070  -22.6400  -11.2800 C.2     1  UNL1        0.0240
      4  C         21.4560  -21.7230  -12.2230 C.2     1  UNL1        0.0250
      5  C         20.1650  -21.2040  -12.1280 C.2     1  UNL1        0.0100
      6  C         19.2960  -21.5870  -11.0890 C.2     1  UNL1       -0.0390
      7  C         17.9110  -21.0040  -11.0860 C.3     1  UNL1        0.0500
      8  N         23.2140  -23.2140  -11.4200 N.pl3   1  UNL1       -0.1810
      9  H         23.4440  -23.3610  -12.4060 H       1  UNL1        0.1460
     10  S         24.4740  -22.2560  -10.7810 S.O2    1  UNL1        0.2490
     11  O         25.5720  -23.0610  -10.3030 O.2     1  UNL1       -0.2050
     12  O         23.8100  -21.2850   -9.9350 O.2     1  UNL1       -0.2050
     13  C         25.0370  -21.3990  -12.2160 C.2     1  UNL1        0.1160
     14  C         24.6360  -21.8120  -13.4930 C.2     1  UNL1        0.0310
     15  C         25.0850  -21.1100  -14.6130 C.2     1  UNL1        0.0470
     16  C         25.9220  -20.0080  -14.4450 C.2     1  UNL1        0.1580
     17  F         26.3520  -19.3430  -15.5260 F       1  UNL1       -0.2030
     18  C         26.3110  -19.6020  -13.1740 C.2     1  UNL1        0.1940
     19  F         27.1210  -18.5440  -13.0290 F       1  UNL1       -0.2000
     20  C         25.8680  -20.2950  -12.0560 C.2     1  UNL1        0.1800
     21  F         26.2590  -19.8920  -10.8400 F       1  UNL1       -0.2010
     22  S         18.7950  -23.1090   -8.7590 S.O2    1  UNL1        0.2630
     23  O         19.5710  -24.1550   -8.1210 O.2     1  UNL1       -0.2000
     24  O         17.4330  -23.3540   -9.1730 O.2     1  UNL1       -0.2000
     25  N         18.8250  -21.8080   -7.6840 N.pl3   1  UNL1       -0.2810
     26  H         18.7040  -20.9100   -8.1490 H       1  UNL1        0.1790
     27  C         18.3040  -21.9640   -6.3720 C.2     1  UNL1        0.0430
     28  C         18.9330  -21.3160   -5.3100 C.2     1  UNL1        0.0300
     29  C         18.4190  -21.4400   -4.0190 C.2     1  UNL1        0.0030
     30  C         17.2760  -22.2070   -3.7920 C.2     1  UNL1        0.0070
     31  C         16.6330  -22.8530   -4.8550 C.2     1  UNL1       -0.0600
     32  C         15.4230  -23.7060   -4.6110 C.3     1  UNL1        0.0480
     33  C         17.1640  -22.7350   -6.1460 C.2     1  UNL1        0.0370
@<TRIPOS>BOND
     1    17    16    1
     2    15    16    2
     3    15    14    1
     4    16    18    1
     5    14    13    2
     6    18    19    1
     7    18    20    2
     8     9     8    1
     9     4     5    2
    10     4     3    1
    11    13    20    1
    12    13    10    1
    13     5     6    1
    14    20    21    1
    15     8     3    1
    16     8    10    1
    17     3     2    2
    18     6     7    1
    19     6     1    2
    20    10    11    2
    21    10    12    2
    22     2     1    1
    23     1    22    1
    24    24    22    2
    25    22    23    2
    26    22    25    1
    27    26    25    1
    28    25    27    1
    29    27    33    2
    30    27    28    1
    31    33    31    1
    32    28    29    2
    33    31    32    1
    34    31    30    2
    35    29    30    1
