@<TRIPOS>MOLECULE
23584_out_ligand_01.pdbqt
 29 33 0 0 0
SMALL
GASTEIGER

@<TRIPOS>ATOM
      1  S         19.9280  -23.5160   -9.0210 S.O2    1  UNL1        0.2460
      2  O         20.4500  -24.8350   -8.7310 O.2     1  UNL1       -0.2060
      3  O         19.0210  -23.2780  -10.1200 O.2     1  UNL1       -0.2060
      4  C         19.1610  -22.8970   -7.5400 C.2     1  UNL1        0.0860
      5  C         19.8530  -21.9140   -6.7790 C.2     1  UNL1        0.0280
      6  C         19.2970  -21.3790   -5.6050 C.2     1  UNL1        0.0320
      7  C         18.0630  -21.8480   -5.2250 C.2     1  UNL1        0.0470
      8  N         17.2780  -21.5080   -4.1270 N.am    1  UNL1       -0.3220
      9  C         17.4080  -22.8010   -5.9610 C.2     1  UNL1        0.0180
     10  C         16.1060  -22.2480   -4.1550 C.2     1  UNL1        0.2570
     11  H         17.5000  -20.8390   -3.4060 H       1  UNL1        0.1690
     12  O         15.1830  -22.2220   -3.3680 O.2     1  UNL1       -0.2670
     13  C         16.2080  -23.0940   -5.3650 C.2     1  UNL1        0.0450
     14  C         15.3530  -24.0280   -5.9080 C.2     1  UNL1        0.0180
     15  C         15.7640  -24.6650   -7.0870 C.2     1  UNL1        0.0020
     16  C         17.0060  -24.3550   -7.6930 C.2     1  UNL1        0.0140
     17  C         17.8860  -23.3850   -7.1320 C.2     1  UNL1        0.0000
     18  N         21.2920  -22.4910   -9.1360 N.pl3   1  UNL1       -0.1810
     19  H         22.0600  -22.9750   -8.6650 H       1  UNL1        0.1460
     20  C         21.6630  -22.1800  -10.4870 C.2     1  UNL1        0.0250
     21  C         20.8050  -21.4370  -11.3020 C.2     1  UNL1        0.0270
     22  C         21.1980  -21.0990  -12.5970 C.2     1  UNL1        0.0410
     23  C         22.4500  -21.4910  -13.0690 C.2     1  UNL1        0.1020
     24  C         23.3010  -22.2440  -12.2520 C.2     1  UNL1        0.1030
     25  O         22.7780  -21.1050  -14.3420 O.2     1  UNL1       -0.3460
     26  C         22.9180  -22.5700  -10.9530 C.2     1  UNL1        0.0640
     27  O         24.5350  -22.6880  -12.6610 O.2     1  UNL1       -0.3460
     28  C         24.6860  -22.5820  -14.0810 C.3     1  UNL1        0.2020
     29  C         24.1850  -21.2360  -14.5780 C.3     1  UNL1        0.2020
@<TRIPOS>BOND
     1    29    25    1
     2    29    28    1
     3    25    23    1
     4    28    27    1
     5    23    22    2
     6    23    24    1
     7    27    24    1
     8    22    21    1
     9    24    26    2
    10    21    20    2
    11    26    20    1
    12    20    18    1
    13     3     1    2
    14    18     1    1
    15    18    19    1
    16     1     2    2
    17     1     4    1
    18    16    17    1
    19    16    15    2
    20     4    17    2
    21     4     5    1
    22    17     9    1
    23    15    14    1
    24     5     6    2
    25     9    13    1
    26     9     7    2
    27    14    13    2
    28     6     7    1
    29    13    10    1
    30     7     8    1
    31    10     8   am
    32    10    12    2
    33     8    11    1
