@<TRIPOS>MOLECULE
23580_out_ligand_01.pdbqt
 32 34 0 0 0
SMALL
GASTEIGER

@<TRIPOS>ATOM
      1  C         16.2590  -22.4620   -6.4100 C.2     1  UNL1        0.1050
      2  C         15.0420  -22.8510   -5.8460 C.2     1  UNL1        0.0390
      3  C         15.0140  -23.3800   -4.5560 C.2     1  UNL1        0.0030
      4  C         16.1970  -23.5150   -3.8290 C.2     1  UNL1        0.0010
      5  C         17.4130  -23.1100   -4.3870 C.2     1  UNL1        0.0200
      6  C         17.4500  -22.5590   -5.6750 C.2     1  UNL1        0.0670
      7  O         16.2730  -21.9530   -7.6820 O.2     1  UNL1       -0.2280
      8  S         16.1480  -22.9900   -8.9460 S.3     1  UNL1        0.3030
      9  O         16.5570  -24.3210   -8.5440 O.3     1  UNL1       -0.1930
     10  O         14.8600  -22.7690   -9.5760 O.3     1  UNL1       -0.1930
     11  C         17.4000  -22.3710  -10.0480 C.2     1  UNL1        0.0860
     12  C         17.3010  -21.0760  -10.5610 C.2     1  UNL1        0.0260
     13  C         18.3200  -20.5860  -11.3780 C.2     1  UNL1        0.0100
     14  C         19.4370  -21.3810  -11.6840 C.2     1  UNL1       -0.0400
     15  C         19.5030  -22.6900  -11.1850 C.2     1  UNL1        0.0100
     16  C         18.4870  -23.1880  -10.3690 C.2     1  UNL1        0.0260
     17  C         20.5390  -20.8370  -12.5580 C.3     1  UNL1        0.1610
     18  N         21.7830  -21.5260  -12.3070 N.am    1  UNL1       -0.3570
     19  C         22.8090  -21.5240  -13.2220 C.2     1  UNL1        0.2130
     20  C         23.9630  -22.4010  -12.8230 C.3     1  UNL1        0.1170
     21  O         22.7980  -20.8820  -14.2670 O.2     1  UNL1       -0.2740
     22  H         21.7970  -22.2060  -11.5590 H       1  UNL1        0.1620
     23  C         18.7780  -22.1370   -6.2130 C.2     1  UNL1        0.2590
     24  O         19.2650  -21.0920   -5.8000 O.2     1  UNL1       -0.2670
     25  N         19.3250  -22.9850   -7.1580 N.am    1  UNL1       -0.3230
     26  H         18.7580  -23.7740   -7.4440 H       1  UNL1        0.1690
     27  C         20.5920  -22.8930   -7.7700 C.2     1  UNL1        0.0350
     28  C         21.0410  -24.0150   -8.4800 C.2     1  UNL1        0.0290
     29  C         22.2970  -24.0180   -9.0920 C.2     1  UNL1        0.0020
     30  C         23.1160  -22.8960   -9.0040 C.2     1  UNL1        0.0000
     31  C         22.6770  -21.7750   -8.3050 C.2     1  UNL1        0.0020
     32  C         21.4210  -21.7740   -7.6890 C.2     1  UNL1        0.0290
@<TRIPOS>BOND
     1    21    19    2
     2    19    20    1
     3    19    18   am
     4    17    18    1
     5    17    14    1
     6    18    22    1
     7    14    13    2
     8    14    15    1
     9    13    12    1
    10    15    16    2
    11    12    11    2
    12    16    11    1
    13    11     8    1
    14    10     8    1
    15    29    30    2
    16    29    28    1
    17    30    31    1
    18     8     9    1
    19     8     7    1
    20    28    27    2
    21    31    32    2
    22    27    32    1
    23    27    25    1
    24     7     1    1
    25    26    25    1
    26    25    23   am
    27     1     2    2
    28     1     6    1
    29    23    24    2
    30    23     6    1
    31     2     3    1
    32     6     5    2
    33     3     4    2
    34     5     4    1
