@<TRIPOS>MOLECULE
23582_out_ligand_01.pdbqt
 31 33 0 0 0
SMALL
GASTEIGER

@<TRIPOS>ATOM
      1  C         25.0310  -21.4750  -12.0910 C.2     1  UNL1        0.0760
      2  C         25.7540  -21.0710  -10.9640 C.2     1  UNL1        0.0250
      3  C         26.6180  -19.9810  -11.0560 C.2     1  UNL1        0.0030
      4  C         26.7600  -19.3040  -12.2700 C.2     1  UNL1        0.0230
      5  C         26.0400  -19.7160  -13.4000 C.2     1  UNL1        0.0460
      6  C         26.1950  -19.0160  -14.6420 C.1     1  UNL1        0.0990
      7  N         26.3140  -18.4450  -15.6450 N.1     1  UNL1       -0.1910
      8  C         25.1710  -20.8080  -13.3120 C.2     1  UNL1        0.0470
      9  S         23.9440  -22.8750  -11.9580 S.O2    1  UNL1        0.2450
     10  O         24.4770  -23.9080  -12.8180 O.2     1  UNL1       -0.2060
     11  O         22.5840  -22.3950  -12.0720 O.2     1  UNL1       -0.2060
     12  N         24.1730  -23.2920  -10.3170 N.pl3   1  UNL1       -0.1810
     13  H         24.9990  -22.7830   -9.9940 H       1  UNL1        0.1460
     14  C         23.0450  -22.9950   -9.4850 C.2     1  UNL1        0.0220
     15  C         23.0280  -21.8070   -8.7520 C.2     1  UNL1        0.0250
     16  C         21.9570  -21.5270   -7.9000 C.2     1  UNL1        0.0190
     17  C         20.9090  -22.4470   -7.7680 C.2     1  UNL1        0.0320
     18  C         20.9320  -23.6380   -8.5070 C.2     1  UNL1        0.0190
     19  C         22.0060  -23.9180   -9.3550 C.2     1  UNL1        0.0250
     20  C         19.7430  -22.1880   -6.8760 C.2     1  UNL1        0.2560
     21  N         18.7040  -23.0840   -7.0100 N.am    1  UNL1       -0.3210
     22  H         18.7470  -23.7730   -7.7540 H       1  UNL1        0.1690
     23  O         19.7860  -21.2140   -6.1360 O.2     1  UNL1       -0.2670
     24  C         17.4890  -23.1280   -6.2890 C.2     1  UNL1        0.0680
     25  C         17.3810  -23.6170   -4.9860 C.2     1  UNL1        0.0320
     26  C         16.1420  -23.6300   -4.3410 C.2     1  UNL1        0.0020
     27  C         15.0070  -23.1570   -4.9930 C.2     1  UNL1        0.0030
     28  C         15.1020  -22.6670   -6.2980 C.2     1  UNL1        0.0390
     29  C         16.3380  -22.6490   -6.9520 C.2     1  UNL1        0.0950
     30  O         16.5440  -22.1930   -8.2350 O.2     1  UNL1       -0.3540
     31  C         15.8780  -22.8910   -9.2810 C.3     1  UNL1        0.2100
@<TRIPOS>BOND
     1     7     6    3
     2     6     5    1
     3     5     8    1
     4     5     4    2
     5     8     1    2
     6    10     9    2
     7     4     3    1
     8     1     9    1
     9     1     2    1
    10    11     9    2
    11     9    12    1
    12     3     2    2
    13    12    13    1
    14    12    14    1
    15    14    19    2
    16    14    15    1
    17    19    18    1
    18    31    30    1
    19    15    16    2
    20    18    17    2
    21    30    29    1
    22    16    17    1
    23    17    20    1
    24    22    21    1
    25    21    20   am
    26    21    24    1
    27    29    28    1
    28    29    24    2
    29    20    23    2
    30    28    27    2
    31    24    25    1
    32    27    26    1
    33    25    26    2
