@<TRIPOS>MOLECULE
23593_out_ligand_01.pdbqt
 32 34 0 0 0
SMALL
GASTEIGER

@<TRIPOS>ATOM
      1  C         22.4100  -22.7390  -11.4310 C.2     1  UNL1        0.0240
      2  C         21.9230  -21.7640  -12.2950 C.2     1  UNL1        0.0250
      3  C         20.6290  -21.2670  -12.1310 C.2     1  UNL1        0.0100
      4  C         19.8070  -21.7120  -11.0810 C.2     1  UNL1       -0.0390
      5  C         18.4230  -21.1380  -10.9720 C.3     1  UNL1        0.0500
      6  C         20.3270  -22.6800  -10.1980 C.2     1  UNL1        0.0820
      7  C         21.6220  -23.1950  -10.3790 C.2     1  UNL1        0.0490
      8  N         23.7590  -23.2020  -11.5820 N.pl3   1  UNL1       -0.1810
      9  H         23.9090  -24.0630  -11.0520 H       1  UNL1        0.1460
     10  S         24.9330  -22.0830  -11.0370 S.O2    1  UNL1        0.2460
     11  O         24.3230  -21.0830  -10.1890 O.2     1  UNL1       -0.2060
     12  O         26.0530  -22.8780  -10.5810 O.2     1  UNL1       -0.2060
     13  C         25.4040  -21.3020  -12.5740 C.2     1  UNL1        0.0800
     14  C         24.9830  -21.9100  -13.7670 C.2     1  UNL1        0.0260
     15  C         25.3220  -21.3530  -14.9990 C.2     1  UNL1        0.0080
     16  C         26.0780  -20.1800  -15.0570 C.2     1  UNL1       -0.0610
     17  C         26.4770  -19.5960  -16.3810 C.3     1  UNL1        0.0480
     18  C         26.5160  -19.5890  -13.8640 C.2     1  UNL1        0.0150
     19  C         26.1840  -20.1300  -12.6080 C.2     1  UNL1       -0.0390
     20  C         26.7030  -19.4450  -11.3750 C.3     1  UNL1        0.0500
     21  S         19.3960  -23.3000   -8.8000 S.O2    1  UNL1        0.2460
     22  O         20.0300  -24.5250   -8.3540 O.2     1  UNL1       -0.2060
     23  O         17.9920  -23.2900   -9.1460 O.2     1  UNL1       -0.2060
     24  N         19.6210  -22.1120   -7.6150 N.pl3   1  UNL1       -0.1780
     25  H         20.6110  -21.8910   -7.5030 H       1  UNL1        0.1460
     26  C         18.8820  -22.2410   -6.3970 C.2     1  UNL1        0.0610
     27  C         18.1190  -23.3760   -6.1370 C.2     1  UNL1        0.0270
     28  C         17.4770  -23.5110   -4.9020 C.2     1  UNL1        0.0020
     29  C         17.5990  -22.5140   -3.9310 C.2     1  UNL1        0.0030
     30  C         18.3580  -21.3750   -4.1910 C.2     1  UNL1        0.0440
     31  C         18.9920  -21.2450   -5.4200 C.2     1  UNL1        0.1380
     32  F         19.7360  -20.1560   -5.6660 F       1  UNL1       -0.2040
@<TRIPOS>BOND
     1    17    16    1
     2    16    15    2
     3    16    18    1
     4    15    14    1
     5    18    19    2
     6    14    13    2
     7    19    13    1
     8    19    20    1
     9    13    10    1
    10     2     3    1
    11     2     1    2
    12     3     4    2
    13     8     1    1
    14     8     9    1
    15     8    10    1
    16     1     7    1
    17     4     5    1
    18     4     6    1
    19    10    12    2
    20    10    11    2
    21     7     6    2
    22     6    21    1
    23    23    21    2
    24    21    22    2
    25    21    24    1
    26    24    25    1
    27    24    26    1
    28    26    27    2
    29    26    31    1
    30    27    28    1
    31    32    31    1
    32    31    30    2
    33    28    29    2
    34    30    29    1
