@<TRIPOS>MOLECULE
235_out_ligand_01.pdbqt
 38 42 0 0 0
SMALL
GASTEIGER

@<TRIPOS>ATOM
      1  C         17.5000  -22.6360   -5.5560 C.2     1  UNL1        0.0540
      2  C         17.4970  -23.1270   -4.2420 C.2     1  UNL1        0.0190
      3  C         16.3010  -23.5630   -3.6660 C.2     1  UNL1        0.0010
      4  C         15.1140  -23.5150   -4.3970 C.2     1  UNL1        0.0020
      5  C         15.1150  -23.0400   -5.7100 C.2     1  UNL1        0.0250
      6  C         16.3070  -22.6110   -6.2980 C.2     1  UNL1        0.0380
      7  N         16.2560  -22.0520   -7.6190 N.pl3   1  UNL1       -0.1800
      8  H         15.4240  -21.4660   -7.7850 H       1  UNL1        0.1460
      9  S         16.3790  -23.1610   -8.9010 S.O2    1  UNL1        0.2460
     10  O         15.0790  -23.2300   -9.5320 O.2     1  UNL1       -0.2060
     11  O         17.0630  -24.3500   -8.4380 O.2     1  UNL1       -0.2060
     12  C         17.4480  -22.2970  -10.0320 C.2     1  UNL1        0.0770
     13  C         17.0110  -21.0840  -10.6200 C.2     1  UNL1        0.0270
     14  C         17.8360  -20.3880  -11.5090 C.2     1  UNL1        0.0330
     15  C         19.0710  -20.9380  -11.7660 C.ar    1  UNL1        0.0630
     16  N         20.0910  -20.4830  -12.5910 N.ar    1  UNL1       -0.3070
     17  C         19.4980  -22.1290  -11.1730 C.ar    1  UNL1        0.0640
     18  C         21.1650  -21.3830  -12.5210 C.ar    1  UNL1        0.3250
     19  H         20.1000  -19.6460  -13.1530 H       1  UNL1        0.1700
     20  O         22.2250  -21.2950  -13.1140 O.2     1  UNL1       -0.2470
     21  N         20.7800  -22.4010  -11.6380 N.ar    1  UNL1       -0.3060
     22  H         21.3680  -23.1810  -11.3940 H       1  UNL1        0.1700
     23  C         18.7140  -22.8380  -10.2960 C.2     1  UNL1        0.0560
     24  C         18.7700  -22.1900   -6.1860 C.2     1  UNL1        0.2580
     25  O         19.1440  -21.0420   -5.9660 O.2     1  UNL1       -0.2670
     26  N         19.4240  -23.1540   -6.9280 N.am    1  UNL1       -0.3220
     27  H         19.0730  -24.1020   -6.8600 H       1  UNL1        0.1690
     28  C         20.6160  -22.9900   -7.6640 C.2     1  UNL1        0.0520
     29  C         21.4050  -21.8520   -7.6470 C.2     1  UNL1        0.0350
     30  C         22.5610  -21.7980   -8.4340 C.2     1  UNL1        0.0520
     31  C         22.9290  -22.8810   -9.2320 C.2     1  UNL1        0.1250
     32  N         22.1530  -23.9860   -9.2700 N.2     1  UNL1       -0.2410
     33  C         21.0410  -24.0200   -8.4960 C.2     1  UNL1        0.1480
     34  N         24.0520  -22.8410  -10.0280 N.pl3   1  UNL1       -0.3660
     35  C         25.1520  -23.7540   -9.7420 C.3     1  UNL1        0.1240
     36  C         26.2320  -23.3020  -10.7190 C.3     1  UNL1        0.0210
     37  C         26.0460  -21.7930  -10.7400 C.3     1  UNL1        0.0210
     38  C         24.5280  -21.6140  -10.6590 C.3     1  UNL1        0.1240
@<TRIPOS>BOND
     1    19    16    1
     2    20    18    2
     3    16    18   ar
     4    16    15   ar
     5    18    21   ar
     6    15    14    2
     7    15    17   ar
     8    21    22    1
     9    21    17   ar
    10    14    13    1
    11    17    23    2
    12    37    36    1
    13    37    38    1
    14    36    35    1
    15    38    34    1
    16    13    12    2
    17    23    12    1
    18    12     9    1
    19    34    35    1
    20    34    31    1
    21    10     9    2
    22    32    31    2
    23    32    33    1
    24    31    30    1
    25     9    11    2
    26     9     7    1
    27    33    28    2
    28    30    29    2
    29     8     7    1
    30    28    29    1
    31    28    26    1
    32     7     6    1
    33    26    27    1
    34    26    24   am
    35     6     5    1
    36     6     1    2
    37    24    25    2
    38    24     1    1
    39     5     4    2
    40     1     2    1
    41     4     3    1
    42     2     3    2
