@<TRIPOS>MOLECULE
23602_out_ligand_01.pdbqt
 33 35 0 0 0
SMALL
GASTEIGER

@<TRIPOS>ATOM
      1  N         20.6360  -22.8570   -8.0190 N.pl3   1  UNL1       -0.1810
      2  H         21.0190  -23.7810   -7.8260 H       1  UNL1        0.1460
      3  S         19.8100  -22.8450   -9.5110 S.O2    1  UNL1        0.2460
      4  O         19.3280  -24.1890   -9.7520 O.2     1  UNL1       -0.2050
      5  O         18.8890  -21.7300   -9.5330 O.2     1  UNL1       -0.2050
      6  C         21.1860  -22.4870  -10.6240 C.2     1  UNL1        0.0860
      7  C         20.9660  -21.6780  -11.7640 C.2     1  UNL1       -0.0380
      8  C         22.0300  -21.4480  -12.6650 C.2     1  UNL1        0.0160
      9  C         19.6360  -21.0530  -12.1080 C.3     1  UNL1        0.0500
     10  C         23.3140  -21.9650  -12.4540 C.2     1  UNL1       -0.0500
     11  C         23.5110  -22.7350  -11.2950 C.2     1  UNL1        0.0160
     12  C         22.4790  -23.0010  -10.3710 C.2     1  UNL1       -0.0380
     13  C         22.8450  -23.8340   -9.1700 C.3     1  UNL1        0.0500
     14  C         24.4740  -21.7430  -13.4430 C.3     1  UNL1       -0.0240
     15  C         25.6730  -21.1260  -12.6890 C.3     1  UNL1        0.0190
     16  C         24.9740  -23.0370  -14.1260 C.3     1  UNL1        0.0190
     17  C         24.0360  -20.7820  -14.5740 C.3     1  UNL1        0.0190
     18  C         19.9370  -22.2530   -6.9280 C.2     1  UNL1        0.0240
     19  C         20.3660  -21.0420   -6.3900 C.2     1  UNL1        0.0240
     20  C         19.6540  -20.4420   -5.3470 C.2     1  UNL1        0.0030
     21  C         18.5080  -21.0510   -4.8420 C.2     1  UNL1        0.0250
     22  C         18.0940  -22.2790   -5.3710 C.2     1  UNL1        0.0810
     23  C         18.7990  -22.8780   -6.4220 C.2     1  UNL1        0.0490
     24  S         16.6000  -23.0310   -4.7860 S.O2    1  UNL1        0.2640
     25  O         16.1050  -22.2090   -3.6980 O.2     1  UNL1       -0.2000
     26  O         16.8200  -24.4450   -4.5900 O.2     1  UNL1       -0.2000
     27  N         15.5140  -22.7810   -6.0250 N.3     1  UNL1       -0.2680
     28  H         14.6250  -22.4340   -5.6790 H       1  UNL1        0.1800
     29  C         15.6670  -23.1670   -7.3510 C.3     1  UNL1        0.1080
     30  N         15.7570  -22.3410   -8.3400 N.3     1  UNL1       -0.2760
     31  C         15.9360  -23.1870   -9.5320 C.3     1  UNL1        0.1510
     32  C         15.4190  -24.5600   -9.1360 C.3     1  UNL1        0.0290
     33  C         15.7400  -24.6270   -7.6620 C.3     1  UNL1        0.0800
@<TRIPOS>BOND
     1    17    14    1
     2    16    14    1
     3    14    15    1
     4    14    10    1
     5     8    10    2
     6     8     7    1
     7    10    11    1
     8     9     7    1
     9     7     6    2
    10    11    12    2
    11     6    12    1
    12     6     3    1
    13    12    13    1
    14     4     3    2
    15     5     3    2
    16    31    32    1
    17    31    30    1
    18     3     1    1
    19    32    33    1
    20    30    29    1
    21     1     2    1
    22     1    18    1
    23    33    29    1
    24    29    27    1
    25    18    23    2
    26    18    19    1
    27    23    22    1
    28    19    20    2
    29    27    28    1
    30    27    24    1
    31    22    21    2
    32    22    24    1
    33    20    21    1
    34    24    26    2
    35    24    25    2
