@<TRIPOS>MOLECULE
23615_out_ligand_01.pdbqt
 34 36 0 0 0
SMALL
GASTEIGER

@<TRIPOS>ATOM
      1  C         19.9700  -22.5160  -10.2460 C.2     1  UNL1        0.0810
      2  C         19.3830  -21.5100  -11.0230 C.2     1  UNL1        0.0250
      3  C         20.0970  -20.9600  -12.0850 C.2     1  UNL1        0.0030
      4  C         21.3910  -21.4080  -12.3610 C.2     1  UNL1        0.0240
      5  C         21.9730  -22.4050  -11.5750 C.2     1  UNL1        0.0240
      6  C         21.2740  -22.9520  -10.5010 C.2     1  UNL1        0.0490
      7  S         19.0660  -23.2130   -8.8830 S.O2    1  UNL1        0.2630
      8  O         19.7290  -24.4340   -8.4780 O.2     1  UNL1       -0.2000
      9  O         17.6630  -23.1980   -9.2390 O.2     1  UNL1       -0.2000
     10  N         19.2450  -22.0450   -7.6760 N.pl3   1  UNL1       -0.2810
     11  H         20.1980  -21.6950   -7.6130 H       1  UNL1        0.1790
     12  C         18.4680  -22.1310   -6.4910 C.2     1  UNL1        0.0430
     13  C         18.8780  -21.5010   -5.3180 C.2     1  UNL1        0.0300
     14  C         18.0810  -21.5660   -4.1750 C.2     1  UNL1        0.0030
     15  C         16.8690  -22.2580   -4.2060 C.2     1  UNL1        0.0160
     16  C         16.4410  -22.8910   -5.3840 C.2     1  UNL1        0.0500
     17  C         17.2590  -22.8290   -6.5250 C.2     1  UNL1        0.0460
     18  C         15.1410  -23.6530   -5.4240 C.3     1  UNL1        0.4170
     19  F         14.9940  -24.4810   -4.3530 F       1  UNL1       -0.1660
     20  F         14.0430  -22.8490   -5.4360 F       1  UNL1       -0.1660
     21  F         15.0330  -24.4460   -6.5270 F       1  UNL1       -0.1660
     22  N         23.3230  -22.8110  -11.8390 N.pl3   1  UNL1       -0.1810
     23  H         23.4320  -23.8210  -11.7140 H       1  UNL1        0.1460
     24  S         24.4800  -22.0670  -10.8260 S.O2    1  UNL1        0.2460
     25  O         25.4350  -23.0960  -10.4760 O.2     1  UNL1       -0.2060
     26  O         23.8270  -21.2410   -9.8370 O.2     1  UNL1       -0.2060
     27  C         25.2610  -20.9690  -11.9860 C.2     1  UNL1        0.0770
     28  C         26.2640  -20.1020  -11.5310 C.2     1  UNL1        0.0280
     29  C         26.8930  -19.2430  -12.4340 C.2     1  UNL1        0.0470
     30  C         26.5160  -19.2620  -13.7760 C.2     1  UNL1        0.1540
     31  F         27.1190  -18.4320  -14.6380 F       1  UNL1       -0.2030
     32  C         25.5230  -20.1330  -14.2190 C.2     1  UNL1        0.1560
     33  F         25.1670  -20.1430  -15.5100 F       1  UNL1       -0.2030
     34  C         24.8890  -20.9950  -13.3330 C.2     1  UNL1        0.0700
@<TRIPOS>BOND
     1    33    32    1
     2    31    30    1
     3    32    30    2
     4    32    34    1
     5    30    29    1
     6    34    27    2
     7    29    28    2
     8     4     3    2
     9     4     5    1
    10     3     2    1
    11    27    28    1
    12    27    24    1
    13    22    23    1
    14    22     5    1
    15    22    24    1
    16     5     6    2
    17     2     1    2
    18    24    25    2
    19    24    26    2
    20     6     1    1
    21     1     7    1
    22     9     7    2
    23     7     8    2
    24     7    10    1
    25    10    11    1
    26    10    12    1
    27    21    18    1
    28    17    12    2
    29    17    16    1
    30    12    13    1
    31    20    18    1
    32    18    16    1
    33    18    19    1
    34    16    15    2
    35    13    14    2
    36    15    14    1
