@<TRIPOS>MOLECULE
23610_out_ligand_01.pdbqt
 32 34 0 0 0
SMALL
GASTEIGER

@<TRIPOS>ATOM
      1  N         21.2930  -21.5440   -9.9310 N.pl3   1  UNL1       -0.1790
      2  H         21.2200  -20.5820   -9.5940 H       1  UNL1        0.1460
      3  S         21.7830  -22.5430   -8.6540 S.O2    1  UNL1        0.2450
      4  O         22.6660  -21.8070   -7.7720 O.2     1  UNL1       -0.2060
      5  O         22.2060  -23.7950   -9.2460 O.2     1  UNL1       -0.2060
      6  C         20.2720  -22.8660   -7.7710 C.2     1  UNL1        0.0740
      7  C         19.7730  -21.9180   -6.8740 C.2     1  UNL1        0.0250
      8  C         18.5940  -22.1860   -6.1780 C.2     1  UNL1        0.0100
      9  C         17.9180  -23.4050   -6.3570 C.2     1  UNL1       -0.0400
     10  C         18.4460  -24.3560   -7.2430 C.2     1  UNL1        0.0100
     11  C         19.6210  -24.0910   -7.9480 C.2     1  UNL1        0.0250
     12  C         16.6610  -23.6940   -5.5750 C.3     1  UNL1        0.1610
     13  N         15.5900  -22.8110   -5.9770 N.am    1  UNL1       -0.3570
     14  C         14.7750  -22.1970   -5.0560 C.2     1  UNL1        0.2130
     15  C         13.6440  -21.4110   -5.6630 C.3     1  UNL1        0.1170
     16  O         14.9320  -22.2780   -3.8420 O.2     1  UNL1       -0.2740
     17  H         15.2940  -22.8500   -6.9430 H       1  UNL1        0.1620
     18  C         22.0280  -21.6430  -11.1590 C.2     1  UNL1        0.0490
     19  C         23.3470  -22.0960  -11.1400 C.2     1  UNL1        0.0270
     20  C         24.0900  -22.1260  -12.3190 C.2     1  UNL1        0.0020
     21  C         23.5170  -21.7000  -13.5160 C.2     1  UNL1        0.0020
     22  C         22.1970  -21.2410  -13.5380 C.2     1  UNL1        0.0310
     23  C         21.4400  -21.1950  -12.3600 C.2     1  UNL1        0.0540
     24  N         20.0930  -20.7560  -12.4090 N.pl3   1  UNL1       -0.3550
     25  H         19.8250  -20.5030  -13.3580 H       1  UNL1        0.1660
     26  C         18.9870  -21.3280  -11.7330 C.2     1  UNL1        0.0320
     27  C         17.9490  -20.4830  -11.3210 C.2     1  UNL1        0.0300
     28  C         16.8630  -20.9780  -10.5930 C.2     1  UNL1        0.0090
     29  C         16.8040  -22.3300  -10.2420 C.2     1  UNL1       -0.0620
     30  C         15.6230  -22.8720   -9.4920 C.3     1  UNL1        0.0480
     31  C         17.8400  -23.1780  -10.6460 C.2     1  UNL1        0.0090
     32  C         18.9260  -22.6780  -11.3710 C.2     1  UNL1        0.0300
@<TRIPOS>BOND
     1    22    21    2
     2    22    23    1
     3    21    20    1
     4    25    24    1
     5    24    23    1
     6    24    26    1
     7    23    18    2
     8    20    19    2
     9    26    32    2
    10    26    27    1
    11    32    31    1
    12    27    28    2
    13    18    19    1
    14    18     1    1
    15    31    29    2
    16    28    29    1
    17    29    30    1
    18     1     2    1
    19     1     3    1
    20     5     3    2
    21     3     4    2
    22     3     6    1
    23    11     6    2
    24    11    10    1
    25     6     7    1
    26    10     9    2
    27    17    13    1
    28     7     8    2
    29     9     8    1
    30     9    12    1
    31    13    12    1
    32    13    14   am
    33    15    14    1
    34    14    16    2
