@<TRIPOS>MOLECULE
23613_out_ligand_01.pdbqt
 30 32 0 0 0
SMALL
GASTEIGER

@<TRIPOS>ATOM
      1  C         19.0520  -23.3750   -7.1180 C.2     1  UNL1        0.0320
      2  C         19.4880  -24.3200   -8.0580 C.2     1  UNL1        0.0180
      3  C         20.6680  -24.1020   -8.7730 C.2     1  UNL1        0.0260
      4  C         21.4160  -22.9440   -8.5350 C.2     1  UNL1        0.0790
      5  C         20.9900  -21.9960   -7.6000 C.2     1  UNL1        0.0260
      6  C         19.8120  -22.2190   -6.8860 C.2     1  UNL1        0.0180
      7  S         22.9130  -22.6590   -9.4480 S.O2    1  UNL1        0.2630
      8  O         23.9020  -23.6000   -8.9630 O.2     1  UNL1       -0.2000
      9  O         23.1860  -21.2380   -9.4640 O.2     1  UNL1       -0.2000
     10  N         22.4960  -23.1730  -11.0000 N.pl3   1  UNL1       -0.2810
     11  H         22.1830  -24.1430  -11.0030 H       1  UNL1        0.1790
     12  C         23.2910  -22.7300  -12.0900 C.2     1  UNL1        0.0440
     13  C         24.5530  -23.2970  -12.2720 C.2     1  UNL1        0.0310
     14  C         25.3660  -22.9060  -13.3440 C.2     1  UNL1        0.0170
     15  C         24.8820  -21.9350  -14.2370 C.2     1  UNL1        0.0110
     16  C         25.3590  -21.2910  -15.4000 C.2     1  UNL1        0.1520
     17  C         23.6190  -21.3900  -14.0320 C.2     1  UNL1        0.0640
     18  N         24.4830  -20.4170  -15.9030 N.2     1  UNL1       -0.1860
     19  N         23.4380  -20.5020  -15.0600 N.pl3   1  UNL1       -0.2780
     20  H         22.6260  -19.9230  -15.2430 H       1  UNL1        0.1890
     21  C         22.7930  -21.7590  -12.9650 C.2     1  UNL1        0.0620
     22  C         17.8080  -23.5710   -6.3260 C.2     1  UNL1        0.2510
     23  O         17.3470  -24.6930   -6.1640 O.2     1  UNL1       -0.2680
     24  N         17.2420  -22.4400   -5.7770 N.am    1  UNL1       -0.3480
     25  H         17.8000  -21.5960   -5.7240 H       1  UNL1        0.1630
     26  C         16.1270  -22.5680   -4.8340 C.3     1  UNL1        0.2400
     27  C         14.7340  -22.4700   -5.4610 C.3     1  UNL1        0.4030
     28  F         14.8350  -22.2290   -6.7920 F       1  UNL1       -0.1690
     29  F         13.9790  -21.4910   -4.9250 F       1  UNL1       -0.1690
     30  F         14.0630  -23.6360   -5.3170 F       1  UNL1       -0.1690
@<TRIPOS>BOND
     1    18    16    2
     2    18    19    1
     3    16    15    1
     4    20    19    1
     5    19    17    1
     6    15    17    2
     7    15    14    1
     8    17    21    1
     9    14    13    2
    10    21    12    2
    11    13    12    1
    12    12    10    1
    13    11    10    1
    14    10     7    1
    15     9     7    2
    16     7     8    2
    17     7     4    1
    18     3     4    2
    19     3     2    1
    20     4     5    1
    21     2     1    2
    22     5     6    2
    23     1     6    1
    24     1    22    1
    25    28    27    1
    26    22    23    2
    27    22    24   am
    28    24    25    1
    29    24    26    1
    30    27    30    1
    31    27    29    1
    32    27    26    1
