@<TRIPOS>MOLECULE
23639_out_ligand_01.pdbqt
 31 34 0 0 0
SMALL
GASTEIGER

@<TRIPOS>ATOM
      1  C         23.7230  -22.0400  -13.2780 C.2     1  UNL1        0.0540
      2  C         24.7590  -22.0140  -14.2220 C.2     1  UNL1        0.0190
      3  C         25.8440  -22.8840  -14.0950 C.2     1  UNL1        0.0010
      4  C         25.9060  -23.7710  -13.0220 C.2     1  UNL1        0.0020
      5  C         24.8870  -23.7920  -12.0670 C.2     1  UNL1        0.0250
      6  C         23.7990  -22.9220  -12.1840 C.2     1  UNL1        0.0380
      7  N         22.7320  -23.0240  -11.2280 N.pl3   1  UNL1       -0.1800
      8  H         22.2700  -23.9460  -11.2260 H       1  UNL1        0.1460
      9  S         23.1260  -22.6310   -9.6230 S.O2    1  UNL1        0.2450
     10  O         24.1430  -23.5690   -9.1960 O.2     1  UNL1       -0.2060
     11  O         23.3310  -21.2010   -9.5170 O.2     1  UNL1       -0.2060
     12  C         21.6350  -23.0610   -8.7600 C.2     1  UNL1        0.0750
     13  C         21.0640  -24.3160   -8.9740 C.2     1  UNL1        0.0260
     14  C         19.8870  -24.6550   -8.3060 C.2     1  UNL1        0.0140
     15  C         19.2780  -23.7520   -7.4210 C.2     1  UNL1       -0.0260
     16  C         18.0910  -24.0800   -6.7470 C.2     1  UNL1        0.0120
     17  C         19.8720  -22.4860   -7.1990 C.2     1  UNL1       -0.0250
     18  C         17.4960  -23.1740   -5.8690 C.2     1  UNL1        0.0010
     19  C         18.0810  -21.9310   -5.6490 C.2     1  UNL1        0.0010
     20  C         19.2620  -21.5880   -6.3090 C.2     1  UNL1        0.0120
     21  C         21.0560  -22.1520   -7.8710 C.2     1  UNL1        0.0370
     22  C         22.5760  -21.1020  -13.3900 C.2     1  UNL1        0.2530
     23  O         22.5410  -20.2970  -14.3160 O.2     1  UNL1       -0.2680
     24  N         21.6150  -21.1870  -12.4120 N.am    1  UNL1       -0.3510
     25  H         21.7150  -21.8310  -11.6400 H       1  UNL1        0.1630
     26  C         20.4010  -20.4060  -12.4620 C.3     1  UNL1        0.1870
     27  C         19.3310  -21.1710  -11.7770 C.2     1  UNL1        0.0700
     28  C         19.2890  -22.4220  -11.1940 C.2     1  UNL1        0.0360
     29  C         17.9780  -22.5820  -10.6910 C.2     1  UNL1        0.0270
     30  C         17.3020  -21.4250  -11.0010 C.2     1  UNL1        0.1420
     31  O         18.1200  -20.5560  -11.6500 O.2     1  UNL1       -0.3250
@<TRIPOS>BOND
     1    23    22    2
     2     2     3    1
     3     2     1    2
     4     3     4    2
     5    22     1    1
     6    22    24   am
     7     1     6    1
     8     4     5    1
     9    26    24    1
    10    26    27    1
    11    24    25    1
    12     6     5    2
    13     6     7    1
    14    27    31    1
    15    27    28    2
    16    31    30    1
    17     7     8    1
    18     7     9    1
    19    28    29    1
    20    30    29    2
    21     9    11    2
    22     9    10    2
    23     9    12    1
    24    13    12    2
    25    13    14    1
    26    12    21    1
    27    14    15    2
    28    21    17    2
    29    15    17    1
    30    15    16    1
    31    17    20    1
    32    16    18    2
    33    20    19    2
    34    18    19    1
