@<TRIPOS>MOLECULE
23647_out_ligand_01.pdbqt
 33 35 0 0 0
SMALL
GASTEIGER

@<TRIPOS>ATOM
      1  N         24.5310  -23.6560  -17.2300 N.1     1  UNL1       -0.1910
      2  C         24.7590  -22.9460  -16.3410 C.1     1  UNL1        0.0990
      3  C         25.0490  -22.0710  -15.2420 C.2     1  UNL1        0.0460
      4  C         25.4890  -20.7640  -15.4830 C.2     1  UNL1        0.0230
      5  C         25.7710  -19.9050  -14.4170 C.2     1  UNL1        0.0030
      6  C         25.6170  -20.3490  -13.1040 C.2     1  UNL1        0.0250
      7  C         25.1860  -21.6560  -12.8670 C.2     1  UNL1        0.0760
      8  C         24.8930  -22.5210  -13.9280 C.2     1  UNL1        0.0470
      9  S         24.9700  -22.2400  -11.2030 S.O2    1  UNL1        0.2450
     10  O         24.4800  -21.1250  -10.4240 O.2     1  UNL1       -0.2060
     11  O         26.1550  -22.9820  -10.8290 O.2     1  UNL1       -0.2060
     12  N         23.7290  -23.3880  -11.4380 N.pl3   1  UNL1       -0.1810
     13  H         23.9360  -24.1800  -10.8230 H       1  UNL1        0.1460
     14  C         22.4140  -22.8780  -11.1720 C.2     1  UNL1        0.0230
     15  C         21.8200  -22.0060  -12.0860 C.2     1  UNL1        0.0240
     16  C         20.5590  -21.4710  -11.8230 C.2     1  UNL1        0.0030
     17  C         19.8970  -21.7930  -10.6370 C.2     1  UNL1        0.0170
     18  C         20.5110  -22.6400   -9.7050 C.2     1  UNL1        0.0340
     19  C         21.7710  -23.1900   -9.9760 C.2     1  UNL1        0.0410
     20  C         19.8450  -23.0070   -8.4270 C.2     1  UNL1        0.2560
     21  O         19.9210  -24.1720   -8.0540 O.2     1  UNL1       -0.2670
     22  N         19.2290  -21.9580   -7.7700 N.am    1  UNL1       -0.3230
     23  H         19.3790  -21.0310   -8.1500 H       1  UNL1        0.1690
     24  C         18.4920  -22.0160   -6.5690 C.2     1  UNL1        0.0350
     25  C         18.9180  -21.4550   -5.3650 C.2     1  UNL1        0.0290
     26  C         18.1330  -21.5630   -4.2130 C.2     1  UNL1        0.0030
     27  C         16.9140  -22.2360   -4.2530 C.2     1  UNL1        0.0160
     28  C         16.4640  -22.8040   -5.4520 C.2     1  UNL1        0.0500
     29  C         17.2660  -22.6950   -6.6010 C.2     1  UNL1        0.0450
     30  C         15.1570  -23.5570   -5.5030 C.3     1  UNL1        0.4170
     31  F         15.0280  -24.3400   -6.6100 F       1  UNL1       -0.1660
     32  F         14.9820  -24.3880   -4.4380 F       1  UNL1       -0.1660
     33  F         14.0810  -22.7230   -5.5040 F       1  UNL1       -0.1660
@<TRIPOS>BOND
     1     1     2    3
     2     2     3    1
     3     4     3    2
     4     4     5    1
     5     3     8    1
     6     5     6    2
     7     8     7    2
     8     6     7    1
     9     7     9    1
    10    15    16    1
    11    15    14    2
    12    16    17    2
    13    12     9    1
    14    12    14    1
    15    12    13    1
    16     9    11    2
    17     9    10    2
    18    14    19    1
    19    17    18    1
    20    19    18    2
    21    18    20    1
    22    20    21    2
    23    20    22   am
    24    23    22    1
    25    22    24    1
    26    31    30    1
    27    29    24    2
    28    29    28    1
    29    24    25    1
    30    33    30    1
    31    30    28    1
    32    30    32    1
    33    28    27    2
    34    25    26    2
    35    27    26    1
