@<TRIPOS>MOLECULE
23667_out_ligand_01.pdbqt
 32 34 0 0 0
SMALL
GASTEIGER

@<TRIPOS>ATOM
      1  C         23.7370  -22.2510  -13.9420 C.2     1  UNL1        0.0580
      2  C         24.2080  -22.5190  -15.2400 C.2     1  UNL1        0.0190
      3  C         25.1670  -23.5070  -15.4540 C.2     1  UNL1        0.0010
      4  C         25.6520  -24.2390  -14.3780 C.2     1  UNL1        0.0020
      5  C         25.2090  -23.9640  -13.0800 C.2     1  UNL1        0.0300
      6  C         24.2810  -22.9420  -12.8340 C.2     1  UNL1        0.0500
      7  N         23.8290  -22.6330  -11.5250 N.am    1  UNL1       -0.3320
      8  H         22.8970  -22.9910  -11.2960 H       1  UNL1        0.1680
      9  C         24.3780  -21.9090  -10.4970 C.2     1  UNL1        0.1760
     10  S         25.7190  -20.9800  -10.8740 S.2     1  UNL1       -0.0410
     11  N         23.8320  -22.1220   -9.2560 N.am    1  UNL1       -0.3330
     12  H         24.3150  -21.5990   -8.5360 H       1  UNL1        0.1680
     13  C         22.6040  -22.6950   -8.8630 C.2     1  UNL1        0.0350
     14  C         22.1830  -23.9720   -9.2290 C.2     1  UNL1        0.0300
     15  C         20.9620  -24.4810   -8.7680 C.2     1  UNL1        0.0110
     16  C         20.1430  -23.7290   -7.9170 C.2     1  UNL1       -0.0400
     17  C         18.8390  -24.3040   -7.4420 C.3     1  UNL1        0.0500
     18  C         20.5830  -22.4570   -7.5280 C.2     1  UNL1        0.0420
     19 CL         19.6500  -21.4660   -6.4620 Cl      1  UNL1       -0.0840
     20  C         21.8030  -21.9500   -7.9900 C.2     1  UNL1        0.0530
     21  C         22.6690  -21.2220  -13.7560 C.2     1  UNL1        0.2540
     22  N         21.7120  -21.4980  -12.8000 N.am    1  UNL1       -0.3530
     23  H         21.8970  -22.2320  -12.1310 H       1  UNL1        0.1630
     24  O         22.7010  -20.1760  -14.3930 O.2     1  UNL1       -0.2680
     25  C         20.7510  -20.4960  -12.3920 C.3     1  UNL1        0.1610
     26  C         19.5570  -21.1400  -11.7340 C.2     1  UNL1       -0.0410
     27  C         19.5920  -22.4830  -11.3400 C.2     1  UNL1        0.0090
     28  C         18.4910  -23.0640  -10.7060 C.2     1  UNL1        0.0070
     29  C         17.3430  -22.3080  -10.4380 C.2     1  UNL1       -0.0620
     30  C         16.1490  -22.9410   -9.7880 C.3     1  UNL1        0.0480
     31  C         17.3050  -20.9680  -10.8380 C.2     1  UNL1        0.0070
     32  C         18.4040  -20.3870  -11.4730 C.2     1  UNL1        0.0090
@<TRIPOS>BOND
     1     3     2    1
     2     3     4    2
     3     2     1    2
     4    24    21    2
     5     4     5    1
     6     1    21    1
     7     1     6    1
     8    21    22   am
     9     5     6    2
    10     6     7    1
    11    22    25    1
    12    22    23    1
    13    25    26    1
    14    26    32    2
    15    26    27    1
    16     7     8    1
    17     7     9    1
    18    32    31    1
    19    27    28    2
    20    10     9    2
    21    31    29    2
    22    28    29    1
    23     9    11    1
    24    29    30    1
    25    11    13    1
    26    11    12    1
    27    14    13    2
    28    14    15    1
    29    13    20    1
    30    15    16    2
    31    20    18    2
    32    16    18    1
    33    16    17    1
    34    18    19    1
