@<TRIPOS>MOLECULE
23660_out_ligand_01.pdbqt
 36 38 0 0 0
SMALL
GASTEIGER

@<TRIPOS>ATOM
      1  C         20.5090  -22.8090   -8.5950 C.2     1  UNL1        0.0320
      2  C         20.4520  -23.0030   -9.9760 C.2     1  UNL1        0.0190
      3  C         21.5240  -22.6100  -10.7840 C.2     1  UNL1        0.0240
      4  C         22.6690  -22.0030  -10.2450 C.2     1  UNL1        0.0090
      5  C         22.7360  -21.8750   -8.8540 C.2     1  UNL1        0.0240
      6  C         21.6670  -22.2630   -8.0340 C.2     1  UNL1        0.0190
      7  N         23.7180  -21.6960  -11.1190 N.pl3   1  UNL1       -0.2760
      8  H         24.1520  -20.8160  -10.8450 H       1  UNL1        0.1290
      9  C         24.7450  -22.6940  -11.4570 C.3     1  UNL1        0.1800
     10  C         26.1590  -22.2910  -10.9490 C.2     1  UNL1        0.2270
     11  O         27.0930  -23.0810  -10.8140 O.2     1  UNL1       -0.2770
     12  N         26.2740  -20.9650  -10.5840 N.am    1  UNL1       -0.1830
     13  C         26.6000  -20.0920  -11.5790 C.2     1  UNL1        0.2770
     14  H         25.4570  -20.6010  -10.1130 H       1  UNL1        0.1400
     15  N         26.5520  -18.7970  -11.1620 N.am    1  UNL1       -0.2580
     16  O         26.8690  -20.3700  -12.7370 O.2     1  UNL1       -0.2610
     17  H         26.9360  -18.6170  -10.2420 H       1  UNL1        0.1280
     18  H         26.8990  -18.1530  -11.8660 H       1  UNL1        0.1280
     19  C         24.7520  -22.8740  -12.9730 C.2     1  UNL1       -0.0320
     20  C         24.1540  -21.9310  -13.8270 C.2     1  UNL1        0.0090
     21  C         24.1840  -22.1060  -15.2110 C.2     1  UNL1        0.0010
     22  C         24.8020  -23.2280  -15.7580 C.2     1  UNL1        0.0000
     23  C         25.3820  -24.1820  -14.9240 C.2     1  UNL1        0.0010
     24  C         25.3530  -24.0090  -13.5400 C.2     1  UNL1        0.0090
     25  C         19.3470  -23.2340   -7.7620 C.2     1  UNL1        0.2560
     26  N         18.6510  -22.2010   -7.1680 N.am    1  UNL1       -0.3210
     27  H         18.8990  -21.2480   -7.4100 H       1  UNL1        0.1690
     28  O         19.0850  -24.4290   -7.6890 O.2     1  UNL1       -0.2670
     29  C         17.5430  -22.2790   -6.2940 C.2     1  UNL1        0.0680
     30  C         17.6550  -22.2910   -4.9030 C.2     1  UNL1        0.0320
     31  C         16.5100  -22.3640   -4.1060 C.2     1  UNL1        0.0020
     32  C         15.2500  -22.4230   -4.6960 C.2     1  UNL1        0.0030
     33  C         15.1250  -22.4080   -6.0850 C.2     1  UNL1        0.0390
     34  C         16.2650  -22.3340   -6.8910 C.2     1  UNL1        0.0950
     35  O         16.2560  -22.3110   -8.2690 O.2     1  UNL1       -0.3540
     36  C         15.8140  -23.4870   -8.9320 C.3     1  UNL1        0.2100
@<TRIPOS>BOND
     1    22    21    2
     2    22    23    1
     3    21    20    1
     4    23    24    2
     5    20    19    2
     6    24    19    1
     7    19     9    1
     8    16    13    2
     9    18    15    1
    10    13    15   am
    11    13    12   am
    12     9     7    1
    13     9    10    1
    14    15    17    1
    15     7     8    1
    16     7     4    1
    17    10    11    2
    18    10    12   am
    19     3     4    2
    20     3     2    1
    21    12    14    1
    22     4     5    1
    23     2     1    2
    24    36    35    1
    25     5     6    2
    26     1     6    1
    27     1    25    1
    28    35    34    1
    29    25    28    2
    30    25    26   am
    31    27    26    1
    32    26    29    1
    33    34    29    2
    34    34    33    1
    35    29    30    1
    36    33    32    2
    37    30    31    2
    38    32    31    1
