@<TRIPOS>MOLECULE
23674_out_ligand_01.pdbqt
 36 40 0 0 0
SMALL
GASTEIGER

@<TRIPOS>ATOM
      1  N         19.5070  -22.6490   -7.0510 N.am    1  UNL1       -0.3230
      2  C         18.5740  -23.6580   -6.8920 C.2     1  UNL1        0.2560
      3  O         18.6560  -24.8160   -7.2720 O.2     1  UNL1       -0.2670
      4  H         19.3020  -21.7660   -6.6010 H       1  UNL1        0.1690
      5  C         17.3650  -23.2300   -6.1360 C.2     1  UNL1        0.0390
      6  C         17.5610  -22.5070   -4.9480 C.2     1  UNL1        0.0170
      7  C         16.4700  -22.1060   -4.1790 C.2     1  UNL1        0.0010
      8  C         15.1810  -22.4260   -4.5930 C.2     1  UNL1        0.0010
      9  C         14.9800  -23.1360   -5.7800 C.2     1  UNL1        0.0090
     10  C         16.0640  -23.5430   -6.5790 C.2     1  UNL1       -0.0330
     11  C         15.7920  -24.2930   -7.8650 C.3     1  UNL1        0.1220
     12  S         15.1170  -23.2340   -9.1750 S.3     1  UNL1       -0.0800
     13  C         16.5630  -22.6290   -9.9270 C.ar    1  UNL1        0.2100
     14  N         16.6870  -21.3750  -10.3200 N.ar    1  UNL1       -0.2160
     15  C         17.9530  -21.3120  -10.8380 C.ar    1  UNL1        0.0940
     16  C         18.6640  -20.2520  -11.4150 C.2     1  UNL1        0.0340
     17  C         18.5630  -22.5500  -10.7330 C.ar    1  UNL1        0.1070
     18  C         19.9710  -20.5000  -11.8630 C.2     1  UNL1        0.0020
     19  C         20.5520  -21.7690  -11.7380 C.2     1  UNL1        0.0030
     20  C         19.8530  -22.8380  -11.1630 C.2     1  UNL1        0.0400
     21  O         17.6770  -23.4020  -10.1460 O.2     1  UNL1       -0.2840
     22  C         20.7380  -22.7220   -7.7340 C.2     1  UNL1        0.0350
     23  C         21.0380  -23.9220   -8.3870 C.2     1  UNL1        0.0320
     24  C         22.2430  -24.0760   -9.0820 C.2     1  UNL1        0.0320
     25  C         23.1760  -23.0340   -9.1310 C.2     1  UNL1        0.0360
     26  C         22.8740  -21.8370   -8.4830 C.2     1  UNL1        0.0320
     27  C         21.6650  -21.6830   -7.7890 C.2     1  UNL1        0.0320
     28  N         24.3610  -23.2610   -9.8580 N.am    1  UNL1       -0.3090
     29  C         24.5900  -22.9970  -11.1990 C.2     1  UNL1        0.3210
     30  O         23.8220  -22.4170  -11.9540 O.2     1  UNL1       -0.2470
     31  N         25.8420  -23.4740  -11.5700 N.am    1  UNL1       -0.3380
     32  H         26.1720  -24.2440  -11.0040 H       1  UNL1        0.1640
     33  H         25.1830  -23.4800   -9.3180 H       1  UNL1        0.1700
     34  C         26.4430  -23.3730  -12.8700 C.3     1  UNL1        0.0860
     35  C         25.8430  -23.9620  -14.1130 C.3     1  UNL1        0.0270
     36  C         27.1210  -24.5250  -13.5530 C.3     1  UNL1        0.0270
@<TRIPOS>BOND
     1    35    36    1
     2    35    34    1
     3    36    34    1
     4    34    31    1
     5    30    29    2
     6    18    19    2
     7    18    16    1
     8    19    20    1
     9    31    29   am
    10    31    32    1
    11    16    15    2
    12    29    28   am
    13    20    17    2
    14    15    17   ar
    15    15    14   ar
    16    17    21   ar
    17    14    13   ar
    18    21    13   ar
    19    13    12    1
    20    28    33    1
    21    28    25    1
    22    12    11    1
    23    25    24    2
    24    25    26    1
    25    24    23    1
    26    26    27    2
    27    23    22    2
    28    11    10    1
    29    27    22    1
    30    22     1    1
    31     3     2    2
    32     1     2   am
    33     1     4    1
    34     2     5    1
    35    10     5    2
    36    10     9    1
    37     5     6    1
    38     9     8    2
    39     6     7    2
    40     8     7    1
