@<TRIPOS>MOLECULE
2368_out_ligand_01.pdbqt
 29 32 0 0 0
SMALL
GASTEIGER

@<TRIPOS>ATOM
      1  C         18.9760  -21.5270  -11.3270 C.2     1  UNL1        0.1430
      2  C         17.9350  -20.6460  -11.5740 C.2     1  UNL1        0.0450
      3  C         16.7830  -21.1780  -10.9410 C.2     1  UNL1        0.0370
      4  C         17.1740  -22.3610  -10.3540 C.2     1  UNL1        0.0820
      5  O         18.5040  -22.5680  -10.5710 O.2     1  UNL1       -0.3080
      6  C         20.3790  -21.5420  -11.6990 C.2     1  UNL1        0.2750
      7  O         20.8820  -20.7660  -12.5060 O.2     1  UNL1       -0.2650
      8  N         21.1400  -22.5030  -11.0620 N.am    1  UNL1       -0.3520
      9  H         20.7170  -23.1070  -10.3720 H       1  UNL1        0.1620
     10  C         22.5690  -22.6630  -11.2930 C.3     1  UNL1        0.1600
     11  C         23.3960  -22.6660   -9.9780 C.3     1  UNL1        0.0740
     12  C         23.0630  -21.4220   -9.1200 C.3     1  UNL1        0.0390
     13  C         22.1810  -21.7090   -7.9010 C.3     1  UNL1        0.0030
     14  C         21.1620  -22.8040   -8.1740 C.3     1  UNL1        0.0000
     15  C         21.8290  -24.1230   -8.5620 C.3     1  UNL1        0.0030
     16  C         23.2270  -23.9520   -9.1540 C.3     1  UNL1        0.0390
     17  O         24.7830  -22.5510  -10.3550 O.3     1  UNL1       -0.3880
     18  H         25.2970  -22.9760   -9.6470 H       1  UNL1        0.2100
     19  C         16.4630  -23.3940   -9.5420 C.3     1  UNL1        0.3370
     20  N         16.3830  -23.0460   -8.1120 N.3     1  UNL1        0.0990
     21  C         16.1310  -24.2520   -7.3100 C.3     1  UNL1        0.2780
     22  C         15.8420  -23.8850   -5.8490 C.3     1  UNL1        0.0690
     23  C         16.8790  -22.9540   -5.2780 C.2     1  UNL1       -0.0490
     24  C         16.9920  -22.7880   -3.8910 C.2     1  UNL1        0.0070
     25  C         17.6960  -22.2050   -6.1420 C.2     1  UNL1       -0.0240
     26  C         17.9300  -21.9020   -3.3620 C.2     1  UNL1        0.0010
     27  C         18.7560  -21.1720   -4.2140 C.2     1  UNL1        0.0010
     28  C         18.6420  -21.3230   -5.5960 C.2     1  UNL1        0.0090
     29  C         17.6160  -22.3840   -7.6460 C.3     1  UNL1        0.3120
@<TRIPOS>BOND
     1     7     6    2
     2     6     1    1
     3     6     8   am
     4     2     1    2
     5     2     3    1
     6     1     5    1
     7    10     8    1
     8    10    11    1
     9     8     9    1
    10     3     4    2
    11     5     4    1
    12    17    11    1
    13    17    18    1
    14     4    19    1
    15    11    16    1
    16    11    12    1
    17    19    20    1
    18    16    15    1
    19    12    13    1
    20    15    14    1
    21    14    13    1
    22    20    29    1
    23    20    21    1
    24    29    25    1
    25    21    22    1
    26    25    28    1
    27    25    23    2
    28    22    23    1
    29    28    27    2
    30    23    24    1
    31    27    26    1
    32    24    26    2
