@<TRIPOS>MOLECULE
23696_out_ligand_01.pdbqt
 33 36 0 0 0
SMALL
GASTEIGER

@<TRIPOS>ATOM
      1  C         17.6290  -23.5760   -8.5000 C.2     1  UNL1        0.0820
      2  C         19.0170  -23.7780   -8.4030 C.2     1  UNL1        0.0480
      3  C         19.9070  -23.1900   -9.3100 C.2     1  UNL1        0.0100
      4  C         19.3610  -22.4620  -10.3690 C.2     1  UNL1        0.0240
      5  C         17.9790  -22.2610  -10.4790 C.2     1  UNL1        0.0100
      6  C         17.0890  -22.8020   -9.5410 C.2     1  UNL1       -0.0390
      7  C         15.6170  -22.5710   -9.7310 C.3     1  UNL1        0.0500
      8  N         21.2670  -23.4860   -9.1920 N.pl3   1  UNL1       -0.2870
      9  H         21.4430  -24.2120   -8.4960 H       1  UNL1        0.1280
     10  C         22.2330  -22.4020   -9.0360 C.3     1  UNL1        0.1520
     11  C         23.1420  -22.4190  -10.2540 C.2     1  UNL1        0.0560
     12  C         22.7150  -21.9600  -11.4400 C.2     1  UNL1        0.1030
     13  C         23.6130  -22.0090  -12.6130 C.2     1  UNL1        0.2560
     14  O         23.2050  -21.5640  -13.6820 O.2     1  UNL1       -0.2680
     15  N         24.8490  -22.5630  -12.3700 N.am    1  UNL1       -0.2610
     16  C         25.8740  -22.7400  -13.2940 C.2     1  UNL1        0.0250
     17  C         25.1600  -22.9960  -11.0970 C.2     1  UNL1        0.1800
     18  C         25.7370  -22.3390  -14.7260 C.3     1  UNL1        0.0690
     19  C         26.9740  -23.3010  -12.7660 C.2     1  UNL1        0.0780
     20  S         26.7910  -23.6400  -11.0720 S.3     1  UNL1       -0.0610
     21  N         24.4000  -22.9500  -10.0560 N.2     1  UNL1       -0.2270
     22  S         16.5940  -24.3580   -7.2720 S.O2    1  UNL1        0.2460
     23  O         17.4570  -24.9970   -6.2990 O.2     1  UNL1       -0.2060
     24  O         15.5540  -25.0890   -7.9600 O.2     1  UNL1       -0.2060
     25  N         15.9400  -22.9840   -6.4940 N.pl3   1  UNL1       -0.1810
     26  H         15.7240  -22.2990   -7.2200 H       1  UNL1        0.1460
     27  C         16.8030  -22.4200   -5.4960 C.2     1  UNL1        0.0230
     28  C         16.5860  -22.7170   -4.1520 C.2     1  UNL1        0.0240
     29  C         17.4420  -22.1990   -3.1810 C.2     1  UNL1        0.0020
     30  C         18.5220  -21.3990   -3.5560 C.2     1  UNL1        0.0070
     31  C         18.7680  -21.1250   -4.9080 C.2     1  UNL1       -0.0600
     32  C         19.9260  -20.2580   -5.3030 C.3     1  UNL1        0.0480
     33  C         17.8950  -21.6370   -5.8780 C.2     1  UNL1        0.0310
@<TRIPOS>BOND
     1    18    16    1
     2    14    13    2
     3    16    19    2
     4    16    15    1
     5    19    20    1
     6    13    15   am
     7    13    12    1
     8    15    17    1
     9    12    11    2
    10    17    20    1
    11    17    21    2
    12     5     4    2
    13     5     6    1
    14     4     3    1
    15    11    21    1
    16    11    10    1
    17     7     6    1
    18     6     1    2
    19     3     8    1
    20     3     2    2
    21     8    10    1
    22     8     9    1
    23     1     2    1
    24     1    22    1
    25    24    22    2
    26    22    25    1
    27    22    23    2
    28    26    25    1
    29    25    27    1
    30    33    27    2
    31    33    31    1
    32    27    28    1
    33    32    31    1
    34    31    30    2
    35    28    29    2
    36    30    29    1
