@<TRIPOS>MOLECULE
23699_out_ligand_01.pdbqt
 40 43 0 0 0
SMALL
GASTEIGER

@<TRIPOS>ATOM
      1  C         24.5870  -22.7390  -10.7360 C.3     1  UNL1        0.1730
      2  C         25.4090  -21.6870  -11.4690 C.2     1  UNL1        0.1610
      3  N         25.7140  -20.5660  -10.8080 N.2     1  UNL1       -0.2010
      4  C         26.3850  -19.6740  -11.5130 C.cat   1  UNL1        0.2190
      5  N         26.7710  -19.8290  -12.7680 N.2     1  UNL1       -0.0310
      6  C         26.4250  -20.9670  -13.3560 C.cat   1  UNL1        0.7310
      7  N         25.7320  -21.9250  -12.7440 N.pl3   1  UNL1       -0.0460
      8  N         26.7380  -18.5010  -10.8790 N.pl3   1  UNL1       -0.2700
      9  H         25.9580  -17.8580  -10.8690 H       1  UNL1        0.1270
     10  H         27.6200  -18.1540  -11.2250 H       1  UNL1        0.1270
     11  N         26.7470  -21.2460  -14.6830 N.pl3   1  UNL1       -0.1880
     12  H         27.7220  -21.0340  -14.8230 H       1  UNL1        0.1840
     13  C         26.0050  -21.5900  -15.8240 C.2     1  UNL1        0.0550
     14  C         25.4840  -20.6240  -16.6990 C.2     1  UNL1        0.0300
     15  C         24.7300  -20.9750  -17.8210 C.2     1  UNL1        0.0020
     16  C         24.4690  -22.3100  -18.0940 C.2     1  UNL1        0.0010
     17  C         24.9560  -23.2910  -17.2370 C.2     1  UNL1        0.0090
     18  C         25.7120  -22.9500  -16.0970 C.2     1  UNL1       -0.0310
     19  C         26.1900  -24.0840  -15.2150 C.3     1  UNL1        0.0360
     20  C         25.1830  -25.2230  -15.1530 C.3     1  UNL1        0.0100
     21  N         24.1180  -22.2470   -9.4340 N.pl3   1  UNL1       -0.2860
     22  H         24.3390  -21.2550   -9.3320 H       1  UNL1        0.1280
     23  C         22.8230  -22.5540   -9.0130 C.2     1  UNL1        0.0080
     24  C         22.2420  -21.7680   -8.0070 C.2     1  UNL1        0.0240
     25  C         20.9710  -22.0580   -7.4990 C.2     1  UNL1        0.0190
     26  C         20.2590  -23.1610   -7.9760 C.2     1  UNL1        0.0320
     27  C         20.8520  -23.9910   -8.9320 C.2     1  UNL1        0.0190
     28  C         22.1250  -23.6910   -9.4340 C.2     1  UNL1        0.0240
     29  C         18.9050  -23.4350   -7.4110 C.2     1  UNL1        0.2560
     30  O         18.4080  -24.5400   -7.6030 O.2     1  UNL1       -0.2670
     31  N         18.3560  -22.3980   -6.6870 N.am    1  UNL1       -0.3210
     32  H         18.9240  -21.5770   -6.5040 H       1  UNL1        0.1690
     33  C         17.0920  -22.3440   -6.0570 C.2     1  UNL1        0.0680
     34  C         15.8850  -22.2690   -6.7510 C.2     1  UNL1        0.0320
     35  C         14.6750  -22.2180   -6.0550 C.2     1  UNL1        0.0020
     36  C         14.6660  -22.2380   -4.6630 C.2     1  UNL1        0.0030
     37  C         15.8680  -22.3090   -3.9570 C.2     1  UNL1        0.0390
     38  C         17.0830  -22.3620   -4.6440 C.2     1  UNL1        0.0950
     39  O         18.3230  -22.4290   -4.0470 O.2     1  UNL1       -0.3540
     40  C         18.6640  -21.3760   -3.1530 C.3     1  UNL1        0.2100
@<TRIPOS>BOND
     1    16    15    2
     2    16    17    1
     3    15    14    1
     4    17    18    2
     5    14    13    2
     6    18    13    1
     7    18    19    1
     8    13    11    1
     9    19    20    1
    10    12    11    1
    11    11     6    1
    12     6     5    2
    13     6     7    1
    14     5     4    1
    15     7     2    1
    16     4     8    1
    17     4     3    2
    18     2     3    2
    19     2     1    1
    20    10     8    1
    21     8     9    1
    22     1    21    1
    23    28    23    2
    24    28    27    1
    25    21    22    1
    26    21    23    1
    27    23    24    1
    28    27    26    2
    29    24    25    2
    30    26    25    1
    31    26    29    1
    32    30    29    2
    33    29    31   am
    34    34    33    2
    35    34    35    1
    36    31    32    1
    37    31    33    1
    38    33    38    1
    39    35    36    2
    40    36    37    1
    41    38    39    1
    42    38    37    2
    43    39    40    1
