@<TRIPOS>MOLECULE
236_out_ligand_01.pdbqt
 33 35 0 0 0
SMALL
GASTEIGER

@<TRIPOS>ATOM
      1  C         20.7970  -22.6000   -7.7540 C.2     1  UNL1        0.0320
      2  C         20.4090  -21.5770   -6.8740 C.2     1  UNL1        0.0180
      3  C         19.2150  -21.6760   -6.1570 C.2     1  UNL1        0.0260
      4  C         18.4080  -22.8050   -6.3210 C.2     1  UNL1        0.0740
      5  C         18.7910  -23.8410   -7.1780 C.2     1  UNL1        0.0260
      6  C         19.9900  -23.7380   -7.8920 C.2     1  UNL1        0.0180
      7  S         16.8930  -22.9210   -5.3990 S.O2    1  UNL1        0.2450
      8  O         17.0340  -22.0720   -4.2370 O.2     1  UNL1       -0.2060
      9  O         16.5360  -24.3210   -5.3000 O.2     1  UNL1       -0.2060
     10  N         15.7950  -22.2280   -6.5100 N.pl3   1  UNL1       -0.1810
     11  H         15.8950  -21.2150   -6.4260 H       1  UNL1        0.1460
     12  C         16.0120  -22.6430   -7.8650 C.2     1  UNL1        0.0230
     13  C         15.4380  -23.8220   -8.3400 C.2     1  UNL1        0.0240
     14  C         15.6120  -24.1890   -9.6740 C.2     1  UNL1        0.0030
     15  C         16.3480  -23.3700  -10.5330 C.2     1  UNL1        0.0160
     16  C         16.9170  -22.1740  -10.0660 C.2     1  UNL1        0.0490
     17  C         16.7300  -21.8120   -8.7250 C.2     1  UNL1        0.0400
     18  C         17.6790  -21.2710  -11.0050 C.3     1  UNL1        0.4170
     19  F         17.7910  -21.7950  -12.2550 F       1  UNL1       -0.1660
     20  F         18.9520  -21.0280  -10.5860 F       1  UNL1       -0.1660
     21  F         17.1000  -20.0470  -11.1590 F       1  UNL1       -0.1660
     22  C         22.0840  -22.4470   -8.4880 C.2     1  UNL1        0.2510
     23  O         22.8320  -21.5120   -8.2240 O.2     1  UNL1       -0.2680
     24  N         22.3440  -23.3770   -9.4720 N.am    1  UNL1       -0.3530
     25  H         21.5950  -23.9700   -9.7980 H       1  UNL1        0.1630
     26  C         23.4980  -23.2550  -10.3350 C.3     1  UNL1        0.1610
     27  C         23.1610  -22.4560  -11.5690 C.2     1  UNL1       -0.0390
     28  C         21.8450  -22.0280  -11.7940 C.2     1  UNL1        0.0090
     29  C         21.5180  -21.3050  -12.9440 C.2     1  UNL1        0.0020
     30  C         22.5040  -21.0100  -13.8850 C.2     1  UNL1        0.0240
     31  C         23.8120  -21.4390  -13.6710 C.2     1  UNL1        0.0340
     32 CL         25.0300  -21.0820  -14.8340 Cl      1  UNL1       -0.0840
     33  C         24.1450  -22.1610  -12.5240 C.2     1  UNL1        0.0320
@<TRIPOS>BOND
     1    32    31    1
     2    30    31    2
     3    30    29    1
     4    31    33    1
     5    29    28    2
     6    33    27    2
     7    19    18    1
     8    28    27    1
     9    27    26    1
    10    21    18    1
    11    18    20    1
    12    18    16    1
    13    15    16    2
    14    15    14    1
    15    26    24    1
    16    16    17    1
    17    25    24    1
    18    14    13    2
    19    24    22   am
    20    17    12    2
    21    22    23    2
    22    22     1    1
    23    13    12    1
    24     6     1    2
    25     6     5    1
    26    12    10    1
    27     1     2    1
    28     5     4    2
    29     2     3    2
    30    10    11    1
    31    10     7    1
    32     4     3    1
    33     4     7    1
    34     7     9    2
    35     7     8    2
