@<TRIPOS>MOLECULE
23700_out_ligand_01.pdbqt
 32 35 0 0 0
SMALL
GASTEIGER

@<TRIPOS>ATOM
      1  C         22.1220  -24.2830   -9.0120 C.3     1  UNL1        0.0420
      2  C         22.6750  -22.8990   -8.7020 C.3     1  UNL1        0.1700
      3  N         21.6840  -22.0230   -8.0230 N.pl3   1  UNL1       -0.3770
      4  H         21.9870  -21.8160   -7.0720 H       1  UNL1        0.1600
      5  C         20.3010  -22.2370   -8.0590 C.2     1  UNL1        0.0290
      6  C         19.5490  -22.3360   -9.2380 C.2     1  UNL1        0.0320
      7  C         18.1510  -22.4680   -9.2340 C.2     1  UNL1        0.0400
      8  C         17.5280  -22.4650   -7.9940 C.ar    1  UNL1        0.0870
      9  O         16.1890  -22.5760   -7.7810 O.2     1  UNL1       -0.3090
     10  C         18.2050  -22.3320   -6.7910 C.ar    1  UNL1        0.0130
     11  C         15.9940  -22.5120   -6.4350 C.ar    1  UNL1        0.0870
     12  C         14.7590  -22.5860   -5.7960 C.2     1  UNL1        0.0380
     13  C         17.2080  -22.3590   -5.7730 C.ar    1  UNL1        0.0110
     14  C         14.7700  -22.4970   -4.3990 C.2     1  UNL1        0.0030
     15  C         15.9680  -22.3420   -3.6960 C.2     1  UNL1        0.0010
     16  C         17.1970  -22.2710   -4.3670 C.2     1  UNL1        0.0150
     17  C         19.6090  -22.2010   -6.8290 C.2     1  UNL1        0.0440
     18  C         23.3650  -22.2180   -9.9060 C.2     1  UNL1        0.2440
     19  O         23.8860  -21.1100   -9.8190 O.2     1  UNL1       -0.2710
     20  N         23.2550  -22.9870  -11.0540 N.am    1  UNL1       -0.3250
     21  H         22.9070  -23.9280  -10.8770 H       1  UNL1        0.1690
     22  C         23.7090  -22.6920  -12.3490 C.2     1  UNL1        0.0340
     23  C         23.0550  -21.6630  -13.0370 C.2     1  UNL1        0.0300
     24  C         23.4510  -21.3070  -14.3300 C.2     1  UNL1        0.0190
     25  C         24.5040  -21.9820  -14.9550 C.2     1  UNL1        0.0320
     26  C         25.1710  -22.9990  -14.2650 C.2     1  UNL1        0.0190
     27  C         24.7720  -23.3520  -12.9690 C.2     1  UNL1        0.0300
     28  C         24.8900  -21.5700  -16.3310 C.2     1  UNL1        0.2490
     29  N         24.3840  -20.3890  -16.8030 N.am    1  UNL1       -0.3660
     30  H         24.7650  -20.0700  -17.6840 H       1  UNL1        0.1590
     31  H         23.9930  -19.6910  -16.1890 H       1  UNL1        0.1590
     32  O         25.6610  -22.2350  -17.0110 O.2     1  UNL1       -0.2680
@<TRIPOS>BOND
     1    30    29    1
     2    32    28    2
     3    29    28   am
     4    29    31    1
     5    28    25    1
     6    25    24    2
     7    25    26    1
     8    24    23    1
     9    26    27    2
    10    23    22    2
    11    27    22    1
    12    22    20    1
    13    20    21    1
    14    20    18   am
    15    18    19    2
    16    18     2    1
    17     6     7    1
    18     6     5    2
    19     7     8    2
    20     1     2    1
    21     2     3    1
    22     5     3    1
    23     5    17    1
    24     3     4    1
    25     8     9   ar
    26     8    10   ar
    27     9    11   ar
    28    17    10    2
    29    10    13   ar
    30    11    12    2
    31    11    13   ar
    32    12    14    1
    33    13    16    2
    34    14    15    2
    35    16    15    1
