@<TRIPOS>MOLECULE
23717_out_ligand_01.pdbqt
 32 35 0 0 0
SMALL
GASTEIGER

@<TRIPOS>ATOM
      1  C         24.1750  -23.6440   -9.1570 C.3     1  UNL1        0.0360
      2  C         22.7740  -23.2750   -9.6250 C.3     1  UNL1        0.1480
      3  N         22.1030  -22.3060   -8.7210 N.pl3   1  UNL1       -0.2800
      4  H         22.0300  -21.3920   -9.1680 H       1  UNL1        0.1280
      5  C         20.9280  -22.5900   -8.0140 C.2     1  UNL1        0.0090
      6  C         20.1030  -23.6280   -8.5120 C.2     1  UNL1        0.0240
      7  C         18.8670  -23.9530   -7.9350 C.2     1  UNL1        0.0140
      8  C         18.4350  -23.2080   -6.8570 C.2     1  UNL1       -0.0190
      9  C         19.2250  -22.1490   -6.3710 C.2     1  UNL1       -0.0410
     10  C         17.2260  -23.2920   -6.0650 C.3     1  UNL1       -0.0190
     11  C         20.4500  -21.8260   -6.9420 C.2     1  UNL1        0.0310
     12  C         18.5360  -21.4710   -5.2030 C.2     1  UNL1        0.0780
     13  C         17.2590  -22.2790   -5.0810 C.2     1  UNL1       -0.0430
     14  C         16.2280  -22.1170   -4.1710 C.2     1  UNL1        0.0080
     15  C         15.1420  -22.9900   -4.2530 C.2     1  UNL1        0.0010
     16  C         15.1010  -24.0000   -5.2310 C.2     1  UNL1        0.0010
     17  C         16.1480  -24.1560   -6.1460 C.2     1  UNL1        0.0130
     18  C         22.7020  -22.8680  -11.1140 C.2     1  UNL1        0.2390
     19  O         21.6430  -22.5740  -11.6600 O.2     1  UNL1       -0.2710
     20  N         23.9620  -22.8290  -11.6900 N.am    1  UNL1       -0.3260
     21  H         24.6850  -23.2450  -11.1030 H       1  UNL1        0.1690
     22  C         24.3140  -22.4610  -12.9980 C.2     1  UNL1        0.0340
     23  C         23.9800  -21.1650  -13.4100 C.2     1  UNL1        0.0300
     24  C         24.2910  -20.7260  -14.7000 C.2     1  UNL1        0.0190
     25  C         24.9480  -21.5760  -15.5950 C.2     1  UNL1        0.0320
     26  C         25.2680  -22.8770  -15.1940 C.2     1  UNL1        0.0190
     27  C         24.9540  -23.3140  -13.8990 C.2     1  UNL1        0.0300
     28  C         25.2570  -21.0650  -16.9570 C.2     1  UNL1        0.2490
     29  N         24.3170  -20.2830  -17.5680 N.am    1  UNL1       -0.3660
     30  H         24.4940  -20.0630  -18.5400 H       1  UNL1        0.1590
     31  H         23.3560  -20.2610  -17.2590 H       1  UNL1        0.1590
     32  O         26.2970  -21.3580  -17.5340 O.2     1  UNL1       -0.2680
@<TRIPOS>BOND
     1    30    29    1
     2    29    31    1
     3    29    28   am
     4    32    28    2
     5    28    25    1
     6    25    26    2
     7    25    24    1
     8    26    27    1
     9    24    23    2
    10    27    22    2
    11    23    22    1
    12    22    20    1
    13    20    18   am
    14    20    21    1
    15    19    18    2
    16    18     2    1
    17     2     1    1
    18     2     3    1
    19     4     3    1
    20     3     5    1
    21     6     5    2
    22     6     7    1
    23     5    11    1
    24     7     8    2
    25    11     9    2
    26     8     9    1
    27     8    10    1
    28     9    12    1
    29    17    10    1
    30    17    16    2
    31    10    13    1
    32    16    15    1
    33    12    13    2
    34    13    14    1
    35    15    14    2
