@<TRIPOS>MOLECULE
23724_out_ligand_01.pdbqt
 37 39 0 0 0
SMALL
GASTEIGER

@<TRIPOS>ATOM
      1  C         22.8330  -21.8600  -11.0720 C.2     1  UNL1        0.0350
      2  C         22.0120  -21.6000  -12.1790 C.2     1  UNL1        0.0170
      3  C         20.6270  -21.7400  -12.0790 C.2     1  UNL1        0.0030
      4  C         20.0520  -22.1260  -10.8700 C.2     1  UNL1        0.0250
      5  C         20.8700  -22.3460   -9.7570 C.2     1  UNL1        0.0800
      6  C         22.2620  -22.2260   -9.8500 C.2     1  UNL1        0.0420
      7  C         24.3010  -21.7050  -11.2350 C.2     1  UNL1        0.2710
      8  O         24.9190  -21.0420  -10.4090 O.2     1  UNL1       -0.2660
      9  N         24.8420  -22.3250  -12.3590 N.am    1  UNL1       -0.2430
     10  H         24.2950  -23.0380  -12.8290 H       1  UNL1        0.1920
     11  N         26.1930  -22.4710  -12.5250 N.2     1  UNL1       -0.1830
     12  C         26.6850  -22.4810  -13.7330 C.2     1  UNL1        0.1510
     13  C         25.9720  -22.5540  -15.0230 C.2     1  UNL1       -0.0000
     14  C         25.8750  -21.3720  -15.7680 C.2     1  UNL1        0.0140
     15  C         25.1750  -21.3660  -16.9770 C.2     1  UNL1        0.0010
     16  C         24.5740  -22.5350  -17.4450 C.2     1  UNL1        0.0010
     17  C         24.6870  -23.7200  -16.7160 C.2     1  UNL1        0.0190
     18  C         25.4060  -23.7350  -15.5140 C.2     1  UNL1        0.0490
     19  C         25.5630  -25.0260  -14.8320 C.2     1  UNL1        0.1770
     20  O         26.2380  -25.9620  -15.2140 O.2     1  UNL1       -0.6460
     21  O         24.9300  -25.0220  -13.6460 O.3     1  UNL1       -0.7730
     22  H         25.6460  -25.1160  -12.9840 H       1  UNL1        0.1670
     23  S         20.1440  -22.8170   -8.2080 S.O2    1  UNL1        0.2630
     24  O         20.0490  -24.2580   -8.1510 O.2     1  UNL1       -0.2000
     25  O         20.8320  -22.0700   -7.1740 O.2     1  UNL1       -0.2000
     26  N         18.5940  -22.1460   -8.3130 N.pl3   1  UNL1       -0.2810
     27  H         18.6400  -21.1290   -8.2450 H       1  UNL1        0.1790
     28  C         17.5420  -22.7980   -7.6130 C.2     1  UNL1        0.0430
     29  C         16.7640  -23.7550   -8.2590 C.2     1  UNL1        0.0300
     30  C         15.7040  -24.3590   -7.5820 C.2     1  UNL1        0.0030
     31  C         15.4210  -23.9980   -6.2640 C.2     1  UNL1        0.0160
     32  C         16.1910  -23.0250   -5.6090 C.2     1  UNL1        0.0500
     33  C         17.2600  -22.4290   -6.2980 C.2     1  UNL1        0.0460
     34  C         15.9000  -22.6220   -4.1860 C.3     1  UNL1        0.4170
     35  F         16.8830  -21.8680   -3.6210 F       1  UNL1       -0.1660
     36  F         14.7570  -21.8890   -4.0800 F       1  UNL1       -0.1660
     37  F         15.7360  -23.6950   -3.3640 F       1  UNL1       -0.1660
@<TRIPOS>BOND
     1    16    15    2
     2    16    17    1
     3    15    14    1
     4    17    18    2
     5    14    13    2
     6    18    13    1
     7    18    19    1
     8    20    19    2
     9    13    12    1
    10    19    21    1
    11    12    11    2
    12    21    22    1
    13    10     9    1
    14    11     9    1
    15     9     7   am
    16     2     3    1
    17     2     1    2
    18     3     4    2
    19     7     1    1
    20     7     8    2
    21     1     6    1
    22     4     5    1
    23     6     5    2
    24     5    23    1
    25    26    27    1
    26    26    23    1
    27    26    28    1
    28    29    28    2
    29    29    30    1
    30    23    24    2
    31    23    25    2
    32    28    33    1
    33    30    31    2
    34    33    32    2
    35    31    32    1
    36    32    34    1
    37    34    36    1
    38    34    35    1
    39    34    37    1
