@<TRIPOS>MOLECULE
2377_out_ligand_01.pdbqt
 30 32 0 0 0
SMALL
GASTEIGER

@<TRIPOS>ATOM
      1  N         20.5120  -22.7360   -9.7750 N.am    1  UNL1       -0.3090
      2  C         19.3360  -22.0320   -9.9130 C.2     1  UNL1        0.3230
      3  O         19.2120  -21.0430  -10.6300 O.2     1  UNL1       -0.2470
      4  N         18.2670  -22.5460   -9.1790 N.am    1  UNL1       -0.3250
      5  C         16.9450  -21.9570   -9.4010 C.3     1  UNL1        0.1280
      6  C         15.8770  -23.0430   -9.5060 C.3     1  UNL1        0.0200
      7  C         15.9140  -23.9840   -8.3060 C.3     1  UNL1        0.0040
      8  C         17.3290  -24.5200   -8.0730 C.3     1  UNL1        0.0300
      9  C         18.3840  -23.3950   -7.9670 C.3     1  UNL1        0.1220
     10  H         20.4000  -23.7160   -9.5660 H       1  UNL1        0.1700
     11  C         21.7920  -22.3500  -10.2240 C.2     1  UNL1        0.0370
     12  C         21.9760  -22.2200  -11.6060 C.2     1  UNL1        0.0500
     13  C         23.2240  -21.8530  -12.1410 C.2     1  UNL1        0.0720
     14  C         24.2870  -21.6290  -11.2690 C.2     1  UNL1        0.1320
     15  C         24.1210  -21.7650   -9.8940 C.2     1  UNL1        0.0450
     16  F         25.5010  -21.2840  -11.7240 F       1  UNL1       -0.2050
     17  C         22.8760  -22.1290   -9.3720 C.2     1  UNL1        0.0320
     18  C         23.3420  -21.7290  -13.6210 C.2     1  UNL1        0.2540
     19  N         24.3230  -22.4640  -14.2470 N.am    1  UNL1       -0.3610
     20  C         24.4580  -22.4730  -15.6820 C.3     1  UNL1        0.1490
     21  H         24.8660  -23.1320  -13.7100 H       1  UNL1        0.1620
     22  O         22.5730  -20.9900  -14.2310 O.2     1  UNL1       -0.2680
     23  C         18.3910  -22.5670   -6.6730 C.2     1  UNL1       -0.0330
     24  C         19.3360  -21.5360   -6.5150 C.2     1  UNL1        0.0090
     25  C         19.3960  -20.7790   -5.3450 C.2     1  UNL1        0.0030
     26  C         18.5180  -21.0480   -4.3000 C.2     1  UNL1        0.0370
     27  C         17.5830  -22.0750   -4.4120 C.2     1  UNL1        0.0680
     28  C         17.5300  -22.8320   -5.5890 C.2     1  UNL1        0.0460
     29  O         16.7890  -22.2410   -3.3110 O.2     1  UNL1       -0.3560
     30  C         16.1470  -23.5000   -3.1570 C.3     1  UNL1        0.2100
@<TRIPOS>BOND
     1    20    19    1
     2    19    21    1
     3    19    18   am
     4    22    18    2
     5    18    13    1
     6    13    12    1
     7    13    14    2
     8    16    14    1
     9    12    11    2
    10    14    15    1
    11     3     2    2
    12    11     1    1
    13    11    17    1
    14     2     1   am
    15     2     4   am
    16    15    17    2
    17     1    10    1
    18     6     5    1
    19     6     7    1
    20     5     4    1
    21     4     9    1
    22     7     8    1
    23     8     9    1
    24     9    23    1
    25    23    24    2
    26    23    28    1
    27    24    25    1
    28    28    27    2
    29    25    26    2
    30    27    26    1
    31    27    29    1
    32    29    30    1
