@<TRIPOS>MOLECULE
23782_out_ligand_01.pdbqt
 36 40 0 0 0
SMALL
GASTEIGER

@<TRIPOS>ATOM
      1  N         19.5620  -21.3540  -10.9580 N.pl3   1  UNL1       -0.2500
      2  N         18.7070  -20.7530  -11.8310 N.2     1  UNL1       -0.1820
      3  C         17.5050  -21.2170  -11.4600 C.2     1  UNL1        0.1600
      4  C         17.5910  -22.0750  -10.3580 C.2     1  UNL1        0.0990
      5  C         16.6440  -22.8110   -9.5710 C.2     1  UNL1        0.2640
      6  O         15.4400  -22.7940   -9.8010 O.2     1  UNL1       -0.2670
      7  N         17.2520  -23.5250   -8.5320 N.am    1  UNL1       -0.3030
      8  C         18.6310  -23.5010   -8.3250 C.2     1  UNL1        0.2150
      9  N         19.4970  -22.8380   -9.0340 N.2     1  UNL1       -0.2230
     10  C         18.9240  -22.1420  -10.0430 C.2     1  UNL1        0.1640
     11  C         20.9840  -21.0760  -11.0410 C.3     1  UNL1        0.1720
     12  C         21.7180  -22.1410  -11.8470 C.3     1  UNL1        0.1440
     13  N         23.0530  -21.7190  -12.2460 N.am    1  UNL1       -0.3590
     14  C         24.1640  -22.0960  -11.5270 C.2     1  UNL1        0.2190
     15  O         24.1340  -22.9200  -10.6210 O.2     1  UNL1       -0.2740
     16  H         23.1030  -20.8560  -12.7900 H       1  UNL1        0.1620
     17  C         25.4270  -21.3960  -11.9770 C.3     1  UNL1        0.1290
     18  C         26.2300  -22.2370  -12.9820 C.3     1  UNL1        0.1130
     19  C         26.4440  -23.6600  -12.4440 C.3     1  UNL1        0.1080
     20  S         26.5160  -24.7310  -13.8970 S.3     1  UNL1       -0.0900
     21  C         25.7070  -23.5740  -14.9070 C.2     1  UNL1        0.1720
     22  N         25.5750  -22.3590  -14.2880 N.am    1  UNL1       -0.2870
     23  N         25.3100  -23.8700  -16.0970 N.2     1  UNL1       -0.2290
     24  C         25.1930  -21.2780  -15.0420 C.2     1  UNL1        0.2510
     25  C         24.6240  -21.6010  -16.3630 C.2     1  UNL1        0.1010
     26  O         25.3080  -20.1030  -14.7090 O.2     1  UNL1       -0.2680
     27  C         24.7090  -22.8610  -16.8080 C.2     1  UNL1        0.0380
     28  C         24.1690  -23.2560  -18.1520 C.3     1  UNL1        0.0700
     29  C         16.4130  -24.3190   -7.6490 C.3     1  UNL1        0.1740
     30  C         16.0980  -23.5970   -6.3640 C.2     1  UNL1       -0.0010
     31  C         14.9840  -22.7500   -6.2630 C.2     1  UNL1        0.0120
     32  C         14.6970  -22.1010   -5.0590 C.2     1  UNL1        0.0010
     33  C         15.5150  -22.2920   -3.9450 C.2     1  UNL1        0.0030
     34  C         16.6210  -23.1350   -4.0330 C.2     1  UNL1        0.0430
     35  C         16.9000  -23.7790   -5.2350 C.2     1  UNL1        0.1240
     36  F         17.9630  -24.5930   -5.2990 F       1  UNL1       -0.2050
@<TRIPOS>BOND
     1    28    27    1
     2    27    25    2
     3    27    23    1
     4    25    24    1
     5    23    21    2
     6    24    26    2
     7    24    22   am
     8    21    22    1
     9    21    20    1
    10    22    18    1
    11    20    19    1
    12    18    19    1
    13    18    17    1
    14    16    13    1
    15    13    12    1
    16    13    14   am
    17    17    14    1
    18    12    11    1
    19     2     3    2
    20     2     1    1
    21    14    15    2
    22     3     4    1
    23    11     1    1
    24     1    10    1
    25     4    10    2
    26     4     5    1
    27    10     9    1
    28     6     5    2
    29     5     7   am
    30     9     8    2
    31     7     8    1
    32     7    29    1
    33    29    30    1
    34    30    31    2
    35    30    35    1
    36    31    32    1
    37    36    35    1
    38    35    34    2
    39    32    33    2
    40    34    33    1
