@<TRIPOS>MOLECULE
23784_out_ligand_01.pdbqt
 32 36 0 0 0
SMALL
GASTEIGER

@<TRIPOS>ATOM
      1  C         22.9400  -21.8280  -12.7960 C.2     1  UNL1        0.0350
      2  C         23.5040  -22.6500  -11.8190 C.2     1  UNL1        0.0300
      3  C         22.7570  -23.0350  -10.6970 C.2     1  UNL1        0.0190
      4  C         21.4420  -22.5920  -10.5360 C.2     1  UNL1        0.0320
      5  C         20.8660  -21.7820  -11.5190 C.2     1  UNL1        0.0190
      6  C         21.6140  -21.4020  -12.6390 C.2     1  UNL1        0.0300
      7  C         20.6850  -23.0240   -9.3280 C.2     1  UNL1        0.2520
      8  O         21.2680  -23.6150   -8.4290 O.2     1  UNL1       -0.2680
      9  N         19.3480  -22.6800   -9.3050 N.am    1  UNL1       -0.3480
     10  H         19.0470  -21.9820   -9.9730 H       1  UNL1        0.1630
     11  C         18.4490  -22.9300   -8.1720 C.3     1  UNL1        0.0340
     12  C         16.9990  -22.5960   -8.6180 C.3     1  UNL1        0.0350
     13  C         16.0010  -22.8290   -7.4740 C.3     1  UNL1       -0.0120
     14  C         16.0620  -24.3030   -7.0440 C.3     1  UNL1        0.0090
     15  C         16.3820  -21.9350   -6.2830 C.3     1  UNL1        0.0090
     16  C         17.4830  -24.6520   -6.5750 C.3     1  UNL1       -0.0120
     17  C         17.8630  -23.7500   -5.3890 C.3     1  UNL1        0.0090
     18  C         18.4740  -24.4150   -7.7280 C.3     1  UNL1        0.0350
     19  C         17.8050  -22.2710   -5.8080 C.3     1  UNL1       -0.0120
     20  C         18.7960  -22.0310   -6.9600 C.3     1  UNL1        0.0350
     21  N         23.6170  -21.3960  -13.9530 N.am    1  UNL1       -0.3230
     22  C         24.8450  -20.7650  -14.0380 C.2     1  UNL1        0.2620
     23  O         25.5630  -20.4650  -13.0900 O.2     1  UNL1       -0.2670
     24  H         23.1460  -21.5650  -14.8350 H       1  UNL1        0.1690
     25  C         25.2590  -20.4590  -15.4020 C.2     1  UNL1        0.1030
     26  C         26.0770  -19.4070  -15.7780 C.2     1  UNL1        0.1330
     27  N         26.2120  -19.4820  -17.1310 N.pl3   1  UNL1       -0.2820
     28  N         25.5380  -20.5100  -17.6800 N.2     1  UNL1       -0.1470
     29  C         26.9750  -18.5970  -17.9780 C.3     1  UNL1        0.1790
     30  C         24.9660  -21.0950  -16.6270 C.2     1  UNL1        0.2000
     31  O         24.1880  -22.1930  -16.7780 O.2     1  UNL1       -0.3370
     32  C         24.5740  -23.0380  -17.8590 C.3     1  UNL1        0.2110
@<TRIPOS>BOND
     1    29    27    1
     2    32    31    1
     3    28    27    1
     4    28    30    2
     5    27    26    1
     6    31    30    1
     7    30    25    1
     8    26    25    2
     9    25    22    1
    10    24    21    1
    11    22    21   am
    12    22    23    2
    13    21     1    1
    14     1     6    2
    15     1     2    1
    16     6     5    1
    17     2     3    2
    18     5     4    2
    19     3     4    1
    20     4     7    1
    21    10     9    1
    22     7     9   am
    23     7     8    2
    24     9    11    1
    25    12    11    1
    26    12    13    1
    27    11    18    1
    28    11    20    1
    29    18    16    1
    30    13    14    1
    31    13    15    1
    32    14    16    1
    33    20    19    1
    34    16    17    1
    35    15    19    1
    36    19    17    1
