@<TRIPOS>MOLECULE
23797_out_ligand_01.pdbqt
 27 29 0 0 0
SMALL
GASTEIGER

@<TRIPOS>ATOM
      1  N         20.0690  -22.0220   -8.5830 N.am    1  UNL1       -0.3230
      2  C         20.1720  -22.8630   -9.6710 C.2     1  UNL1        0.2570
      3  O         19.4770  -23.8330   -9.9370 O.2     1  UNL1       -0.2670
      4  H         20.6960  -21.2250   -8.5460 H       1  UNL1        0.1690
      5  C         19.1720  -22.1290   -7.4980 C.2     1  UNL1        0.0360
      6  C         19.5130  -21.4490   -6.3330 C.2     1  UNL1        0.0320
      7  C         18.6770  -21.5070   -5.2190 C.2     1  UNL1        0.0400
      8  C         17.4760  -22.2360   -5.2370 C.2     1  UNL1        0.0840
      9  O         16.8340  -22.1390   -4.0370 O.2     1  UNL1       -0.3480
     10  C         17.1230  -22.9480   -6.3920 C.2     1  UNL1        0.0670
     11  C         15.4320  -22.3550   -4.0200 C.3     1  UNL1        0.1950
     12  C         15.1410  -23.8280   -4.1960 C.3     1  UNL1        0.1490
     13  N         15.0710  -24.1730   -5.5910 N.am    1  UNL1       -0.3550
     14  C         15.9310  -23.8320   -6.5960 C.2     1  UNL1        0.2540
     15  H         14.3720  -24.8420   -5.8920 H       1  UNL1        0.1620
     16  O         15.6790  -24.2950   -7.7080 O.2     1  UNL1       -0.2680
     17  C         17.9890  -22.8710   -7.5140 C.2     1  UNL1        0.0490
     18  C         21.2270  -22.4910  -10.6500 C.2     1  UNL1        0.0470
     19  C         20.7900  -21.8980  -11.8440 C.2     1  UNL1        0.0180
     20  C         21.7090  -21.5140  -12.8180 C.2     1  UNL1        0.0010
     21  C         23.0690  -21.7270  -12.6090 C.2     1  UNL1        0.0010
     22  C         23.5090  -22.3370  -11.4330 C.2     1  UNL1        0.0170
     23  C         22.5950  -22.7400  -10.4400 C.2     1  UNL1        0.0630
     24  C         23.0950  -23.4170   -9.1930 C.3     1  UNL1        0.4180
     25  F         24.3940  -23.8220   -9.2820 F       1  UNL1       -0.1660
     26  F         22.3880  -24.5220   -8.8480 F       1  UNL1       -0.1660
     27  F         23.0510  -22.5770   -8.1190 F       1  UNL1       -0.1660
@<TRIPOS>BOND
     1    20    21    2
     2    20    19    1
     3    21    22    1
     4    19    18    2
     5    22    23    2
     6    18    23    1
     7    18     2    1
     8    23    24    1
     9     3     2    2
    10     2     1   am
    11    25    24    1
    12    24    26    1
    13    24    27    1
    14     1     4    1
    15     1     5    1
    16    16    14    2
    17    17     5    2
    18    17    10    1
    19     5     6    1
    20    14    10    1
    21    14    13   am
    22    10     8    2
    23     6     7    2
    24    15    13    1
    25    13    12    1
    26     8     7    1
    27     8     9    1
    28    12    11    1
    29     9    11    1
