@<TRIPOS>MOLECULE
23816_out_ligand_01.pdbqt
 27 29 0 0 0
SMALL
GASTEIGER

@<TRIPOS>ATOM
      1  C         20.3570  -22.3480   -7.8980 C.2     1  UNL1        0.2560
      2  O         21.4370  -22.0070   -7.4330 O.2     1  UNL1       -0.2670
      3  N         20.0620  -22.5430   -9.2360 N.am    1  UNL1       -0.3230
      4  H         19.1660  -22.9620   -9.4530 H       1  UNL1        0.1690
      5  C         20.9130  -22.3110  -10.3380 C.2     1  UNL1        0.0360
      6  C         20.3660  -21.5670  -11.4160 C.2     1  UNL1        0.0300
      7  C         21.1180  -21.2720  -12.5600 C.2     1  UNL1        0.0200
      8  C         22.4150  -21.7340  -12.5920 C.2     1  UNL1        0.0480
      9  C         22.9600  -22.4550  -11.5450 C.2     1  UNL1        0.0500
     10  C         23.4470  -21.5960  -13.6190 C.2     1  UNL1        0.2590
     11  C         22.2370  -22.7600  -10.4050 C.2     1  UNL1        0.0470
     12  C         24.3410  -22.7760  -11.9090 C.2     1  UNL1        0.2590
     13  O         25.1300  -23.3970  -11.2280 O.2     1  UNL1       -0.2670
     14  N         24.5480  -22.2380  -13.1420 N.am    1  UNL1       -0.2890
     15  H         25.4210  -22.3040  -13.6410 H       1  UNL1        0.1720
     16  O         23.3120  -21.0160  -14.6760 O.2     1  UNL1       -0.2670
     17  C         19.2380  -22.6350   -6.9510 C.2     1  UNL1        0.0320
     18  C         18.4390  -23.7820   -7.0700 C.2     1  UNL1        0.0180
     19  C         17.3970  -24.0060   -6.1660 C.2     1  UNL1        0.0240
     20  C         17.1560  -23.0800   -5.1450 C.2     1  UNL1        0.0590
     21  C         17.9210  -21.9160   -5.0410 C.2     1  UNL1        0.0240
     22  C         18.9630  -21.6980   -5.9450 C.2     1  UNL1        0.0180
     23  S         15.8040  -23.3550   -4.0210 S.O2    1  UNL1        0.1750
     24  O         15.9630  -24.6810   -3.4550 O.2     1  UNL1       -0.2230
     25  O         15.7360  -22.1890   -3.1600 O.2     1  UNL1       -0.2230
     26  C         14.3540  -23.3510   -5.0540 C.3     1  UNL1        0.1410
     27  C         14.0190  -21.9890   -5.6270 C.3     1  UNL1        0.0210
@<TRIPOS>BOND
     1    16    10    2
     2    15    14    1
     3    10    14   am
     4    10     8    1
     5    14    12   am
     6     8     7    2
     7     8     9    1
     8     7     6    1
     9    12     9    1
    10    12    13    2
    11     9    11    2
    12     6     5    2
    13    11     5    1
    14     5     3    1
    15     4     3    1
    16     3     1   am
    17     1     2    2
    18     1    17    1
    19    18    17    2
    20    18    19    1
    21    17    22    1
    22    19    20    2
    23    22    21    2
    24    27    26    1
    25    20    21    1
    26    20    23    1
    27    26    23    1
    28    23    24    2
    29    23    25    2
