@<TRIPOS>MOLECULE
23829_out_ligand_01.pdbqt
 29 32 0 0 0
SMALL
GASTEIGER

@<TRIPOS>ATOM
      1  C         20.4070  -21.9660  -10.5820 C.2     1  UNL1        0.0320
      2  C         19.3490  -21.6460  -11.4440 C.2     1  UNL1        0.0180
      3  C         18.0270  -21.8230  -11.0210 C.2     1  UNL1        0.0190
      4  C         17.7580  -22.2980   -9.7320 C.2     1  UNL1        0.0450
      5  C         18.8120  -22.5930   -8.8580 C.2     1  UNL1       -0.0380
      6  C         20.1360  -22.4310   -9.2880 C.2     1  UNL1        0.0250
      7  C         18.4930  -23.1160   -7.4870 C.3     1  UNL1        0.0770
      8  C         17.1710  -22.4930   -7.0390 C.3     1  UNL1        0.1690
      9  O         16.1320  -22.7730   -8.0000 O.3     1  UNL1       -0.3070
     10  C         16.3470  -22.5160   -9.3140 C.2     1  UNL1        0.2940
     11  O         15.4360  -22.4890  -10.1320 O.2     1  UNL1       -0.2590
     12  C         21.8300  -21.7930  -10.9900 C.2     1  UNL1        0.2560
     13  N         22.0980  -22.0980  -12.3110 N.am    1  UNL1       -0.3230
     14  H         21.3480  -22.5060  -12.8520 H       1  UNL1        0.1690
     15  O         22.6310  -21.4380  -10.1330 O.2     1  UNL1       -0.2670
     16  C         23.3350  -21.9900  -12.9820 C.2     1  UNL1        0.0350
     17  C         23.4170  -21.0660  -14.0260 C.2     1  UNL1        0.0300
     18  C         24.6070  -20.8950  -14.7360 C.2     1  UNL1        0.0090
     19  C         25.7460  -21.6460  -14.4170 C.2     1  UNL1       -0.0560
     20  C         27.0130  -21.4380  -15.2020 C.3     1  UNL1        0.0490
     21  C         25.6760  -22.5770  -13.3640 C.2     1  UNL1       -0.0540
     22  C         24.4700  -22.7370  -12.6570 C.2     1  UNL1        0.0370
     23  C         26.8690  -23.4090  -12.9730 C.3     1  UNL1        0.0490
     24  C         16.7630  -23.0220   -5.6780 C.2     1  UNL1       -0.0290
     25  C         17.6550  -23.0240   -4.5940 C.2     1  UNL1        0.0100
     26  C         17.2510  -23.4880   -3.3400 C.2     1  UNL1        0.0010
     27  C         15.9490  -23.9490   -3.1530 C.2     1  UNL1        0.0000
     28  C         15.0510  -23.9480   -4.2180 C.2     1  UNL1        0.0010
     29  C         15.4540  -23.4860   -5.4720 C.2     1  UNL1        0.0100
@<TRIPOS>BOND
     1    20    19    1
     2    18    19    2
     3    18    17    1
     4    19    21    1
     5    17    16    2
     6    21    23    1
     7    21    22    2
     8    16    22    1
     9    16    13    1
    10    14    13    1
    11    13    12   am
    12     2     3    1
    13     2     1    2
    14     3     4    2
    15    12     1    1
    16    12    15    2
    17     1     6    1
    18    11    10    2
    19     4    10    1
    20     4     5    1
    21    10     9    1
    22     6     5    2
    23     5     7    1
    24     9     8    1
    25     7     8    1
    26     8    24    1
    27    24    29    2
    28    24    25    1
    29    29    28    1
    30    25    26    2
    31    28    27    2
    32    26    27    1
