@<TRIPOS>MOLECULE
23845_out_ligand_01.pdbqt
 30 33 0 0 0
SMALL
GASTEIGER

@<TRIPOS>ATOM
      1  C         19.7510  -23.5800   -7.7740 C.2     1  UNL1        0.0320
      2  C         20.3050  -24.6510   -8.4810 C.2     1  UNL1        0.0170
      3  C         21.5610  -24.5230   -9.0760 C.2     1  UNL1        0.0090
      4  C         22.2830  -23.3250   -8.9630 C.2     1  UNL1       -0.0480
      5  C         21.7360  -22.2680   -8.2190 C.2     1  UNL1        0.0090
      6  C         20.4760  -22.3910   -7.6280 C.2     1  UNL1        0.0170
      7  C         23.6280  -23.1810   -9.6320 C.3     1  UNL1        0.1210
      8  S         23.9700  -21.5140  -10.2790 S.3     1  UNL1       -0.0850
      9  C         23.5750  -21.7040  -11.9570 C.ar    1  UNL1        0.2030
     10  N         24.4880  -21.8800  -12.8870 N.ar    1  UNL1       -0.1350
     11  N         23.8400  -21.7580  -14.0830 N.ar    1  UNL1        0.0190
     12  N         22.5520  -21.5140  -13.9040 N.ar    1  UNL1        0.0030
     13  N         22.3340  -21.5540  -12.5610 N.ar    1  UNL1       -0.2170
     14  C         21.0120  -21.4470  -12.0500 C.2     1  UNL1        0.0570
     15  C         20.3590  -20.2150  -11.9110 C.2     1  UNL1        0.0310
     16  C         19.0550  -20.1610  -11.4090 C.2     1  UNL1        0.0020
     17  C         18.3960  -21.3300  -11.0330 C.2     1  UNL1        0.0000
     18  C         19.0440  -22.5570  -11.1450 C.2     1  UNL1        0.0020
     19  C         20.3480  -22.6180  -11.6420 C.2     1  UNL1        0.0310
     20  C         18.4030  -23.7430   -7.1630 C.2     1  UNL1        0.2560
     21  N         17.8710  -22.5770   -6.6430 N.am    1  UNL1       -0.3220
     22  H         18.3740  -21.7290   -6.8570 H       1  UNL1        0.1690
     23  O         17.8830  -24.8500   -7.2000 O.2     1  UNL1       -0.2670
     24  C         16.6550  -22.4170   -5.9360 C.2     1  UNL1        0.0410
     25  C         15.4280  -22.2530   -6.5870 C.2     1  UNL1        0.0300
     26  C         14.2420  -22.1070   -5.8640 C.2     1  UNL1        0.0020
     27  C         14.2660  -22.1240   -4.4760 C.2     1  UNL1        0.0010
     28  C         15.4770  -22.2900   -3.8090 C.2     1  UNL1        0.0090
     29  C         16.6800  -22.4420   -4.5240 C.2     1  UNL1       -0.0350
     30  C         17.9540  -22.6120   -3.7410 C.3     1  UNL1        0.0500
@<TRIPOS>BOND
     1    11    12   ar
     2    11    10   ar
     3    12    13   ar
     4    10     9   ar
     5    13    14    1
     6    13     9   ar
     7    14    15    2
     8    14    19    1
     9     9     8    1
    10    15    16    1
    11    19    18    2
    12    16    17    2
    13    18    17    1
    14     8     7    1
    15     7     4    1
    16     3     4    2
    17     3     2    1
    18     4     5    1
    19     2     1    2
    20     5     6    2
    21     1     6    1
    22     1    20    1
    23    23    20    2
    24    20    21   am
    25    22    21    1
    26    21    24    1
    27    25    24    2
    28    25    26    1
    29    24    29    1
    30    26    27    2
    31    29    28    2
    32    29    30    1
    33    27    28    1
