@<TRIPOS>MOLECULE
2391_out_ligand_01.pdbqt
 30 34 0 0 0
SMALL
GASTEIGER

@<TRIPOS>ATOM
      1  C         17.8190  -22.8020   -9.2410 C.2     1  UNL1        0.0320
      2  C         18.9270  -23.5760   -8.8930 C.2     1  UNL1        0.0180
      3  C         20.1200  -23.4340   -9.6070 C.2     1  UNL1        0.0130
      4  C         20.2250  -22.5130  -10.6660 C.2     1  UNL1       -0.0260
      5  C         19.1000  -21.7310  -10.9830 C.2     1  UNL1        0.0130
      6  C         17.9040  -21.8660  -10.2720 C.2     1  UNL1        0.0180
      7  C         21.4840  -22.3650  -11.4160 C.2     1  UNL1       -0.0240
      8  C         22.6580  -23.0150  -10.9880 C.2     1  UNL1        0.0140
      9  C         23.8750  -22.9020  -11.6750 C.2     1  UNL1        0.0330
     10  C         23.8720  -22.1040  -12.8180 C.ar    1  UNL1        0.0620
     11  N         24.8490  -21.7750  -13.7190 N.ar    1  UNL1       -0.3410
     12  C         22.7410  -21.4440  -13.2820 C.ar    1  UNL1        0.0860
     13  C         24.3010  -20.9430  -14.6650 C.ar    1  UNL1        0.1280
     14  H         25.8050  -22.1020  -13.7140 H       1  UNL1        0.1670
     15  N         23.0210  -20.7380  -14.4280 N.ar    1  UNL1       -0.2310
     16  C         21.5340  -21.5700  -12.5790 C.2     1  UNL1        0.0460
     17  C         25.1000  -20.4140  -15.7980 C.3     1  UNL1        0.2420
     18  O         24.2390  -20.3610  -16.9290 O.3     1  UNL1       -0.3930
     19  H         24.7940  -20.0350  -17.6630 H       1  UNL1        0.2090
     20  C         16.5550  -22.9250   -8.4880 C.2     1  UNL1        0.2530
     21  O         15.5940  -23.4460   -9.0450 O.2     1  UNL1       -0.2670
     22  N         16.5320  -22.4640   -7.1870 N.am    1  UNL1       -0.3470
     23  C         15.3360  -22.6110   -6.3670 C.3     1  UNL1        0.1310
     24  C         17.6740  -22.0250   -6.3850 C.3     1  UNL1        0.1310
     25  C         15.8520  -22.5430   -4.9270 C.3     1  UNL1        0.0130
     26  C         16.2560  -23.9440   -4.4290 C.3     1  UNL1        0.0330
     27  C         17.0420  -21.5790   -5.0640 C.3     1  UNL1        0.0130
     28  C         17.3440  -23.9360   -3.4010 C.2     1  UNL1       -0.0300
     29  C         18.1210  -22.8730   -3.1530 C.2     1  UNL1       -0.0300
     30  C         17.9930  -21.5650   -3.8700 C.3     1  UNL1        0.0330
@<TRIPOS>BOND
     1    19    18    1
     2    18    17    1
     3    17    13    1
     4    13    15   ar
     5    13    11   ar
     6    15    12   ar
     7    11    14    1
     8    11    10   ar
     9    12    10   ar
    10    12    16    1
    11    10     9    1
    12    16     7    2
    13     9     8    2
    14     7     8    1
    15     7     4    1
    16     5     4    2
    17     5     6    1
    18     4     3    1
    19     6     1    2
    20     3     2    2
    21     1     2    1
    22     1    20    1
    23    21    20    2
    24    20    22   am
    25    22    24    1
    26    22    23    1
    27    24    27    1
    28    23    25    1
    29    27    25    1
    30    27    30    1
    31    25    26    1
    32    26    28    1
    33    30    29    1
    34    28    29    2
