@<TRIPOS>MOLECULE
23927_out_ligand_01.pdbqt
 33 36 0 0 0
SMALL
GASTEIGER

@<TRIPOS>ATOM
      1  C         20.9800  -22.4210  -10.7860 C.2     1  UNL1        0.0340
      2  C         20.3900  -21.7930  -11.8890 C.2     1  UNL1        0.0170
      3  C         19.0650  -21.3690  -11.8100 C.2     1  UNL1        0.0030
      4  C         18.3260  -21.5750  -10.6400 C.2     1  UNL1        0.0290
      5  C         18.8980  -22.2170   -9.5410 C.2     1  UNL1        0.0350
      6  C         20.2290  -22.6440   -9.6240 C.2     1  UNL1        0.0460
      7  N         18.2130  -22.4780   -8.3370 N.am    1  UNL1       -0.3230
      8  C         16.8550  -22.6680   -8.1670 C.2     1  UNL1        0.2570
      9  O         15.9760  -22.5810   -9.0140 O.2     1  UNL1       -0.2670
     10  H         18.7830  -22.5200   -7.4980 H       1  UNL1        0.1690
     11  C         16.4600  -22.9430   -6.7630 C.2     1  UNL1        0.0430
     12  C         15.3480  -23.7790   -6.5900 C.2     1  UNL1        0.0180
     13  C         14.8710  -24.0410   -5.3110 C.2     1  UNL1        0.0020
     14  C         15.5060  -23.4720   -4.2070 C.2     1  UNL1        0.0120
     15  C         16.6360  -22.6510   -4.3600 C.2     1  UNL1       -0.0250
     16  C         17.2680  -22.1030   -3.2320 C.2     1  UNL1        0.0120
     17  C         17.1460  -22.3810   -5.6540 C.2     1  UNL1       -0.0100
     18  C         18.4050  -21.3060   -3.3590 C.2     1  UNL1        0.0010
     19  C         18.9330  -21.0530   -4.6190 C.2     1  UNL1        0.0010
     20  C         18.3160  -21.5870   -5.7510 C.2     1  UNL1        0.0130
     21  C         22.3910  -22.8970  -10.8160 C.2     1  UNL1        0.2560
     22  O         22.7780  -23.6150   -9.9030 O.2     1  UNL1       -0.2670
     23  N         23.1460  -22.4290  -11.8790 N.am    1  UNL1       -0.3230
     24  H         22.7130  -21.7300  -12.4700 H       1  UNL1        0.1690
     25  C         24.4890  -22.7440  -12.1770 C.2     1  UNL1        0.0370
     26  C         25.5860  -22.2030  -11.5010 C.2     1  UNL1        0.0290
     27  C         26.8940  -22.5660  -11.8460 C.2     1  UNL1        0.0050
     28  C         27.1210  -23.4780  -12.8730 C.2     1  UNL1        0.0360
     29  C         26.0270  -24.0260  -13.5500 C.2     1  UNL1        0.1050
     30  C         24.7140  -23.6650  -13.2070 C.2     1  UNL1        0.0650
     31  N         26.2510  -24.9920  -14.6320 N.pl3   1  UNL1       -0.1160
     32  O         25.5550  -24.8840  -15.6520 O.2     1  UNL1       -0.5320
     33  O         27.1210  -25.8580  -14.4630 O.2     1  UNL1       -0.5320
@<TRIPOS>BOND
     1    32    31    2
     2    31    33    2
     3    31    29    1
     4    29    30    1
     5    29    28    2
     6    30    25    2
     7    28    27    1
     8    24    23    1
     9    25    23    1
    10    25    26    1
    11     2     3    1
    12     2     1    2
    13    23    21   am
    14    27    26    2
    15     3     4    2
    16    21     1    1
    17    21    22    2
    18     1     6    1
    19     4     5    1
    20     6     5    2
    21     5     7    1
    22     9     8    2
    23     7     8   am
    24     7    10    1
    25     8    11    1
    26    11    12    2
    27    11    17    1
    28    12    13    1
    29    20    17    1
    30    20    19    2
    31    17    15    2
    32    13    14    2
    33    19    18    1
    34    15    14    1
    35    15    16    1
    36    18    16    2
