@<TRIPOS>MOLECULE
2392_out_ligand_01.pdbqt
 36 39 0 0 0
SMALL
GASTEIGER

@<TRIPOS>ATOM
      1  C         19.3300  -22.0170  -10.6610 C.2     1  UNL1        0.1040
      2  C         18.8560  -22.7580   -9.6440 C.2     1  UNL1        0.1130
      3  N         19.6240  -23.5890   -8.8380 N.pl3   1  UNL1       -0.3640
      4  C         20.9870  -23.6660   -9.1000 C.2     1  UNL1        0.1110
      5  C         21.6220  -22.9910  -10.0720 C.2     1  UNL1        0.0980
      6  C         20.7970  -22.0780  -10.9250 C.2     1  UNL1        0.2070
      7  O         21.3410  -21.3990  -11.7950 O.2     1  UNL1       -0.2860
      8  C         23.0910  -23.1970  -10.2250 C.2     1  UNL1        0.2570
      9  O         23.8190  -23.4010   -9.2550 O.2     1  UNL1       -0.2670
     10  N         23.5630  -23.1440  -11.5100 N.am    1  UNL1       -0.3520
     11  H         22.9130  -22.8790  -12.2530 H       1  UNL1        0.1630
     12  C         24.9650  -23.2200  -11.8300 C.3     1  UNL1        0.1610
     13  C         25.4880  -21.8790  -12.2820 C.2     1  UNL1       -0.0380
     14  C         26.2980  -21.1010  -11.4120 C.2     1  UNL1        0.0110
     15  C         26.8150  -19.8610  -11.8080 C.2     1  UNL1        0.0320
     16  C         26.5080  -19.4420  -13.0790 C.ar    1  UNL1        0.0630
     17  N         26.8730  -18.2760  -13.7430 N.ar    1  UNL1       -0.3070
     18  C         25.7230  -20.2010  -13.9420 C.ar    1  UNL1        0.0630
     19  C         26.3160  -18.2980  -15.0300 C.ar    1  UNL1        0.3250
     20  H         27.4290  -17.5170  -13.3860 H       1  UNL1        0.1700
     21  O         26.4280  -17.4390  -15.8840 O.2     1  UNL1       -0.2470
     22  N         25.6050  -19.5020  -15.1400 N.ar    1  UNL1       -0.3060
     23  H         25.1070  -19.7900  -15.9650 H       1  UNL1        0.1700
     24  C         25.2030  -21.4200  -13.5820 C.2     1  UNL1        0.0400
     25  C         19.0200  -24.3450   -7.7210 C.3     1  UNL1        0.1320
     26  C         17.7550  -23.6440   -7.2150 C.3     1  UNL1        0.0580
     27  C         18.0210  -22.8590   -5.9540 C.2     1  UNL1       -0.0570
     28  C         17.5360  -23.3130   -4.7220 C.2     1  UNL1        0.0070
     29  C         17.7610  -22.5750   -3.5590 C.2     1  UNL1        0.0010
     30  C         18.4700  -21.3770   -3.6180 C.2     1  UNL1        0.0000
     31  C         18.9520  -20.9150   -4.8400 C.2     1  UNL1        0.0010
     32  C         18.7290  -21.6520   -6.0050 C.2     1  UNL1        0.0070
     33  C         18.3540  -21.2170  -11.4180 C.2     1  UNL1        0.1810
     34  O         17.1400  -21.2930  -11.3130 O.2     1  UNL1       -0.6460
     35  O         18.9010  -20.3780  -12.3070 O.3     1  UNL1       -0.7730
     36  H         19.8480  -20.6200  -12.3390 H       1  UNL1        0.1670
@<TRIPOS>BOND
     1    23    22    1
     2    21    19    2
     3    22    19   ar
     4    22    18   ar
     5    19    17   ar
     6    18    24    1
     7    18    16   ar
     8    17    20    1
     9    17    16   ar
    10    24    13    2
    11    16    15    1
    12    36    35    1
    13    35    33    1
    14    13    12    1
    15    13    14    1
    16    11    10    1
    17    12    10    1
    18    15    14    2
    19     7     6    2
    20    10     8   am
    21    33    34    2
    22    33     1    1
    23     6     1    1
    24     6     5    1
    25     1     2    2
    26     8     5    1
    27     8     9    2
    28     5     4    2
    29     2     3    1
    30     4     3    1
    31     3    25    1
    32    25    26    1
    33    26    27    1
    34    32    27    2
    35    32    31    1
    36    27    28    1
    37    31    30    2
    38    28    29    2
    39    30    29    1
