@<TRIPOS>MOLECULE
23933_out_ligand_01.pdbqt
 30 33 0 0 0
SMALL
GASTEIGER

@<TRIPOS>ATOM
      1  C         20.0360  -23.3660   -7.8080 C.2     1  UNL1        0.0320
      2  C         20.7480  -22.2040   -7.4970 C.2     1  UNL1        0.0190
      3  C         22.0180  -21.9840   -8.0430 C.2     1  UNL1        0.0300
      4  C         22.5870  -22.9170   -8.9130 C.2     1  UNL1        0.0340
      5  C         21.8580  -24.0690   -9.2400 C.2     1  UNL1        0.0300
      6  C         20.5900  -24.2960   -8.6940 C.2     1  UNL1        0.0190
      7  N         23.8540  -22.7720   -9.5100 N.am    1  UNL1       -0.3250
      8  C         24.1510  -22.2660  -10.7700 C.2     1  UNL1        0.2550
      9  O         23.3220  -21.8330  -11.5700 O.2     1  UNL1       -0.2700
     10  H         24.6460  -23.0220   -8.9290 H       1  UNL1        0.1690
     11  C         25.6620  -22.3080  -11.1500 C.3     1  UNL1        0.2470
     12  O         26.3350  -21.1010  -10.7680 O.3     1  UNL1       -0.3710
     13  C         26.2350  -20.0630  -11.7390 C.3     1  UNL1        0.1730
     14  C         26.9770  -20.4600  -13.0080 C.3     1  UNL1        0.0650
     15  C         26.5120  -21.8060  -13.4990 C.2     1  UNL1       -0.0470
     16  C         26.7250  -22.1860  -14.8300 C.2     1  UNL1        0.0080
     17  C         25.9250  -22.7140  -12.5980 C.2     1  UNL1       -0.0140
     18  C         26.3430  -23.4530  -15.2700 C.2     1  UNL1        0.0010
     19  C         25.7600  -24.3530  -14.3810 C.2     1  UNL1        0.0010
     20  C         25.5550  -23.9900  -13.0510 C.2     1  UNL1        0.0110
     21  C         18.6880  -23.5630   -7.2060 C.2     1  UNL1        0.2560
     22  O         18.1090  -24.6230   -7.4110 O.2     1  UNL1       -0.2670
     23  N         18.2110  -22.4820   -6.4880 N.am    1  UNL1       -0.3220
     24  H         18.7540  -21.6290   -6.5250 H       1  UNL1        0.1690
     25  C         16.9890  -22.4040   -5.7820 C.2     1  UNL1        0.0520
     26  C         15.7320  -22.3840   -6.3790 C.2     1  UNL1        0.0320
     27  C         14.5870  -22.3130   -5.5850 C.2     1  UNL1        0.0210
     28  C         14.7360  -22.2670   -4.2090 C.2     1  UNL1        0.1160
     29  N         15.9330  -22.2880   -3.5870 N.2     1  UNL1       -0.2710
     30  C         17.0240  -22.3550   -4.3880 C.2     1  UNL1        0.1450
@<TRIPOS>BOND
     1    18    16    1
     2    18    19    2
     3    16    15    2
     4    19    20    1
     5    15    14    1
     6    15    17    1
     7    20    17    2
     8    14    13    1
     9    17    11    1
    10    13    12    1
    11     9     8    2
    12    11     8    1
    13    11    12    1
    14     8     7   am
    15     7    10    1
    16     7     4    1
    17     5     4    2
    18     5     6    1
    19     4     3    1
    20     6     1    2
    21     3     2    2
    22     1     2    1
    23     1    21    1
    24    22    21    2
    25    21    23   am
    26    24    23    1
    27    23    25    1
    28    26    25    2
    29    26    27    1
    30    25    30    1
    31    27    28    2
    32    30    29    2
    33    28    29    1
