@<TRIPOS>MOLECULE
23967_out_ligand_01.pdbqt
 31 33 0 0 0
SMALL
GASTEIGER

@<TRIPOS>ATOM
      1  C         17.6990  -23.5790   -8.5770 C.2     1  UNL1        0.0860
      2  C         19.0720  -23.8510   -8.4400 C.2     1  UNL1        0.0420
      3  C         19.9900  -23.3340   -9.3560 C.2     1  UNL1        0.0330
      4  C         19.5390  -22.5380  -10.4100 C.2     1  UNL1        0.0170
      5  C         18.1730  -22.2760  -10.5560 C.2     1  UNL1        0.0090
      6  C         17.2310  -22.7870   -9.6450 C.2     1  UNL1       -0.0390
      7  C         15.7800  -22.4780   -9.8840 C.3     1  UNL1        0.0500
      8  S         16.6010  -24.3130   -7.3670 S.O2    1  UNL1        0.2630
      9  O         15.4320  -24.8140   -8.0580 O.2     1  UNL1       -0.2000
     10  O         17.3810  -25.1970   -6.5280 O.2     1  UNL1       -0.2000
     11  N         16.0830  -22.9870   -6.4600 N.pl3   1  UNL1       -0.2800
     12  H         15.4560  -22.3800   -6.9810 H       1  UNL1        0.1790
     13  C         16.9370  -22.4080   -5.4740 C.2     1  UNL1        0.0490
     14  C         16.6740  -22.6020   -4.1060 C.2     1  UNL1       -0.0350
     15  C         17.5030  -21.9720   -3.1640 C.2     1  UNL1        0.0090
     16  C         15.5180  -23.4260   -3.6150 C.3     1  UNL1        0.0500
     17  C         18.5820  -21.1850   -3.5690 C.2     1  UNL1        0.0070
     18  C         18.8710  -21.0300   -4.9260 C.2     1  UNL1       -0.0600
     19  C         20.0150  -20.1660   -5.3670 C.3     1  UNL1        0.0480
     20  C         18.0400  -21.6440   -5.8710 C.2     1  UNL1        0.0370
     21  C         21.4360  -23.6350   -9.1620 C.2     1  UNL1        0.2520
     22  O         21.7950  -24.7620   -8.8410 O.2     1  UNL1       -0.2680
     23  N         22.3080  -22.5940   -9.3960 N.am    1  UNL1       -0.3510
     24  H         21.9860  -21.8050   -9.9400 H       1  UNL1        0.1630
     25  C         23.7390  -22.8260   -9.4420 C.3     1  UNL1        0.1820
     26  C         24.3310  -22.3130  -10.7340 C.2     1  UNL1        0.0510
     27  C         23.9930  -22.9070  -11.9480 C.2     1  UNL1        0.0290
     28  C         24.5190  -22.3790  -13.1240 C.2     1  UNL1        0.0030
     29  C         25.3580  -21.2740  -13.0580 C.2     1  UNL1        0.0190
     30  C         25.6340  -20.7340  -11.8130 C.2     1  UNL1        0.1170
     31  N         25.1380  -21.2210  -10.6540 N.2     1  UNL1       -0.2640
@<TRIPOS>BOND
     1    28    29    2
     2    28    27    1
     3    29    30    1
     4    27    26    2
     5    30    31    2
     6    26    31    1
     7    26    25    1
     8     5     4    2
     9     5     6    1
    10     4     3    1
    11    24    23    1
    12     7     6    1
    13     6     1    2
    14    25    23    1
    15    23    21   am
    16     3    21    1
    17     3     2    2
    18    21    22    2
    19     1     2    1
    20     1     8    1
    21     9     8    2
    22     8    10    2
    23     8    11    1
    24    12    11    1
    25    11    13    1
    26    20    13    2
    27    20    18    1
    28    13    14    1
    29    19    18    1
    30    18    17    2
    31    14    16    1
    32    14    15    2
    33    17    15    1
