@<TRIPOS>MOLECULE
23969_out_ligand_01.pdbqt
 34 37 0 0 0
SMALL
GASTEIGER

@<TRIPOS>ATOM
      1  C         22.8930  -23.1920  -10.2060 C.2     1  UNL1        0.0340
      2  C         21.8990  -22.5080  -10.9220 C.2     1  UNL1        0.0310
      3  C         20.5660  -22.5380  -10.5030 C.2     1  UNL1        0.0270
      4  C         20.2220  -23.2640   -9.3610 C.2     1  UNL1        0.0750
      5  C         21.2020  -23.9310   -8.6270 C.2     1  UNL1        0.0270
      6  C         22.5340  -23.8990   -9.0540 C.2     1  UNL1        0.0310
      7  N         24.2070  -23.1260  -10.7130 N.am    1  UNL1       -0.3270
      8  C         25.0480  -22.0230  -10.7430 C.2     1  UNL1        0.2260
      9  O         24.7690  -20.8860  -10.3730 O.2     1  UNL1       -0.2730
     10  H         24.5740  -23.9930  -11.0860 H       1  UNL1        0.1690
     11  C         26.4300  -22.3450  -11.2980 C.3     1  UNL1        0.1440
     12  C         26.3440  -23.2420  -12.4850 C.2     1  UNL1       -0.0140
     13  C         25.6610  -23.0040  -13.7180 C.2     1  UNL1        0.0060
     14  C         24.8760  -21.9680  -14.2580 C.2     1  UNL1        0.0150
     15  C         25.8820  -24.1310  -14.5020 C.2     1  UNL1        0.0860
     16  C         24.3560  -22.1120  -15.5540 C.2     1  UNL1        0.0070
     17  C         24.6130  -23.2570  -16.3220 C.2     1  UNL1       -0.0590
     18  C         24.0130  -23.3940  -17.6930 C.3     1  UNL1        0.0480
     19  C         25.3830  -24.3030  -15.7920 C.2     1  UNL1        0.0440
     20  O         26.6470  -25.0320  -13.8290 O.2     1  UNL1       -0.3210
     21  C         26.9150  -24.4940  -12.6130 C.2     1  UNL1        0.1510
     22  S         18.5280  -23.2980   -8.8300 S.O2    1  UNL1        0.2480
     23  O         17.6590  -23.1400   -9.9770 O.2     1  UNL1       -0.2050
     24  O         18.3940  -24.4620   -7.9740 O.2     1  UNL1       -0.2050
     25  N         18.3950  -21.9790   -7.8270 N.pl3   1  UNL1       -0.1480
     26  H         19.2580  -21.4590   -7.7290 H       1  UNL1        0.1490
     27  C         17.7400  -22.1720   -6.6160 C.cat   1  UNL1        0.2160
     28  N         16.4450  -22.4830   -6.6260 N.2     1  UNL1       -0.2230
     29  C         15.8320  -22.5100   -5.4270 C.2     1  UNL1        0.0360
     30  C         14.3870  -22.9060   -5.4040 C.3     1  UNL1        0.0700
     31  C         16.4910  -22.1930   -4.2560 C.2     1  UNL1        0.0530
     32  C         17.8210  -21.8240   -4.3710 C.2     1  UNL1        0.0360
     33  C         18.6070  -21.4450   -3.1530 C.3     1  UNL1        0.0700
     34  N         18.4590  -21.7870   -5.5580 N.2     1  UNL1       -0.2230
@<TRIPOS>BOND
     1    18    17    1
     2    17    19    2
     3    17    16    1
     4    19    15    1
     5    16    14    2
     6    15    20    1
     7    15    13    2
     8    14    13    1
     9    20    21    1
    10    13    12    1
    11    21    12    2
    12    12    11    1
    13    11     8    1
    14    10     7    1
    15     2     3    1
    16     2     1    2
    17     8     7   am
    18     8     9    2
    19     7     1    1
    20     3     4    2
    21     1     6    1
    22    23    22    2
    23     4    22    1
    24     4     5    1
    25     6     5    2
    26    22    24    2
    27    22    25    1
    28    25    26    1
    29    25    27    1
    30    28    27    2
    31    28    29    1
    32    27    34    1
    33    34    32    2
    34    29    30    1
    35    29    31    2
    36    32    31    1
    37    32    33    1
