@<TRIPOS>MOLECULE
23973_out_ligand_01.pdbqt
 34 37 0 0 0
SMALL
GASTEIGER

@<TRIPOS>ATOM
      1  C         20.9220  -22.8510  -10.1520 C.2     1  UNL1        0.0320
      2  C         20.4580  -21.9590  -11.1230 C.2     1  UNL1        0.0190
      3  C         21.3130  -21.5350  -12.1470 C.2     1  UNL1        0.0300
      4  C         22.6380  -21.9910  -12.2110 C.2     1  UNL1        0.0350
      5  C         23.0970  -22.8700  -11.2280 C.2     1  UNL1        0.0300
      6  C         22.2480  -23.2940  -10.2000 C.2     1  UNL1        0.0190
      7  C         20.0490  -23.3250   -9.0410 C.2     1  UNL1        0.2560
      8  N         19.0660  -22.4290   -8.6590 N.am    1  UNL1       -0.3230
      9  H         18.9540  -21.6020   -9.2300 H       1  UNL1        0.1690
     10  O         20.2420  -24.4450   -8.5880 O.2     1  UNL1       -0.2670
     11  C         18.1280  -22.5850   -7.6180 C.2     1  UNL1        0.0350
     12  C         18.5340  -22.2120   -6.3290 C.2     1  UNL1        0.0300
     13  C         17.6670  -22.3400   -5.2380 C.2     1  UNL1        0.0200
     14  C         16.3780  -22.8490   -5.4250 C.2     1  UNL1        0.0370
     15  C         15.9690  -23.2260   -6.7070 C.2     1  UNL1        0.0200
     16  C         16.8400  -23.0950   -7.7960 C.2     1  UNL1        0.0300
     17  C         15.4220  -23.0050   -4.3030 C.2     1  UNL1        0.1760
     18  O         14.7680  -22.1160   -3.7890 O.2     1  UNL1       -0.6460
     19  O         15.3240  -24.2780   -3.8740 O.3     1  UNL1       -0.7730
     20  H         15.0670  -24.1840   -2.9330 H       1  UNL1        0.1670
     21  N         23.4290  -21.5190  -13.2770 N.am    1  UNL1       -0.3230
     22  C         24.7470  -21.1020  -13.2250 C.2     1  UNL1        0.2570
     23  O         25.4720  -21.0250  -12.2430 O.2     1  UNL1       -0.2670
     24  H         22.9750  -21.4580  -14.1800 H       1  UNL1        0.1690
     25  C         25.2800  -20.6540  -14.5350 C.2     1  UNL1        0.0430
     26  C         25.9210  -19.4090  -14.5460 C.2     1  UNL1        0.0180
     27  C         26.3940  -18.8840  -15.7420 C.2     1  UNL1        0.0020
     28  C         26.2270  -19.6040  -16.9250 C.2     1  UNL1        0.0120
     29  C         25.6070  -20.8650  -16.9310 C.2     1  UNL1       -0.0250
     30  C         25.4660  -21.5790  -18.1320 C.2     1  UNL1        0.0120
     31  C         25.1290  -21.4230  -15.7190 C.2     1  UNL1       -0.0100
     32  C         24.8770  -22.8420  -18.1530 C.2     1  UNL1        0.0010
     33  C         24.4270  -23.4140  -16.9710 C.2     1  UNL1        0.0010
     34  C         24.5540  -22.7170  -15.7680 C.2     1  UNL1        0.0130
@<TRIPOS>BOND
     1    32    30    2
     2    32    33    1
     3    30    29    1
     4    33    34    2
     5    29    28    2
     6    29    31    1
     7    28    27    1
     8    34    31    1
     9    27    26    2
    10    31    25    2
    11    26    25    1
    12    25    22    1
    13    24    21    1
    14    21    22   am
    15    21     4    1
    16    22    23    2
    17     4     3    2
    18     4     5    1
    19     3     2    1
    20     5     6    2
    21     2     1    2
    22     6     1    1
    23     1     7    1
    24     9     8    1
    25     7     8   am
    26     7    10    2
    27     8    11    1
    28    16    11    2
    29    16    15    1
    30    11    12    1
    31    15    14    2
    32    12    13    2
    33    14    13    1
    34    14    17    1
    35    17    19    1
    36    17    18    2
    37    19    20    1
