@<TRIPOS>MOLECULE
23981_out_ligand_01.pdbqt
 35 38 0 0 0
SMALL
GASTEIGER

@<TRIPOS>ATOM
      1  C         24.1780  -21.5580  -11.8680 C.2     1  UNL1        0.0750
      2  C         23.2880  -21.3860  -12.9280 C.2     1  UNL1        0.0270
      3  C         21.9220  -21.6200  -12.7330 C.2     1  UNL1        0.0310
      4  C         21.4390  -22.0080  -11.4810 C.2     1  UNL1        0.0340
      5  C         22.3450  -22.1730  -10.4220 C.2     1  UNL1        0.0310
      6  C         23.7130  -21.9500  -10.6100 C.2     1  UNL1        0.0270
      7  N         20.0770  -22.2300  -11.2020 N.am    1  UNL1       -0.3250
      8  C         19.0240  -21.3420  -11.3490 C.2     1  UNL1        0.2460
      9  O         19.0900  -20.1890  -11.7700 O.2     1  UNL1       -0.2710
     10  H         19.8150  -23.1660  -10.9080 H       1  UNL1        0.1690
     11  C         17.6850  -21.9220  -10.8820 C.3     1  UNL1        0.2780
     12  O         17.7550  -23.0420  -10.0110 O.2     1  UNL1       -0.3420
     13  C         17.5370  -22.8390   -8.6740 C.2     1  UNL1        0.0700
     14  C         18.6900  -22.5830   -7.9350 C.2     1  UNL1        0.0370
     15  C         18.6170  -22.3600   -6.5570 C.2     1  UNL1        0.0150
     16  C         17.3820  -22.3870   -5.8970 C.2     1  UNL1       -0.0260
     17  C         17.2860  -22.1580   -4.5150 C.2     1  UNL1        0.0120
     18  C         16.2100  -22.6440   -6.6410 C.2     1  UNL1       -0.0230
     19  C         16.0440  -22.1750   -3.8750 C.2     1  UNL1        0.0010
     20  C         14.8890  -22.4260   -4.6070 C.2     1  UNL1        0.0010
     21  C         14.9720  -22.6630   -5.9800 C.2     1  UNL1        0.0120
     22  C         16.3020  -22.8730   -8.0270 C.2     1  UNL1        0.0490
     23  S         25.9010  -21.1860  -12.1080 S.O2    1  UNL1        0.2450
     24  O         26.5300  -21.1090  -10.8050 O.2     1  UNL1       -0.2060
     25  O         25.9730  -20.0860  -13.0480 O.2     1  UNL1       -0.2060
     26  N         26.4210  -22.5630  -12.9560 N.pl3   1  UNL1       -0.1810
     27  H         26.3130  -23.3700  -12.3410 H       1  UNL1        0.1460
     28  C         25.8800  -22.7530  -14.2670 C.2     1  UNL1        0.0230
     29  C         25.2530  -23.9600  -14.5780 C.2     1  UNL1        0.0250
     30  C         24.6940  -24.1460  -15.8420 C.2     1  UNL1        0.0090
     31  C         24.7340  -23.1210  -16.8020 C.2     1  UNL1       -0.0560
     32  C         24.1220  -23.3660  -18.1530 C.3     1  UNL1        0.0490
     33  C         25.3640  -21.8970  -16.4840 C.2     1  UNL1       -0.0540
     34  C         25.9310  -21.7240  -15.2080 C.2     1  UNL1        0.0310
     35  C         25.4320  -20.7690  -17.4790 C.3     1  UNL1        0.0490
@<TRIPOS>BOND
     1    32    31    1
     2    35    33    1
     3    31    33    2
     4    31    30    1
     5    33    34    1
     6    30    29    2
     7    34    28    2
     8    29    28    1
     9    28    26    1
    10    25    23    2
    11    26    27    1
    12    26    23    1
    13     2     3    1
    14     2     1    2
    15     3     4    2
    16    23     1    1
    17    23    24    2
    18     1     6    1
    19     9     8    2
    20     4     7    1
    21     4     5    1
    22     8     7   am
    23     8    11    1
    24     7    10    1
    25    11    12    1
    26     6     5    2
    27    12    13    1
    28    13    22    2
    29    13    14    1
    30    22    18    1
    31    14    15    2
    32    18    21    1
    33    18    16    2
    34    15    16    1
    35    21    20    2
    36    16    17    1
    37    20    19    1
    38    17    19    2
