@<TRIPOS>MOLECULE
23993_out_ligand_01.pdbqt
 32 37 0 0 0
SMALL
GASTEIGER

@<TRIPOS>ATOM
      1  C         19.4230  -22.5760   -8.3990 C.ar    1  UNL1        0.0750
      2  N         20.7580  -22.7920   -8.3270 N.ar    1  UNL1       -0.2390
      3  C         21.4600  -22.5150   -9.4480 C.ar    1  UNL1        0.1120
      4  S         23.1460  -22.7240   -9.4700 S.2     1  UNL1       -0.0640
      5  C         23.2650  -22.1910  -11.1010 C.ar    1  UNL1        0.0770
      6  C         24.4010  -22.0650  -11.9130 C.2     1  UNL1        0.1240
      7  N         24.2180  -21.6190  -13.1740 N.2     1  UNL1       -0.2290
      8  C         22.9770  -21.3220  -13.5850 C.2     1  UNL1        0.2350
      9  N         21.8450  -21.4160  -12.8850 N.2     1  UNL1       -0.2400
     10  C         22.0130  -21.8620  -11.6140 C.ar    1  UNL1        0.0920
     11  C         20.9600  -22.0510  -10.6570 C.ar    1  UNL1        0.0370
     12  C         19.5710  -21.8670  -10.7050 C.ar    1  UNL1       -0.0340
     13  C         18.8070  -22.1370   -9.5610 C.ar    1  UNL1       -0.0210
     14  C         17.3560  -21.8670   -9.8270 C.3     1  UNL1        0.0420
     15  C         17.3210  -21.8680  -11.3610 C.3     1  UNL1        0.0090
     16  C         18.6950  -21.3780  -11.8250 C.3     1  UNL1        0.0400
     17  N         25.6830  -22.3650  -11.4450 N.pl3   1  UNL1       -0.2740
     18  H         25.6520  -23.0900  -10.7330 H       1  UNL1        0.1290
     19  C         26.6980  -22.5660  -12.4780 C.3     1  UNL1        0.1240
     20  C         26.6590  -24.0320  -12.9690 C.3     1  UNL1        0.2870
     21  N         26.9130  -24.1830  -14.4130 N.3     1  UNL1        0.0930
     22  C         25.8480  -24.9290  -15.1180 C.3     1  UNL1        0.2980
     23  C         24.8890  -24.0330  -15.9200 C.3     1  UNL1        0.1980
     24  O         25.5530  -23.2400  -16.9140 O.3     1  UNL1       -0.3880
     25  C         26.9030  -22.9120  -16.5600 C.3     1  UNL1        0.1980
     26  C         27.1210  -22.8580  -15.0420 C.3     1  UNL1        0.2980
     27  C         18.6890  -22.8650   -7.1560 C.2     1  UNL1       -0.0070
     28  C         18.0240  -24.0930   -6.9910 C.2     1  UNL1        0.0140
     29  C         17.3190  -24.3840   -5.8210 C.2     1  UNL1        0.0010
     30  C         17.2730  -23.4520   -4.7870 C.2     1  UNL1        0.0000
     31  C         17.9360  -22.2350   -4.9220 C.2     1  UNL1        0.0010
     32  C         18.6410  -21.9470   -6.0940 C.2     1  UNL1        0.0140
@<TRIPOS>BOND
     1    24    25    1
     2    24    23    1
     3    25    26    1
     4    23    22    1
     5    22    21    1
     6    26    21    1
     7    21    20    1
     8     8     7    2
     9     8     9    1
    10     7     6    1
    11    20    19    1
    12     9    10    2
    13    19    17    1
    14     6    17    1
    15     6     5    2
    16    16    15    1
    17    16    12    1
    18    10     5   ar
    19    10    11   ar
    20    17    18    1
    21    15    14    1
    22     5     4   ar
    23    12    11   ar
    24    12    13   ar
    25    11     3   ar
    26    14    13    1
    27    13     1   ar
    28     4     3   ar
    29     3     2   ar
    30     1     2   ar
    31     1    27    1
    32    27    28    2
    33    27    32    1
    34    28    29    1
    35    32    31    2
    36    29    30    2
    37    31    30    1
