@<TRIPOS>MOLECULE
23995_out_ligand_01.pdbqt
 33 36 0 0 0
SMALL
GASTEIGER

@<TRIPOS>ATOM
      1  C         23.8890  -21.7630  -11.8730 C.2     1  UNL1        0.0800
      2  C         22.6130  -21.9580  -12.4040 C.2     1  UNL1        0.0270
      3  C         21.5250  -22.1500  -11.5460 C.2     1  UNL1        0.0310
      4  C         21.7040  -22.1390  -10.1600 C.2     1  UNL1        0.0350
      5  C         22.9910  -21.9280   -9.6410 C.2     1  UNL1        0.0310
      6  C         24.0830  -21.7360  -10.4920 C.2     1  UNL1        0.0270
      7  N         20.6640  -22.3230   -9.2310 N.am    1  UNL1       -0.3210
      8  C         20.3120  -23.4730   -8.5460 C.2     1  UNL1        0.2800
      9  O         20.8760  -24.5580   -8.6430 O.2     1  UNL1       -0.2650
     10  H         20.0860  -21.5160   -9.0200 H       1  UNL1        0.1690
     11  C         19.1690  -23.2680   -7.6680 C.ar    1  UNL1        0.1500
     12  O         18.0810  -24.0920   -7.8050 O.2     1  UNL1       -0.3040
     13  C         17.1590  -23.7060   -6.8850 C.ar    1  UNL1        0.0870
     14  C         15.9100  -24.2980   -6.7010 C.2     1  UNL1        0.0410
     15  C         17.6360  -22.6310   -6.1430 C.ar    1  UNL1        0.0090
     16  C         15.1040  -23.7510   -5.6980 C.2     1  UNL1        0.0450
     17  C         15.5520  -22.6740   -4.9370 C.2     1  UNL1        0.1170
     18  F         14.7530  -22.1750   -3.9840 F       1  UNL1       -0.2060
     19  C         16.8080  -22.0970   -5.1370 C.2     1  UNL1        0.0570
     20  C         18.9410  -22.3470   -6.6510 C.ar    1  UNL1       -0.0090
     21  C         19.8770  -21.2870   -6.1960 C.3     1  UNL1        0.0520
     22  S         25.2590  -21.4930  -12.9710 S.O2    1  UNL1        0.2760
     23  O         25.8980  -22.7590  -13.2600 O.2     1  UNL1       -0.2000
     24  O         26.0300  -20.4060  -12.3990 O.2     1  UNL1       -0.2000
     25  N         24.5560  -20.8800  -14.3430 N.pl3   1  UNL1       -0.1090
     26  H         24.4900  -19.8700  -14.3550 H       1  UNL1        0.1980
     27  C         24.9430  -21.4240  -15.5600 C.cat   1  UNL1        0.7360
     28  N         26.0330  -20.8470  -16.0730 N.2     1  UNL1       -0.0740
     29  C         26.3590  -21.2410  -17.3160 C.2     1  UNL1        0.1380
     30  C         25.6170  -22.1400  -18.0490 C.2     1  UNL1        0.0470
     31  C         24.4800  -22.6310  -17.4350 C.2     1  UNL1        0.0510
     32  C         23.5900  -23.5990  -18.1530 C.3     1  UNL1        0.0710
     33  N         24.1170  -22.2610  -16.1910 N.2     1  UNL1       -0.0670
@<TRIPOS>BOND
     1    32    31    1
     2    30    31    1
     3    30    29    2
     4    31    33    2
     5    29    28    1
     6    33    27    1
     7    28    27    2
     8    27    25    1
     9    26    25    1
    10    25    22    1
    11    23    22    2
    12    22    24    2
    13    22     1    1
    14     2     1    2
    15     2     3    1
    16     1     6    1
    17     3     4    2
    18     6     5    2
    19     4     5    1
    20     4     7    1
    21     7    10    1
    22     7     8   am
    23     9     8    2
    24     8    11    1
    25    12    11   ar
    26    12    13   ar
    27    11    20   ar
    28    13    14    2
    29    13    15   ar
    30    14    16    1
    31    20    21    1
    32    20    15   ar
    33    15    19    2
    34    16    17    2
    35    19    17    1
    36    17    18    1
