@<TRIPOS>MOLECULE
23992_out_ligand_01.pdbqt
 31 35 0 0 0
SMALL
GASTEIGER

@<TRIPOS>ATOM
      1  S         22.8850  -22.5910   -9.8000 S.O2    1  UNL1        0.2460
      2  O         23.6580  -23.4840   -8.9610 O.2     1  UNL1       -0.2060
      3  O         23.0950  -21.1600   -9.7940 O.2     1  UNL1       -0.2060
      4  C         21.1640  -22.8800   -9.4520 C.2     1  UNL1        0.0860
      5  C         20.8260  -23.7960   -8.4170 C.2     1  UNL1        0.0280
      6  C         19.4860  -24.0720   -8.0990 C.2     1  UNL1        0.0320
      7  C         18.5210  -23.4200   -8.8290 C.2     1  UNL1        0.0470
      8  N         17.1350  -23.4920   -8.7420 N.am    1  UNL1       -0.3220
      9  C         18.8590  -22.5350   -9.8200 C.2     1  UNL1        0.0180
     10  C         16.5710  -22.6460   -9.6860 C.2     1  UNL1        0.2570
     11  H         16.5960  -24.0560   -8.1030 H       1  UNL1        0.1690
     12  O         15.3950  -22.4460   -9.9080 O.2     1  UNL1       -0.2670
     13  C         17.7170  -22.0240  -10.3840 C.2     1  UNL1        0.0450
     14  C         17.7800  -21.1040  -11.4090 C.2     1  UNL1        0.0180
     15  C         19.0550  -20.7150  -11.8450 C.2     1  UNL1        0.0020
     16  C         20.2260  -21.2500  -11.2540 C.2     1  UNL1        0.0140
     17  C         20.1570  -22.2020  -10.1970 C.2     1  UNL1        0.0000
     18  N         23.0060  -23.2070  -11.3880 N.pl3   1  UNL1       -0.1810
     19  H         23.4720  -24.1150  -11.3290 H       1  UNL1        0.1460
     20  C         23.7030  -22.3400  -12.2930 C.2     1  UNL1        0.0230
     21  C         23.0100  -21.6630  -13.2900 C.2     1  UNL1        0.0260
     22  C         23.7070  -20.8490  -14.1920 C.2     1  UNL1        0.0310
     23  C         25.1040  -20.6990  -14.1380 C.2     1  UNL1        0.0300
     24  C         25.7700  -21.4130  -13.1280 C.2     1  UNL1        0.0310
     25  C         25.0850  -22.2310  -12.2210 C.2     1  UNL1        0.0260
     26  N         25.7840  -19.8850  -15.0340 N.pl3   1  UNL1       -0.3810
     27  C         25.6790  -20.1030  -16.4810 C.3     1  UNL1        0.1230
     28  C         26.9180  -19.5620  -17.1910 C.3     1  UNL1        0.0200
     29  C         27.1210  -18.0690  -16.9410 C.3     1  UNL1        0.0030
     30  C         26.5160  -17.6050  -15.6200 C.3     1  UNL1        0.0200
     31  C         26.5210  -18.7070  -14.5620 C.3     1  UNL1        0.1230
@<TRIPOS>BOND
     1    28    29    1
     2    28    27    1
     3    29    30    1
     4    27    26    1
     5    30    31    1
     6    26    31    1
     7    26    23    1
     8    22    23    2
     9    22    21    1
    10    23    24    1
    11    21    20    2
    12    24    25    2
    13    20    25    1
    14    20    18    1
    15    15    14    1
    16    15    16    2
    17    14    13    2
    18    18    19    1
    19    18     1    1
    20    16    17    1
    21    13     9    1
    22    13    10    1
    23    17     9    1
    24    17     4    2
    25    12    10    2
    26     9     7    2
    27     1     3    2
    28     1     4    1
    29     1     2    2
    30    10     8   am
    31     4     5    1
    32     7     8    1
    33     7     6    1
    34     8    11    1
    35     5     6    2
