@<TRIPOS>MOLECULE
23_out_ligand_01.pdbqt
 28 31 0 0 0
SMALL
GASTEIGER

@<TRIPOS>ATOM
      1  O         17.2880  -22.5680  -10.3210 O.2     1  UNL1       -0.2670
      2  C         17.9700  -22.8600   -9.3410 C.2     1  UNL1        0.2580
      3  N         19.3590  -23.0770   -9.3250 N.am    1  UNL1       -0.3130
      4  C         19.9820  -23.8820   -8.2640 C.3     1  UNL1        0.1330
      5  C         21.0800  -24.7880   -8.7890 C.3     1  UNL1        0.0250
      6  C         22.1650  -23.9390   -9.4180 C.3     1  UNL1        0.0420
      7  C         21.5820  -22.9660  -10.4060 C.2     1  UNL1       -0.0300
      8  C         22.4460  -22.4290  -11.3820 C.2     1  UNL1        0.0190
      9  C         21.9980  -21.5050  -12.3370 C.2     1  UNL1       -0.0270
     10  C         20.6670  -21.0950  -12.2650 C.2     1  UNL1        0.0120
     11  C         19.8030  -21.6160  -11.2900 C.2     1  UNL1        0.0310
     12  C         20.2330  -22.5610  -10.3510 C.2     1  UNL1        0.0430
     13  C         17.2220  -23.0060   -8.0680 C.2     1  UNL1        0.0350
     14  C         16.1350  -23.8890   -8.0160 C.2     1  UNL1        0.0170
     15  C         15.4030  -24.0230   -6.8340 C.2     1  UNL1        0.0040
     16  C         15.7500  -23.2650   -5.7150 C.2     1  UNL1        0.0420
     17  C         16.8170  -22.3720   -5.7890 C.2     1  UNL1        0.1170
     18  F         17.1350  -21.6380   -4.7150 F       1  UNL1       -0.2060
     19  C         17.5540  -22.2270   -6.9570 C.2     1  UNL1        0.0590
     20  C         22.9830  -20.9670  -13.3580 C.3     1  UNL1        0.1790
     21  O         22.2420  -20.1710  -14.2850 O.3     1  UNL1       -0.3890
     22  H         22.8580  -20.0630  -15.0360 H       1  UNL1        0.2100
     23  C         23.8660  -22.0080  -14.1100 C.3     1  UNL1        0.3080
     24  N         25.3200  -21.6900  -14.0710 N.3     1  UNL1        0.0910
     25  C         25.7080  -21.0900  -12.7760 C.3     1  UNL1        0.2720
     26  C         26.0160  -22.2440  -11.8280 C.3     1  UNL1        0.0320
     27  C         26.1500  -23.4700  -12.7190 C.3     1  UNL1        0.0320
     28  C         26.1370  -22.9140  -14.1310 C.3     1  UNL1        0.2720
@<TRIPOS>BOND
     1    22    21    1
     2    21    20    1
     3    28    24    1
     4    28    27    1
     5    23    24    1
     6    23    20    1
     7    24    25    1
     8    20     9    1
     9    25    26    1
    10    27    26    1
    11     9    10    2
    12     9     8    1
    13    10    11    1
    14     8     7    2
    15    11    12    2
    16     7    12    1
    17     7     6    1
    18    12     3    1
    19     1     2    2
    20     6     5    1
    21     2     3   am
    22     2    13    1
    23     3     4    1
    24     5     4    1
    25    13    14    2
    26    13    19    1
    27    14    15    1
    28    19    17    2
    29    15    16    2
    30    17    16    1
    31    17    18    1
