@<TRIPOS>MOLECULE
24004_out_ligand_01.pdbqt
 28 30 0 0 0
SMALL
GASTEIGER

@<TRIPOS>ATOM
      1  C         20.2580  -23.3330   -9.3000 C.2     1  UNL1        0.2800
      2  O         20.5140  -24.4520   -8.8660 O.2     1  UNL1       -0.2650
      3  N         19.2490  -22.5170   -8.8090 N.am    1  UNL1       -0.3210
      4  H         19.0270  -21.7050   -9.3690 H       1  UNL1        0.1690
      5  C         20.9720  -22.7580  -10.4320 C.ar    1  UNL1        0.1500
      6  C         20.5830  -21.9780  -11.5180 C.ar    1  UNL1       -0.0090
      7  C         21.7670  -21.7660  -12.2960 C.ar    1  UNL1        0.0070
      8  C         19.2330  -21.4330  -11.8190 C.3     1  UNL1        0.0520
      9  C         22.0690  -21.0920  -13.4910 C.2     1  UNL1        0.0150
     10  C         22.7990  -22.4010  -11.6220 C.ar    1  UNL1        0.0930
     11  C         23.3910  -21.0940  -13.9530 C.2     1  UNL1        0.0080
     12  C         24.4170  -21.7490  -13.2500 C.2     1  UNL1       -0.0530
     13  C         25.8180  -21.7070  -13.8020 C.3     1  UNL1        0.0490
     14  C         24.1390  -22.4310  -12.0400 C.2     1  UNL1       -0.0210
     15  C         25.2070  -23.1360  -11.2580 C.3     1  UNL1        0.0520
     16  O         22.3190  -22.9890  -10.4950 O.2     1  UNL1       -0.3030
     17  C         18.4200  -22.7430   -7.6930 C.2     1  UNL1        0.0350
     18  C         18.6040  -22.1350   -6.4470 C.2     1  UNL1        0.0310
     19  C         17.7310  -22.4040   -5.3870 C.2     1  UNL1        0.0270
     20  C         16.6710  -23.2920   -5.5740 C.2     1  UNL1        0.0740
     21  C         16.4620  -23.8940   -6.8150 C.2     1  UNL1        0.0270
     22  C         17.3370  -23.6170   -7.8690 C.2     1  UNL1        0.0310
     23  S         15.5600  -23.6330   -4.2340 S.O2    1  UNL1        0.2390
     24  O         16.2930  -24.3180   -3.1960 O.2     1  UNL1       -0.2060
     25  O         14.3250  -24.1440   -4.7830 O.2     1  UNL1       -0.2060
     26  N         15.2120  -22.0810   -3.6850 N.3     1  UNL1       -0.2250
     27  H         14.4480  -22.0530   -3.0110 H       1  UNL1        0.1360
     28  H         16.0660  -21.6650   -3.3070 H       1  UNL1        0.1360
@<TRIPOS>BOND
     1    11     9    1
     2    11    12    2
     3    13    12    1
     4     9     7    2
     5    12    14    1
     6     7    10   ar
     7     7     6   ar
     8    14    10    2
     9    14    15    1
    10     8     6    1
    11    10    16   ar
    12     6     5   ar
    13    16     5   ar
    14     5     1    1
    15     4     3    1
    16     1     2    2
    17     1     3   am
    18     3    17    1
    19    22    17    2
    20    22    21    1
    21    17    18    1
    22    21    20    2
    23    18    19    2
    24    20    19    1
    25    20    23    1
    26    25    23    2
    27    23    26    1
    28    23    24    2
    29    26    28    1
    30    26    27    1
