@<TRIPOS>MOLECULE
24042_out_ligand_01.pdbqt
 35 38 0 0 0
SMALL
GASTEIGER

@<TRIPOS>ATOM
      1  C         23.3290  -22.2850  -11.1910 C.2     1  UNL1        0.0140
      2  C         22.2580  -21.7610  -11.9560 C.2     1  UNL1        0.0780
      3  C         22.4620  -21.4410  -13.2980 C.2     1  UNL1        0.0380
      4  C         23.7120  -21.6340  -13.8900 C.2     1  UNL1        0.0150
      5  C         24.7830  -22.1630  -13.1640 C.2     1  UNL1       -0.0250
      6  C         26.0280  -22.3480  -13.7900 C.2     1  UNL1        0.0120
      7  C         27.1120  -22.8770  -13.0920 C.2     1  UNL1        0.0010
      8  C         26.9580  -23.2340  -11.7610 C.2     1  UNL1        0.0010
      9  C         25.7250  -23.0540  -11.1290 C.2     1  UNL1        0.0130
     10  C         24.6060  -22.5080  -11.8020 C.2     1  UNL1       -0.0150
     11  C         23.1110  -22.6010   -9.7180 C.3     1  UNL1        0.3120
     12  N         22.5560  -23.9430   -9.5350 N.3     1  UNL1        0.0870
     13  H         22.4000  -24.3600  -10.4520 H       1  UNL1        0.3160
     14  C         21.3120  -23.9460   -8.7650 C.3     1  UNL1        0.2740
     15  C         20.9760  -22.6360   -8.0270 C.3     1  UNL1        0.0680
     16  C         19.7300  -22.7170   -7.1740 C.2     1  UNL1       -0.0560
     17  C         18.9230  -23.8640   -7.2030 C.2     1  UNL1        0.0090
     18  C         17.7630  -23.9350   -6.4290 C.2     1  UNL1        0.0250
     19  C         17.4130  -22.8540   -5.6160 C.2     1  UNL1        0.0740
     20  C         18.1970  -21.6980   -5.5880 C.2     1  UNL1        0.0250
     21  C         19.3560  -21.6360   -6.3620 C.2     1  UNL1        0.0090
     22  S         15.9450  -22.9240   -4.6260 S.O2    1  UNL1        0.2390
     23  O         14.8980  -22.2010   -5.3080 O.2     1  UNL1       -0.2060
     24  O         15.7750  -24.2770   -4.1480 O.2     1  UNL1       -0.2060
     25  N         16.4070  -22.0290   -3.2750 N.3     1  UNL1       -0.2250
     26  H         17.4240  -22.0740   -3.1930 H       1  UNL1        0.1360
     27  H         16.0740  -21.0660   -3.3010 H       1  UNL1        0.1360
     28  O         21.0670  -21.5900  -11.2960 O.2     1  UNL1       -0.3460
     29  C         19.8970  -21.2040  -12.0310 C.3     1  UNL1        0.2140
     30  C         18.6040  -21.5560  -11.3270 C.2     1  UNL1       -0.0340
     31  C         17.5230  -20.6610  -11.3560 C.2     1  UNL1        0.0090
     32  C         16.3200  -20.9810  -10.7180 C.2     1  UNL1        0.0010
     33  C         16.1800  -22.2000  -10.0560 C.2     1  UNL1        0.0000
     34  C         17.2400  -23.1050  -10.0370 C.2     1  UNL1        0.0010
     35  C         18.4430  -22.7890  -10.6740 C.2     1  UNL1        0.0090
@<TRIPOS>BOND
     1     4     3    2
     2     4     5    1
     3     6     5    2
     4     6     7    1
     5     3     2    1
     6     5    10    1
     7     7     8    2
     8    29    30    1
     9    29    28    1
    10     2    28    1
    11     2     1    2
    12    10     1    1
    13    10     9    2
    14     8     9    1
    15    31    30    2
    16    31    32    1
    17    30    35    1
    18     1    11    1
    19    32    33    2
    20    35    34    2
    21    13    12    1
    22    33    34    1
    23    11    12    1
    24    12    14    1
    25    14    15    1
    26    15    16    1
    27    17    16    2
    28    17    18    1
    29    16    21    1
    30    18    19    2
    31    21    20    2
    32    19    20    1
    33    19    22    1
    34    23    22    2
    35    22    24    2
    36    22    25    1
    37    27    25    1
    38    25    26    1
