@<TRIPOS>MOLECULE
24094_out_ligand_01.pdbqt
 30 33 0 0 0
SMALL
GASTEIGER

@<TRIPOS>ATOM
      1  C         21.9050  -21.6730  -12.2910 C.2     1  UNL1        0.0320
      2  C         20.6680  -21.0270  -12.2070 C.2     1  UNL1        0.0190
      3  C         19.7920  -21.3040  -11.1510 C.2     1  UNL1        0.0300
      4  C         20.1470  -22.2200  -10.1590 C.2     1  UNL1        0.0350
      5  C         21.3950  -22.8520  -10.2350 C.2     1  UNL1        0.0300
      6  C         22.2730  -22.5800  -11.2910 C.2     1  UNL1        0.0190
      7  N         19.3230  -22.5550   -9.0660 N.am    1  UNL1       -0.3230
      8  C         17.9420  -22.5240   -9.0140 C.2     1  UNL1        0.2570
      9  O         17.1650  -22.1610   -9.8870 O.2     1  UNL1       -0.2670
     10  H         19.7980  -22.8330   -8.2150 H       1  UNL1        0.1690
     11  C         17.3870  -22.9390   -7.7030 C.2     1  UNL1        0.0430
     12  C         16.4050  -23.9390   -7.7360 C.2     1  UNL1        0.0180
     13  C         15.7870  -24.3410   -6.5600 C.2     1  UNL1        0.0020
     14  C         16.1490  -23.7490   -5.3510 C.2     1  UNL1        0.0120
     15  C         17.1480  -22.7610   -5.2940 C.2     1  UNL1       -0.0250
     16  C         17.5110  -22.1920   -4.0620 C.2     1  UNL1        0.0120
     17  C         17.8010  -22.3460   -6.4810 C.2     1  UNL1       -0.0100
     18  C         18.5160  -21.2300   -3.9820 C.2     1  UNL1        0.0010
     19  C         19.1820  -20.8290   -5.1330 C.2     1  UNL1        0.0010
     20  C         18.8330  -21.3830   -6.3660 C.2     1  UNL1        0.0130
     21  C         22.8030  -21.3450  -13.4290 C.2     1  UNL1        0.2520
     22  O         22.5050  -20.4480  -14.2090 O.2     1  UNL1       -0.2680
     23  N         23.9410  -22.1160  -13.5500 N.am    1  UNL1       -0.3520
     24  H         24.1000  -22.8780  -12.9060 H       1  UNL1        0.1630
     25  C         24.9470  -21.8520  -14.5740 C.3     1  UNL1        0.0840
     26  C         26.3210  -22.3610  -14.1260 C.3     1  UNL1        0.0250
     27  C         26.3650  -23.8840  -13.9690 C.3     1  UNL1        0.0020
     28  C         25.4410  -24.6300  -14.9340 C.3     1  UNL1        0.0000
     29  C         25.1780  -23.8350  -16.2040 C.3     1  UNL1        0.0020
     30  C         24.5370  -22.4730  -15.9200 C.3     1  UNL1        0.0250
@<TRIPOS>BOND
     1    29    30    1
     2    29    28    1
     3    30    25    1
     4    28    27    1
     5    25    26    1
     6    25    23    1
     7    22    21    2
     8    26    27    1
     9    23    21   am
    10    23    24    1
    11    21     1    1
    12     1     2    2
    13     1     6    1
    14     2     3    1
    15     6     5    2
    16     3     4    2
    17     5     4    1
    18     4     7    1
    19     9     8    2
    20     7     8   am
    21     7    10    1
    22     8    11    1
    23    12    11    2
    24    12    13    1
    25    11    17    1
    26    13    14    2
    27    17    20    1
    28    17    15    2
    29    20    19    2
    30    14    15    1
    31    15    16    1
    32    19    18    1
    33    16    18    2
