@<TRIPOS>MOLECULE
240_out_ligand_01.pdbqt
 35 37 0 0 0
SMALL
GASTEIGER

@<TRIPOS>ATOM
      1  N         23.7200  -23.0900  -10.4290 N.am    1  UNL1       -0.3490
      2  C         23.0310  -22.0880   -9.7820 C.2     1  UNL1        0.2520
      3  O         23.5050  -20.9880   -9.5220 O.2     1  UNL1       -0.2680
      4  H         23.2730  -23.9750  -10.6160 H       1  UNL1        0.1630
      5  C         21.6390  -22.4100   -9.3680 C.2     1  UNL1        0.0320
      6  C         20.6890  -22.6490  -10.3700 C.2     1  UNL1        0.0180
      7  C         19.3700  -22.9530  -10.0300 C.2     1  UNL1        0.0260
      8  C         19.0120  -23.0470   -8.6820 C.2     1  UNL1        0.0790
      9  C         19.9530  -22.8130   -7.6740 C.2     1  UNL1        0.0260
     10  C         21.2710  -22.5000   -8.0190 C.2     1  UNL1        0.0180
     11  S         17.3260  -23.4190   -8.2390 S.O2    1  UNL1        0.2630
     12  O         17.3320  -24.6060   -7.4110 O.2     1  UNL1       -0.2000
     13  O         16.5420  -23.3590   -9.4560 O.2     1  UNL1       -0.2000
     14  N         16.8650  -22.0810   -7.3210 N.pl3   1  UNL1       -0.2810
     15  H         17.3090  -21.2210   -7.6370 H       1  UNL1        0.1790
     16  C         16.6120  -22.2340   -5.9300 C.2     1  UNL1        0.0420
     17  C         17.6790  -22.1380   -5.0360 C.2     1  UNL1        0.0300
     18  C         17.4600  -22.3210   -3.6700 C.2     1  UNL1        0.0020
     19  C         16.1770  -22.5980   -3.2000 C.2     1  UNL1        0.0000
     20  C         15.1100  -22.6890   -4.0940 C.2     1  UNL1        0.0020
     21  C         15.3290  -22.5060   -5.4610 C.2     1  UNL1        0.0300
     22  C         25.0460  -22.8720  -10.9830 C.3     1  UNL1        0.1140
     23  C         26.0360  -23.8840  -10.4050 C.3     1  UNL1        0.0370
     24  C         24.9690  -22.8940  -12.5030 C.2     1  UNL1       -0.0360
     25  C         25.4380  -23.9790  -13.2640 C.2     1  UNL1        0.0110
     26  C         25.3360  -23.9700  -14.6580 C.2     1  UNL1        0.0250
     27  C         24.7490  -22.8770  -15.2970 C.2     1  UNL1        0.0740
     28  C         24.2710  -21.7920  -14.5620 C.2     1  UNL1        0.0250
     29  C         24.3720  -21.8090  -13.1700 C.2     1  UNL1        0.0110
     30  S         24.6150  -22.8460  -17.0640 S.O2    1  UNL1        0.2390
     31  O         23.3760  -23.4860  -17.4440 O.2     1  UNL1       -0.2060
     32  O         25.8910  -23.2210  -17.6250 O.2     1  UNL1       -0.2060
     33  N         24.3740  -21.2050  -17.3560 N.3     1  UNL1       -0.2250
     34  H         23.7070  -20.7770  -16.7170 H       1  UNL1        0.1360
     35  H         24.1000  -21.0840  -18.3330 H       1  UNL1        0.1360
@<TRIPOS>BOND
     1    35    33    1
     2    32    30    2
     3    31    30    2
     4    33    30    1
     5    33    34    1
     6    30    27    1
     7    27    26    2
     8    27    28    1
     9    26    25    1
    10    28    29    2
    11    25    24    2
    12    29    24    1
    13    24    22    1
    14    22     1    1
    15    22    23    1
    16     4     1    1
    17     1     2   am
    18     6     7    1
    19     6     5    2
    20     7     8    2
    21     2     3    2
    22     2     5    1
    23    13    11    2
    24     5    10    1
    25     8    11    1
    26     8     9    1
    27    11    12    2
    28    11    14    1
    29    10     9    2
    30    15    14    1
    31    14    16    1
    32    16    21    2
    33    16    17    1
    34    21    20    1
    35    17    18    2
    36    20    19    2
    37    18    19    1
