@<TRIPOS>MOLECULE
24114_out_ligand_01.pdbqt
 35 39 0 0 0
SMALL
GASTEIGER

@<TRIPOS>ATOM
      1  O         22.5350  -21.1120  -13.6030 O.2     1  UNL1       -0.2720
      2  C         23.4070  -21.7730  -13.0410 C.2     1  UNL1        0.2350
      3  N         23.2440  -22.5170  -11.8800 N.am    1  UNL1       -0.3260
      4  H         24.0630  -23.0190  -11.5560 H       1  UNL1        0.1690
      5  C         22.0800  -22.6640  -11.1020 C.2     1  UNL1        0.0340
      6  C         20.8400  -22.1130  -11.4360 C.2     1  UNL1        0.0310
      7  C         19.7290  -22.3060  -10.6070 C.2     1  UNL1        0.0270
      8  C         19.8600  -23.0610   -9.4410 C.2     1  UNL1        0.0790
      9  C         21.0930  -23.6090   -9.0870 C.2     1  UNL1        0.0270
     10  C         22.1970  -23.4090   -9.9200 C.2     1  UNL1        0.0310
     11  S         18.4450  -23.3010   -8.3980 S.O2    1  UNL1        0.2590
     12  O         18.6250  -24.5510   -7.6950 O.2     1  UNL1       -0.2010
     13  O         17.2500  -23.0190   -9.1610 O.2     1  UNL1       -0.2010
     14  N         18.6420  -22.0860   -7.2670 N.3     1  UNL1       -0.3110
     15  H         19.2540  -21.3240   -7.5530 H       1  UNL1        0.1720
     16  C         18.3700  -22.3290   -5.8500 C.3     1  UNL1        0.0930
     17  C         16.8700  -22.6130   -5.6780 C.3     1  UNL1        0.0260
     18  C         16.3280  -22.2110   -4.3040 C.3     1  UNL1        0.0020
     19  C         17.4010  -22.2740   -3.2260 C.3     1  UNL1        0.0000
     20  C         18.5710  -21.3370   -3.5310 C.3     1  UNL1        0.0020
     21  C         18.8030  -21.1170   -5.0280 C.3     1  UNL1        0.0260
     22  C         24.8320  -21.8330  -13.6250 C.2     1  UNL1        0.1490
     23  C         25.6540  -20.6430  -13.1820 C.2     1  UNL1       -0.0070
     24  C         25.9880  -20.4650  -11.8300 C.2     1  UNL1        0.0110
     25  C         26.0700  -19.6930  -14.1160 C.2     1  UNL1        0.0830
     26  C         26.7180  -19.3480  -11.4240 C.2     1  UNL1        0.0010
     27  C         27.1210  -18.4010  -12.3630 C.2     1  UNL1        0.0030
     28  C         26.7960  -18.5720  -13.7080 C.2     1  UNL1        0.0380
     29  O         25.7950  -19.7800  -15.4580 O.2     1  UNL1       -0.3100
     30  C         25.2710  -20.9530  -15.9460 C.3     1  UNL1        0.0830
     31  C         25.2120  -21.0710  -17.3360 C.2     1  UNL1        0.0380
     32  C         24.8040  -21.9850  -15.1280 C.2     1  UNL1       -0.0070
     33  C         24.6930  -22.2260  -17.9190 C.2     1  UNL1        0.0030
     34  C         24.2330  -23.2650  -17.1120 C.2     1  UNL1        0.0010
     35  C         24.2860  -23.1470  -15.7230 C.2     1  UNL1        0.0110
@<TRIPOS>BOND
     1    33    31    2
     2    33    34    1
     3    31    30    1
     4    34    35    2
     5    30    29    1
     6    30    32    1
     7    35    32    1
     8    29    25    1
     9    32    22    2
    10    25    28    1
    11    25    23    2
    12    28    27    2
    13    22    23    1
    14    22     2    1
    15     1     2    2
    16    23    24    1
    17     2     3   am
    18    27    26    1
    19     3     4    1
    20     3     5    1
    21    24    26    2
    22     6     5    2
    23     6     7    1
    24     5    10    1
    25     7     8    2
    26    10     9    2
    27     8     9    1
    28     8    11    1
    29    13    11    2
    30    11    12    2
    31    11    14    1
    32    15    14    1
    33    14    16    1
    34    16    17    1
    35    16    21    1
    36    17    18    1
    37    21    20    1
    38    18    19    1
    39    20    19    1
