@<TRIPOS>MOLECULE
24161_out_ligand_01.pdbqt
 37 42 0 0 0
SMALL
GASTEIGER

@<TRIPOS>ATOM
      1  C         23.1890  -22.6530  -11.1060 C.2     1  UNL1        0.2110
      2  N         22.8260  -21.7930  -12.1020 N.2     1  UNL1       -0.1220
      3  N         21.5590  -21.4040  -12.2370 N.pl3   1  UNL1       -0.1430
      4  C         20.6760  -21.9090  -11.3370 C.ar    1  UNL1        0.1370
      5  C         19.2820  -21.7150  -11.1690 C.ar    1  UNL1        0.0250
      6  C         18.3140  -20.9560  -11.8550 C.2     1  UNL1        0.0160
      7  C         16.9880  -20.9710  -11.4170 C.2     1  UNL1        0.0010
      8  C         16.6220  -21.7210  -10.3080 C.2     1  UNL1        0.0020
      9  C         17.5620  -22.4800   -9.6050 C.2     1  UNL1        0.0300
     10  C         18.8910  -22.4700  -10.0540 C.ar    1  UNL1        0.0490
     11  N         20.0240  -23.1090   -9.5760 N.ar    1  UNL1       -0.3290
     12  C         21.1070  -22.7820  -10.3550 C.ar    1  UNL1        0.1650
     13  N         22.3730  -23.2080  -10.1900 N.pl3   1  UNL1       -0.2010
     14  S         24.9150  -23.0420  -10.9500 S.3     1  UNL1       -0.0790
     15  C         25.6050  -21.3910  -11.2560 C.3     1  UNL1        0.1850
     16  C         26.1490  -21.2680  -12.6740 C.2     1  UNL1        0.2310
     17  O         27.1210  -21.9200  -13.0320 O.2     1  UNL1       -0.2720
     18  N         25.4180  -20.3880  -13.4560 N.am    1  UNL1       -0.3260
     19  H         24.6250  -19.9620  -13.0100 H       1  UNL1        0.1690
     20  C         25.5780  -20.1230  -14.8430 C.2     1  UNL1        0.0450
     21  C         26.1700  -18.9350  -15.2890 C.2     1  UNL1        0.0300
     22  C         26.3910  -18.7130  -16.6470 C.2     1  UNL1        0.0030
     23  C         26.0320  -19.6770  -17.5810 C.2     1  UNL1        0.0120
     24  C         25.4190  -20.8670  -17.1760 C.2     1  UNL1       -0.0240
     25  C         25.0760  -21.8250  -18.1470 C.2     1  UNL1        0.0120
     26  C         25.1560  -21.1030  -15.7970 C.2     1  UNL1        0.0010
     27  C         24.4630  -23.0210  -17.7890 C.2     1  UNL1        0.0010
     28  C         24.1740  -23.2680  -16.4530 C.2     1  UNL1        0.0010
     29  C         24.5140  -22.3260  -15.4730 C.2     1  UNL1        0.0140
     30  C         20.1170  -23.9230   -8.3750 C.3     1  UNL1        0.1350
     31  C         18.8040  -24.0410   -7.6050 C.3     1  UNL1        0.0580
     32  C         18.7010  -23.0610   -6.4620 C.2     1  UNL1       -0.0570
     33  C         17.8800  -23.3300   -5.3590 C.2     1  UNL1        0.0070
     34  C         17.7700  -22.4010   -4.3200 C.2     1  UNL1        0.0010
     35  C         18.4750  -21.1970   -4.3730 C.2     1  UNL1        0.0000
     36  C         19.2920  -20.9210   -5.4660 C.2     1  UNL1        0.0010
     37  C         19.4030  -21.8460   -6.5080 C.2     1  UNL1        0.0070
@<TRIPOS>BOND
     1    25    27    2
     2    25    24    1
     3    27    28    1
     4    23    24    2
     5    23    22    1
     6    24    26    1
     7    22    21    2
     8    28    29    2
     9    26    29    1
    10    26    20    2
    11    21    20    1
    12    20    18    1
    13    18    19    1
    14    18    16   am
    15    17    16    2
    16    16    15    1
    17     3     2    1
    18     3     4    1
    19     2     1    2
    20     6     7    1
    21     6     5    2
    22     7     8    2
    23     4     5   ar
    24     4    12   ar
    25    15    14    1
    26     5    10   ar
    27     1    14    1
    28     1    13    1
    29    12    13    1
    30    12    11   ar
    31     8     9    1
    32    10     9    2
    33    10    11   ar
    34    11    30    1
    35    30    31    1
    36    31    32    1
    37    37    32    2
    38    37    36    1
    39    32    33    1
    40    36    35    2
    41    33    34    2
    42    35    34    1
