@<TRIPOS>MOLECULE
24164_out_ligand_01.pdbqt
 35 39 0 0 0
SMALL
GASTEIGER

@<TRIPOS>ATOM
      1  C         24.1540  -22.7230  -12.9120 C.2     1  UNL1       -0.0570
      2  C         23.6690  -21.5760  -13.5590 C.2     1  UNL1        0.0090
      3  C         24.0250  -21.3060  -14.8810 C.2     1  UNL1        0.0260
      4  C         24.8540  -22.1960  -15.5660 C.2     1  UNL1        0.0790
      5  C         25.3540  -23.3370  -14.9330 C.2     1  UNL1        0.0260
      6  C         24.9990  -23.5990  -13.6090 C.2     1  UNL1        0.0090
      7  C         23.8060  -22.9960  -11.4660 C.3     1  UNL1        0.0590
      8  C         23.1280  -21.8160  -10.7490 C.3     1  UNL1        0.1400
      9  N         21.7200  -22.0620  -10.4360 N.am    1  UNL1       -0.2800
     10  C         21.4400  -22.8840   -9.3460 C.2     1  UNL1        0.2610
     11  C         20.0150  -23.0760   -8.9950 C.2     1  UNL1        0.0440
     12  O         22.3060  -23.4340   -8.6690 O.2     1  UNL1       -0.2670
     13  C         19.6760  -23.8920   -7.9090 C.2     1  UNL1        0.0180
     14  C         19.0240  -22.4290   -9.7410 C.2     1  UNL1        0.0050
     15  C         18.3400  -24.0680   -7.5580 C.2     1  UNL1        0.0020
     16  C         17.3410  -23.4250   -8.2900 C.2     1  UNL1        0.0120
     17  C         17.6660  -22.6030   -9.3820 C.2     1  UNL1       -0.0240
     18  C         16.6680  -21.9520  -10.1220 C.2     1  UNL1        0.0120
     19  C         17.0000  -21.1380  -11.2050 C.2     1  UNL1        0.0020
     20  C         18.3350  -20.9680  -11.5610 C.2     1  UNL1        0.0180
     21  C         19.3420  -21.6140  -10.8320 C.2     1  UNL1        0.0440
     22  C         20.7570  -21.4300  -11.2250 C.2     1  UNL1        0.2610
     23  O         21.0180  -20.7520  -12.2160 O.2     1  UNL1       -0.2670
     24  S         25.3220  -21.8560  -17.2470 S.O2    1  UNL1        0.2630
     25  O         24.4070  -20.8570  -17.7600 O.2     1  UNL1       -0.2000
     26  O         25.5150  -23.1170  -17.9320 O.2     1  UNL1       -0.2000
     27  N         26.8120  -21.0750  -17.0750 N.pl3   1  UNL1       -0.2810
     28  H         27.4520  -21.3140  -17.8300 H       1  UNL1        0.1790
     29  C         26.8480  -19.7500  -16.5610 C.2     1  UNL1        0.0420
     30  C         27.1200  -19.5140  -15.2110 C.2     1  UNL1        0.0330
     31  C         27.1210  -18.2060  -14.7200 C.2     1  UNL1        0.0440
     32  C         26.8510  -17.1500  -15.5830 C.2     1  UNL1        0.1160
     33  F         26.8500  -15.8970  -15.1120 F       1  UNL1       -0.2060
     34  C         26.5820  -17.3760  -16.9280 C.2     1  UNL1        0.0440
     35  C         26.5810  -18.6820  -17.4220 C.2     1  UNL1        0.0330
@<TRIPOS>BOND
     1    26    24    2
     2    28    27    1
     3    25    24    2
     4    35    34    1
     5    35    29    2
     6    24    27    1
     7    24     4    1
     8    27    29    1
     9    34    32    2
    10    29    30    1
    11    32    33    1
    12    32    31    1
    13     4     5    2
    14     4     3    1
    15    30    31    2
    16     5     6    1
    17     3     2    2
    18     6     1    2
    19     2     1    1
    20     1     7    1
    21    23    22    2
    22    20    19    1
    23    20    21    2
    24     7     8    1
    25    22    21    1
    26    22     9   am
    27    19    18    2
    28    21    14    1
    29     8     9    1
    30     9    10   am
    31    18    17    1
    32    14    17    1
    33    14    11    2
    34    17    16    2
    35    10    11    1
    36    10    12    2
    37    11    13    1
    38    16    15    1
    39    13    15    2
