@<TRIPOS>MOLECULE
24177_out_ligand_01.pdbqt
 41 45 0 0 0
SMALL
GASTEIGER

@<TRIPOS>ATOM
      1  N         20.3780  -21.6830  -12.4860 N.am    1  UNL1       -0.3270
      2  C         19.6210  -20.7250  -11.8250 C.2     1  UNL1        0.2310
      3  O         20.0220  -19.6280  -11.4440 O.2     1  UNL1       -0.2720
      4  H         19.8620  -22.4050  -12.9750 H       1  UNL1        0.1690
      5  C         18.2020  -21.1960  -11.5350 C.3     1  UNL1        0.1850
      6  S         18.1660  -22.9230  -10.9970 S.3     1  UNL1       -0.0810
      7  C         17.2700  -22.7970   -9.5240 C.ar    1  UNL1        0.1920
      8  N         15.9670  -22.6610   -9.4450 N.ar    1  UNL1       -0.1220
      9  N         15.6420  -22.5810   -8.1210 N.ar    1  UNL1       -0.1280
     10  C         16.7530  -22.6560   -7.4060 C.ar    1  UNL1        0.1640
     11  N         17.8200  -22.8440   -8.2650 N.ar    1  UNL1       -0.3020
     12  C         16.8010  -22.5440   -5.9540 C.2     1  UNL1        0.0120
     13  C         15.7200  -22.9790   -5.1760 C.2     1  UNL1        0.0150
     14  C         15.7700  -22.8870   -3.7840 C.2     1  UNL1        0.0010
     15  C         16.9100  -22.3820   -3.1550 C.2     1  UNL1        0.0000
     16  C         17.9960  -21.9690   -3.9200 C.2     1  UNL1        0.0010
     17  C         17.9510  -22.0650   -5.3140 C.2     1  UNL1        0.0150
     18  C         19.2180  -23.1030   -7.9330 C.3     1  UNL1        0.0940
     19  C         19.6860  -24.5460   -8.2110 C.3     1  UNL1        0.0260
     20  C         20.9510  -24.6200   -9.0650 C.3     1  UNL1        0.0020
     21  C         22.0830  -23.7180   -8.5640 C.3     1  UNL1        0.0000
     22  C         21.6100  -22.3650   -8.0260 C.3     1  UNL1        0.0020
     23  C         20.1900  -22.0330   -8.4700 C.3     1  UNL1        0.0260
     24  C         21.7790  -21.7160  -12.6280 C.2     1  UNL1        0.0340
     25  C         22.4820  -21.0070  -13.6070 C.2     1  UNL1        0.0310
     26  C         23.8830  -21.0260  -13.6330 C.2     1  UNL1        0.0270
     27  C         24.5860  -21.7490  -12.6680 C.2     1  UNL1        0.0750
     28  C         23.9000  -22.4730  -11.6920 C.2     1  UNL1        0.0270
     29  C         22.5020  -22.4600  -11.6820 C.2     1  UNL1        0.0310
     30  S         26.3600  -21.7200  -12.6520 S.O2    1  UNL1        0.2470
     31  O         26.7880  -22.0530  -11.3130 O.2     1  UNL1       -0.2050
     32  O         26.7930  -20.4960  -13.2980 O.2     1  UNL1       -0.2050
     33  N         26.7450  -22.9460  -13.7590 N.pl3   1  UNL1       -0.1580
     34  H         26.5570  -23.8470  -13.3240 H       1  UNL1        0.1480
     35  C         26.1460  -22.7530  -15.0720 C.ar    1  UNL1        0.1700
     36  O         26.3510  -21.6560  -15.8490 O.2     1  UNL1       -0.2000
     37  N         25.6640  -21.7890  -17.0390 N.ar    1  UNL1       -0.1310
     38  C         25.0260  -22.9650  -16.9580 C.ar    1  UNL1        0.0680
     39  C         24.1480  -23.4110  -18.0670 C.3     1  UNL1        0.0730
     40  C         25.3270  -23.6410  -15.7390 C.ar    1  UNL1        0.0130
     41  C         24.8400  -24.9710  -15.3110 C.3     1  UNL1        0.0540
@<TRIPOS>BOND
     1    39    38    1
     2    37    38   ar
     3    37    36   ar
     4    38    40   ar
     5    36    35   ar
     6    40    41    1
     7    40    35   ar
     8    35    33    1
     9    33    34    1
    10    33    30    1
    11    26    25    1
    12    26    27    2
    13    25    24    2
    14    32    30    2
    15     4     1    1
    16    27    30    1
    17    27    28    1
    18    30    31    2
    19    24     1    1
    20    24    29    1
    21     1     2   am
    22     2     5    1
    23     2     3    2
    24    28    29    2
    25     5     6    1
    26     6     7    1
    27     7     8   ar
    28     7    11   ar
    29     8     9   ar
    30    20    21    1
    31    20    19    1
    32    21    22    1
    33    23    22    1
    34    23    18    1
    35    11    18    1
    36    11    10   ar
    37    19    18    1
    38     9    10   ar
    39    10    12    1
    40    12    17    2
    41    12    13    1
    42    17    16    1
    43    13    14    2
    44    16    15    2
    45    14    15    1
