@<TRIPOS>MOLECULE
24182_out_ligand_01.pdbqt
 31 35 0 0 0
SMALL
GASTEIGER

@<TRIPOS>ATOM
      1  N         26.7480  -24.4950  -12.3190 N.1     1  UNL1       -0.1910
      2  C         26.0040  -23.7740  -12.8440 C.1     1  UNL1        0.1030
      3  C         25.2130  -22.8390  -13.5910 C.ar    1  UNL1        0.0850
      4  C         24.0390  -22.2110  -13.1980 C.ar    1  UNL1        0.0980
      5  S         23.4940  -21.0380  -14.3490 S.2     1  UNL1       -0.0750
      6  C         24.7550  -21.4200  -15.3700 C.ar    1  UNL1       -0.0070
      7  C         25.6000  -22.3730  -14.8750 C.ar    1  UNL1       -0.0210
      8  C         26.7180  -22.6360  -15.8180 C.3     1  UNL1        0.0420
      9  C         26.2170  -21.9450  -17.1260 C.3     1  UNL1        0.0100
     10  C         25.1440  -20.8970  -16.7000 C.3     1  UNL1        0.0470
     11  N         23.1890  -22.2530  -12.1130 N.am    1  UNL1       -0.3160
     12  C         23.4980  -21.7790  -10.8570 C.2     1  UNL1        0.2560
     13  O         24.5880  -21.3500  -10.5020 O.2     1  UNL1       -0.2670
     14  H         22.3690  -22.8320  -12.2320 H       1  UNL1        0.1690
     15  C         22.4040  -21.8930   -9.8490 C.2     1  UNL1        0.0320
     16  C         21.0840  -21.9990  -10.3030 C.2     1  UNL1        0.0180
     17  C         20.0290  -22.1020   -9.3910 C.2     1  UNL1        0.0130
     18  C         20.2770  -22.1070   -8.0130 C.2     1  UNL1       -0.0200
     19  C         21.6030  -22.0230   -7.5620 C.2     1  UNL1        0.0130
     20  C         22.6620  -21.9210   -8.4720 C.2     1  UNL1        0.0180
     21  C         19.1580  -22.2050   -7.0520 C.2     1  UNL1        0.0510
     22  C         18.1960  -23.1140   -7.2780 C.2     1  UNL1        0.0320
     23  C         17.0790  -23.2560   -6.3580 C.2     1  UNL1       -0.0010
     24  C         16.0570  -24.1850   -6.5650 C.2     1  UNL1        0.0140
     25  C         17.0270  -22.4410   -5.2330 C.2     1  UNL1        0.0890
     26  C         15.0050  -24.2850   -5.6500 C.2     1  UNL1        0.0010
     27  C         14.9690  -23.4560   -4.5260 C.2     1  UNL1        0.0030
     28  C         15.9840  -22.5270   -4.3130 C.2     1  UNL1        0.0380
     29  O         18.0340  -21.4940   -4.9830 O.3     1  UNL1       -0.2740
     30  C         19.1160  -21.3310   -5.8420 C.2     1  UNL1        0.2990
     31  O         19.9880  -20.5000   -5.6050 O.2     1  UNL1       -0.2590
@<TRIPOS>BOND
     1     9    10    1
     2     9     8    1
     3    10     6    1
     4     8     7    1
     5     6     7   ar
     6     6     5   ar
     7     7     3   ar
     8     5     4   ar
     9     3     4   ar
    10     3     2    1
    11     4    11    1
    12     2     1    3
    13    14    11    1
    14    11    12   am
    15    12    13    2
    16    12    15    1
    17    16    15    2
    18    16    17    1
    19    15    20    1
    20    17    18    2
    21    20    19    2
    22    18    19    1
    23    18    21    1
    24    22    21    2
    25    22    23    1
    26    21    30    1
    27    24    23    2
    28    24    26    1
    29    23    25    1
    30    30    31    2
    31    30    29    1
    32    26    27    2
    33    25    29    1
    34    25    28    2
    35    27    28    1
