@<TRIPOS>MOLECULE
24202_out_ligand_01.pdbqt
 28 30 0 0 0
SMALL
GASTEIGER

@<TRIPOS>ATOM
      1  C         20.1670  -23.3880   -9.2270 C.2     1  UNL1        0.2800
      2  O         20.1770  -24.5450   -8.8210 O.2     1  UNL1       -0.2650
      3  N         19.3560  -22.3770   -8.7400 N.am    1  UNL1       -0.3210
      4  H         19.4740  -21.4840   -9.2080 H       1  UNL1        0.1690
      5  C         21.0300  -22.9350  -10.3080 C.ar    1  UNL1        0.1500
      6  O         22.3410  -23.3410  -10.3150 O.2     1  UNL1       -0.3040
      7  C         22.9300  -22.7940  -11.4090 C.ar    1  UNL1        0.0870
      8  C         24.2640  -22.9670  -11.7760 C.2     1  UNL1        0.0460
      9  C         22.0160  -22.0300  -12.1210 C.ar    1  UNL1        0.0080
     10  C         24.7020  -22.3220  -12.9460 C.2     1  UNL1       -0.0380
     11  C         26.1360  -22.4870  -13.3730 C.3     1  UNL1        0.0500
     12  C         23.7980  -21.5400  -13.6880 C.2     1  UNL1        0.0410
     13  C         22.4590  -21.3850  -13.2900 C.2     1  UNL1        0.0390
     14 CL         24.2930  -20.7270  -15.1330 Cl      1  UNL1       -0.0840
     15  C         20.7820  -22.1200  -11.4070 C.ar    1  UNL1       -0.0090
     16  C         19.4870  -21.4810  -11.7560 C.3     1  UNL1        0.0520
     17  C         18.4100  -22.4360   -7.7000 C.2     1  UNL1        0.0350
     18  C         18.7390  -22.3950   -6.3420 C.2     1  UNL1        0.0310
     19  C         17.7370  -22.4560   -5.3670 C.2     1  UNL1        0.0270
     20  C         16.4000  -22.5700   -5.7540 C.2     1  UNL1        0.0740
     21  C         16.0540  -22.5990   -7.1050 C.2     1  UNL1        0.0270
     22  C         17.0610  -22.5340   -8.0720 C.2     1  UNL1        0.0310
     23  S         15.1410  -22.6460   -4.5090 S.O2    1  UNL1        0.2390
     24  O         14.8480  -24.0350   -4.2380 O.2     1  UNL1       -0.2060
     25  O         14.1180  -21.6830   -4.8350 O.2     1  UNL1       -0.2060
     26  N         15.9720  -22.0910   -3.1530 N.3     1  UNL1       -0.2250
     27  H         15.3300  -21.5520   -2.5700 H       1  UNL1        0.1360
     28  H         16.4340  -22.8330   -2.6290 H       1  UNL1        0.1360
@<TRIPOS>BOND
     1    14    12    1
     2    12    13    2
     3    12    10    1
     4    11    10    1
     5    13     9    1
     6    10     8    2
     7     9     7   ar
     8     9    15   ar
     9     8     7    1
    10    16    15    1
    11     7     6   ar
    12    15     5   ar
    13     6     5   ar
    14     5     1    1
    15     1     2    2
    16     1     3   am
    17     4     3    1
    18     3    17    1
    19    22    17    2
    20    22    21    1
    21    17    18    1
    22    21    20    2
    23    18    19    2
    24    20    19    1
    25    20    23    1
    26    25    23    2
    27    23    24    2
    28    23    26    1
    29    26    28    1
    30    26    27    1
