@<TRIPOS>MOLECULE
24229_out_ligand_01.pdbqt
 34 37 0 0 0
SMALL
GASTEIGER

@<TRIPOS>ATOM
      1  C         21.2910  -22.2250  -10.9830 C.2     1  UNL1        0.0320
      2  C         21.1610  -21.4820  -12.1580 C.2     1  UNL1        0.0190
      3  C         22.2350  -21.3730  -13.0500 C.2     1  UNL1        0.0300
      4  C         23.4440  -22.0180  -12.7840 C.2     1  UNL1        0.0340
      5  C         23.5620  -22.7810  -11.6140 C.2     1  UNL1        0.0300
      6  C         22.4930  -22.8900  -10.7160 C.2     1  UNL1        0.0190
      7  C         20.1260  -22.3160  -10.0590 C.2     1  UNL1        0.2560
      8  O         19.0270  -21.9690  -10.4720 O.2     1  UNL1       -0.2670
      9  N         20.4310  -22.7590   -8.7850 N.am    1  UNL1       -0.3230
     10  H         21.4120  -22.8660   -8.5610 H       1  UNL1        0.1690
     11  C         19.5330  -22.9840   -7.7200 C.2     1  UNL1        0.0350
     12  C         18.7630  -24.1530   -7.7690 C.2     1  UNL1        0.0290
     13  C         17.8510  -24.4490   -6.7560 C.2     1  UNL1        0.0030
     14  C         17.6920  -23.5760   -5.6830 C.2     1  UNL1        0.0160
     15  C         18.4420  -22.3930   -5.6190 C.2     1  UNL1        0.0500
     16  C         19.3640  -22.1100   -6.6440 C.2     1  UNL1        0.0450
     17  C         18.2930  -21.4420   -4.4570 C.3     1  UNL1        0.4170
     18  F         19.0430  -21.7950   -3.3780 F       1  UNL1       -0.1660
     19  F         17.0080  -21.3570   -4.0140 F       1  UNL1       -0.1660
     20  F         18.6640  -20.1650   -4.7600 F       1  UNL1       -0.1660
     21  N         24.5690  -21.9610  -13.6260 N.am    1  UNL1       -0.3250
     22  C         24.6060  -22.0160  -15.0110 C.2     1  UNL1        0.2540
     23  O         23.6350  -22.0740  -15.7600 O.2     1  UNL1       -0.2700
     24  H         25.4790  -21.9330  -13.1760 H       1  UNL1        0.1690
     25  C         26.0410  -21.8920  -15.5640 C.3     1  UNL1        0.2450
     26  C         27.0190  -21.4340  -14.4890 C.3     1  UNL1        0.2180
     27  O         26.8110  -20.0650  -14.1250 O.2     1  UNL1       -0.3450
     28  C         26.6350  -19.2690  -15.2240 C.2     1  UNL1        0.1020
     29  C         26.7620  -17.8950  -15.0280 C.2     1  UNL1        0.0390
     30  C         26.3300  -19.7690  -16.4910 C.2     1  UNL1        0.1030
     31  C         26.6150  -17.0220  -16.1060 C.2     1  UNL1        0.0030
     32  C         26.3390  -17.5230  -17.3780 C.2     1  UNL1        0.0030
     33  C         26.1970  -18.8980  -17.5720 C.2     1  UNL1        0.0400
     34  O         26.1360  -21.1000  -16.7520 O.2     1  UNL1       -0.3310
@<TRIPOS>BOND
     1    33    32    2
     2    33    30    1
     3    32    31    1
     4    34    30    1
     5    34    25    1
     6    30    28    2
     7    31    29    2
     8    23    22    2
     9    25    22    1
    10    25    26    1
    11    28    29    1
    12    28    27    1
    13    22    21   am
    14    26    27    1
    15    21    24    1
    16    21     4    1
    17     3     4    2
    18     3     2    1
    19     4     5    1
    20     2     1    2
    21     5     6    2
    22     1     6    1
    23     1     7    1
    24     8     7    2
    25     7     9   am
    26     9    10    1
    27     9    11    1
    28    12    11    2
    29    12    13    1
    30    11    16    1
    31    13    14    2
    32    16    15    2
    33    14    15    1
    34    15    17    1
    35    20    17    1
    36    17    19    1
    37    17    18    1
