@<TRIPOS>MOLECULE
24248_out_ligand_01.pdbqt
 30 35 0 0 0
SMALL
GASTEIGER

@<TRIPOS>ATOM
      1  C         19.4940  -22.6150   -8.4940 C.ar    1  UNL1        0.0750
      2  N         20.8370  -22.7730   -8.4170 N.ar    1  UNL1       -0.2390
      3  C         21.5290  -22.4720   -9.5370 C.ar    1  UNL1        0.1120
      4  S         23.2210  -22.6320   -9.5640 S.2     1  UNL1       -0.0640
      5  C         23.3210  -22.0820  -11.1900 C.ar    1  UNL1        0.0770
      6  C         24.4510  -21.9130  -12.0030 C.2     1  UNL1        0.1240
      7  N         24.2530  -21.4590  -13.2590 N.2     1  UNL1       -0.2290
      8  C         23.0040  -21.1910  -13.6630 C.2     1  UNL1        0.2350
      9  N         21.8770  -21.3240  -12.9630 N.2     1  UNL1       -0.2400
     10  C         22.0600  -21.7820  -11.6970 C.ar    1  UNL1        0.0920
     11  C         21.0130  -22.0130  -10.7420 C.ar    1  UNL1        0.0370
     12  C         19.6200  -21.8590  -10.7830 C.ar    1  UNL1       -0.0340
     13  C         18.8640  -22.1700   -9.6440 C.ar    1  UNL1       -0.0210
     14  C         17.4180  -21.8580   -9.8790 C.3     1  UNL1        0.0420
     15  C         17.3600  -21.8050  -11.4120 C.3     1  UNL1        0.0090
     16  C         18.7390  -21.3320  -11.8820 C.3     1  UNL1        0.0400
     17  N         25.7390  -22.1810  -11.5460 N.pl3   1  UNL1       -0.2700
     18  H         25.8930  -21.8450  -10.6000 H       1  UNL1        0.1290
     19  C         26.2070  -23.5430  -11.7530 C.3     1  UNL1        0.1590
     20  C         26.2560  -23.9210  -13.1950 C.2     1  UNL1        0.0650
     21  C         27.1210  -23.6220  -14.2270 C.2     1  UNL1        0.0360
     22  C         26.6320  -24.3030  -15.3680 C.2     1  UNL1        0.0270
     23  C         25.5040  -24.9760  -14.9590 C.2     1  UNL1        0.1420
     24  O         25.2680  -24.7530  -13.6410 O.2     1  UNL1       -0.3260
     25  C         18.7720  -22.9290   -7.2530 C.2     1  UNL1       -0.0070
     26  C         18.6970  -22.0090   -6.1920 C.2     1  UNL1        0.0140
     27  C         18.0090  -22.3200   -5.0170 C.2     1  UNL1        0.0010
     28  C         17.3750  -23.5550   -4.8860 C.2     1  UNL1        0.0000
     29  C         17.4240  -24.4730   -5.9300 C.2     1  UNL1        0.0010
     30  C         18.1130  -24.1600   -7.1060 C.2     1  UNL1        0.0140
@<TRIPOS>BOND
     1    22    23    2
     2    22    21    1
     3    23    24    1
     4    21    20    2
     5     8     7    2
     6     8     9    1
     7    24    20    1
     8     7     6    1
     9    20    19    1
    10     9    10    2
    11     6    17    1
    12     6     5    2
    13    16    15    1
    14    16    12    1
    15    19    17    1
    16    10     5   ar
    17    10    11   ar
    18    17    18    1
    19    15    14    1
    20     5     4   ar
    21    12    11   ar
    22    12    13   ar
    23    11     3   ar
    24    14    13    1
    25    13     1   ar
    26     4     3   ar
    27     3     2   ar
    28     1     2   ar
    29     1    25    1
    30    25    30    2
    31    25    26    1
    32    30    29    1
    33    26    27    2
    34    29    28    2
    35    27    28    1
