@<TRIPOS>MOLECULE
24240_out_ligand_01.pdbqt
 32 35 0 0 0
SMALL
GASTEIGER

@<TRIPOS>ATOM
      1  C         20.0640  -21.9500  -11.1380 C.2     1  UNL1        0.0330
      2  C         18.9210  -21.3020  -11.6730 C.2     1  UNL1        0.0180
      3  C         17.6490  -21.5400  -11.1400 C.2     1  UNL1        0.0190
      4  C         17.5610  -22.4310  -10.0870 C.2     1  UNL1        0.0480
      5  C         18.6730  -23.0740   -9.5730 C.2     1  UNL1        0.0490
      6  C         19.9410  -22.8620  -10.0790 C.2     1  UNL1        0.0350
      7  C         18.2200  -23.9350   -8.4840 C.2     1  UNL1        0.2620
      8  O         18.9500  -24.6350   -7.8090 O.2     1  UNL1       -0.2670
      9  N         16.8640  -23.7760   -8.4020 N.am    1  UNL1       -0.2760
     10  C         16.3970  -22.8860   -9.3280 C.2     1  UNL1        0.2620
     11  O         15.2600  -22.5070   -9.5310 O.2     1  UNL1       -0.2670
     12  C         21.4190  -21.7170  -11.7110 C.2     1  UNL1        0.2560
     13  O         21.5010  -21.0250  -12.7180 O.2     1  UNL1       -0.2670
     14  N         22.4500  -22.3510  -11.0430 N.am    1  UNL1       -0.3230
     15  H         22.1960  -22.9910  -10.3020 H       1  UNL1        0.1690
     16  C         23.8280  -22.2780  -11.3380 C.2     1  UNL1        0.0350
     17  C         24.7210  -21.4230  -10.6890 C.2     1  UNL1        0.0290
     18  C         26.0750  -21.4130  -11.0370 C.2     1  UNL1        0.0030
     19  C         26.5510  -22.2620  -12.0340 C.2     1  UNL1        0.0160
     20  C         25.6780  -23.1380  -12.6890 C.2     1  UNL1        0.0500
     21  C         24.3160  -23.1310  -12.3370 C.2     1  UNL1        0.0450
     22  C         26.1790  -24.0470  -13.7830 C.3     1  UNL1        0.4170
     23  F         26.7540  -23.3740  -14.8190 F       1  UNL1       -0.1660
     24  F         27.1210  -24.9310  -13.3480 F       1  UNL1       -0.1660
     25  F         25.1850  -24.8000  -14.3280 F       1  UNL1       -0.1660
     26  C         16.0360  -24.4270   -7.4130 C.3     1  UNL1        0.1750
     27  C         16.0050  -23.6570   -6.1220 C.2     1  UNL1       -0.0220
     28  C         14.8990  -22.8840   -5.7580 C.2     1  UNL1        0.0120
     29  C         14.9190  -22.1690   -4.5640 C.2     1  UNL1        0.0200
     30  C         16.0530  -22.2460   -3.7740 C.2     1  UNL1        0.1160
     31  N         17.1450  -22.9690   -4.0970 N.2     1  UNL1       -0.2730
     32  C         17.1010  -23.6540   -5.2630 C.2     1  UNL1        0.1240
@<TRIPOS>BOND
     1    23    22    1
     2    25    22    1
     3    22    24    1
     4    22    20    1
     5    13    12    2
     6    20    21    1
     7    20    19    2
     8    21    16    2
     9    19    18    1
    10    12     1    1
    11    12    14   am
    12     2     3    1
    13     2     1    2
    14    16    14    1
    15    16    17    1
    16     3     4    2
    17     1     6    1
    18    14    15    1
    19    18    17    2
    20     4     5    1
    21     4    10    1
    22     6     5    2
    23     5     7    1
    24    11    10    2
    25    10     9   am
    26     7     9   am
    27     7     8    2
    28     9    26    1
    29    26    27    1
    30    27    28    2
    31    27    32    1
    32    28    29    1
    33    32    31    2
    34    29    30    2
    35    31    30    1
