@<TRIPOS>MOLECULE
24262_out_ligand_01.pdbqt
 34 38 0 0 0
SMALL
GASTEIGER

@<TRIPOS>ATOM
      1  C         21.3650  -23.2890   -9.9750 C.2     1  UNL1       -0.0570
      2  C         21.5880  -22.5300  -11.1330 C.2     1  UNL1        0.0090
      3  C         22.8790  -22.1230  -11.4750 C.2     1  UNL1        0.0260
      4  C         23.9530  -22.4860  -10.6600 C.2     1  UNL1        0.0790
      5  C         23.7470  -23.2360   -9.5000 C.2     1  UNL1        0.0260
      6  C         22.4550  -23.6390   -9.1620 C.2     1  UNL1        0.0090
      7  C         19.9630  -23.6900   -9.5750 C.3     1  UNL1        0.0590
      8  C         19.0230  -22.5020   -9.3080 C.3     1  UNL1        0.1400
      9  N         18.3680  -22.5670   -8.0010 N.am    1  UNL1       -0.2800
     10  C         19.0440  -22.0080   -6.9160 C.2     1  UNL1        0.2610
     11  C         18.3450  -22.0130   -5.6120 C.2     1  UNL1        0.0440
     12  O         20.1660  -21.5120   -6.9980 O.2     1  UNL1       -0.2670
     13  C         18.9770  -21.4620   -4.4890 C.2     1  UNL1        0.0180
     14  C         17.0570  -22.5500   -5.5170 C.2     1  UNL1        0.0050
     15  C         18.3230  -21.4440   -3.2610 C.2     1  UNL1        0.0020
     16  C         17.0360  -21.9730   -3.1530 C.2     1  UNL1        0.0120
     17  C         16.3900  -22.5270   -4.2690 C.2     1  UNL1       -0.0240
     18  C         15.0950  -23.0590   -4.1690 C.2     1  UNL1        0.0120
     19  C         14.4610  -23.6060   -5.2840 C.2     1  UNL1        0.0020
     20  C         15.1180  -23.6320   -6.5120 C.2     1  UNL1        0.0180
     21  C         16.4110  -23.1070   -6.6260 C.2     1  UNL1        0.0440
     22  C         17.1000  -23.1460   -7.9360 C.2     1  UNL1        0.2610
     23  O         16.5410  -23.6850   -8.8890 O.2     1  UNL1       -0.2670
     24  S         25.5990  -21.9650  -11.0710 S.O2    1  UNL1        0.2580
     25  O         26.5070  -23.0080  -10.6440 O.2     1  UNL1       -0.2010
     26  O         25.7610  -20.5910  -10.6480 O.2     1  UNL1       -0.2010
     27  N         25.5840  -21.9870  -12.7460 N.3     1  UNL1       -0.3130
     28  H         24.9090  -22.6380  -13.1500 H       1  UNL1        0.1720
     29  C         25.7580  -20.7240  -13.4810 C.3     1  UNL1        0.1640
     30  C         24.6730  -20.6350  -14.5660 C.3     1  UNL1        0.1400
     31  C         24.1160  -21.9970  -14.9570 C.3     1  UNL1        0.0350
     32  C         24.9800  -22.3900  -16.1290 C.3     1  UNL1        0.0290
     33  C         25.2130  -21.0590  -16.8050 C.3     1  UNL1        0.1680
     34  O         25.2700  -20.0760  -15.7620 O.3     1  UNL1       -0.3840
@<TRIPOS>BOND
     1    33    32    1
     2    33    34    1
     3    32    31    1
     4    34    30    1
     5    31    30    1
     6    30    29    1
     7    29    27    1
     8    28    27    1
     9    27    24    1
    10     3     2    1
    11     3     4    2
    12     2     1    2
    13    24     4    1
    14    24    26    2
    15    24    25    2
    16     4     5    1
    17     1     7    1
    18     1     6    1
    19     7     8    1
    20     5     6    2
    21     8     9    1
    22    23    22    2
    23     9    22   am
    24     9    10   am
    25    22    21    1
    26    12    10    2
    27    10    11    1
    28    21    20    2
    29    21    14    1
    30    20    19    1
    31    11    14    2
    32    11    13    1
    33    14    17    1
    34    19    18    2
    35    13    15    2
    36    17    18    1
    37    17    16    2
    38    15    16    1
