@<TRIPOS>MOLECULE
24278_out_ligand_01.pdbqt
 35 39 0 0 0
SMALL
GASTEIGER

@<TRIPOS>ATOM
      1  C         21.2410  -22.4000  -11.1910 C.2     1  UNL1        0.0320
      2  C         21.0330  -23.4490  -10.2820 C.2     1  UNL1        0.0180
      3  C         19.8080  -23.5640   -9.6180 C.2     1  UNL1        0.0260
      4  C         18.7960  -22.6240   -9.8570 C.2     1  UNL1        0.0800
      5  C         18.9970  -21.5660  -10.7470 C.2     1  UNL1        0.0260
      6  C         20.2210  -21.4560  -11.4110 C.2     1  UNL1        0.0180
      7  C         22.5500  -22.2060  -11.8890 C.2     1  UNL1        0.2570
      8  N         22.5100  -21.3830  -12.9950 N.am    1  UNL1       -0.3010
      9  H         21.6850  -20.8430  -13.2040 H       1  UNL1        0.1710
     10  O         23.5350  -22.7610  -11.4140 O.2     1  UNL1       -0.2670
     11  C         23.5230  -21.1680  -13.8990 C.ar    1  UNL1        0.1740
     12  S         25.0460  -20.5600  -13.4610 S.2     1  UNL1       -0.0500
     13  C         25.6080  -20.7800  -15.0660 C.ar    1  UNL1        0.0400
     14  C         26.8860  -20.5320  -15.5880 C.2     1  UNL1        0.0210
     15  C         24.5610  -21.2760  -15.8490 C.ar    1  UNL1        0.1100
     16  C         27.1210  -20.8270  -16.9290 C.2     1  UNL1        0.0040
     17  C         26.1040  -21.3280  -17.7350 C.2     1  UNL1        0.0390
     18  C         24.8180  -21.5240  -17.2190 C.2     1  UNL1        0.0990
     19  N         23.3670  -21.4830  -15.1610 N.ar    1  UNL1       -0.2200
     20  O         23.8770  -22.0210  -18.1090 O.2     1  UNL1       -0.3490
     21  C         23.8960  -23.4540  -18.1510 C.3     1  UNL1        0.1710
     22  C         22.4930  -23.9600  -17.8290 C.3     1  UNL1        0.0340
     23  S         17.2520  -22.7730   -8.9710 S.O2    1  UNL1        0.2650
     24  O         16.8140  -21.4140   -8.7220 O.2     1  UNL1       -0.2000
     25  O         16.4220  -23.7090   -9.7020 O.2     1  UNL1       -0.2000
     26  N         17.7710  -23.5360   -7.5060 N.pl3   1  UNL1       -0.2710
     27  C         16.9640  -24.7250   -7.0900 C.3     1  UNL1        0.1420
     28  C         15.7590  -24.3070   -6.2590 C.3     1  UNL1        0.0260
     29  C         16.1990  -23.5640   -5.0040 C.3     1  UNL1        0.0420
     30  C         17.3350  -22.6010   -5.2470 C.2     1  UNL1       -0.0310
     31  C         17.6780  -21.6940   -4.2260 C.2     1  UNL1        0.0090
     32  C         18.1040  -22.6300   -6.4250 C.2     1  UNL1        0.0510
     33  C         18.7680  -20.8310   -4.3740 C.2     1  UNL1        0.0010
     34  C         19.5360  -20.8760   -5.5340 C.2     1  UNL1        0.0020
     35  C         19.2090  -21.7770   -6.5520 C.2     1  UNL1        0.0310
@<TRIPOS>BOND
     1    21    20    1
     2    21    22    1
     3    20    18    1
     4    17    18    2
     5    17    16    1
     6    18    15    1
     7    16    14    2
     8    15    19   ar
     9    15    13   ar
    10    14    13    1
    11    19    11   ar
    12    13    12   ar
    13    11    12   ar
    14    11     8    1
    15     9     8    1
    16     8     7   am
    17     7    10    2
    18     7     1    1
    19     6     1    2
    20     6     5    1
    21     1     2    1
    22     5     4    2
    23     2     3    2
    24     4     3    1
    25     4    23    1
    26    25    23    2
    27    23    24    2
    28    23    26    1
    29    26    27    1
    30    26    32    1
    31    27    28    1
    32    35    32    1
    33    35    34    2
    34    32    30    2
    35    28    29    1
    36    34    33    1
    37    30    29    1
    38    30    31    1
    39    33    31    2
