@<TRIPOS>MOLECULE
24285_out_ligand_01.pdbqt
 36 39 0 0 0
SMALL
GASTEIGER

@<TRIPOS>ATOM
      1  C         17.4950  -22.7240   -5.6190 C.2     1  UNL1        0.0540
      2  C         17.4880  -23.3310   -4.3550 C.2     1  UNL1        0.0190
      3  C         16.2820  -23.7490   -3.7890 C.2     1  UNL1        0.0010
      4  C         15.0830  -23.5550   -4.4760 C.2     1  UNL1        0.0020
      5  C         15.0830  -22.9390   -5.7280 C.2     1  UNL1        0.0250
      6  C         16.2830  -22.5100   -6.2990 C.2     1  UNL1        0.0380
      7  N         16.2530  -21.9520   -7.6220 N.pl3   1  UNL1       -0.1800
      8  H         16.9760  -21.2330   -7.7780 H       1  UNL1        0.1460
      9  S         16.3400  -23.0680   -8.9010 S.O2    1  UNL1        0.2460
     10  O         17.0590  -24.2230   -8.4110 O.2     1  UNL1       -0.2060
     11  O         15.0350  -23.1900   -9.5160 O.2     1  UNL1       -0.2060
     12  C         17.4270  -22.2390  -10.0390 C.2     1  UNL1        0.0770
     13  C         16.9880  -21.0610  -10.6930 C.2     1  UNL1        0.0270
     14  C         17.8260  -20.3940  -11.5950 C.2     1  UNL1        0.0330
     15  C         19.0690  -20.9450  -11.8030 C.ar    1  UNL1        0.0630
     16  N         20.1020  -20.5150  -12.6260 N.ar    1  UNL1       -0.3070
     17  C         19.4900  -22.1110  -11.1610 C.ar    1  UNL1        0.0640
     18  C         21.1770  -21.4090  -12.5090 C.ar    1  UNL1        0.3250
     19  H         20.1110  -19.7090  -13.2300 H       1  UNL1        0.1700
     20  O         22.2450  -21.3420  -13.0900 O.2     1  UNL1       -0.2470
     21  N         20.7810  -22.3930  -11.5930 N.ar    1  UNL1       -0.3060
     22  H         21.3600  -23.1720  -11.3230 H       1  UNL1        0.1700
     23  C         18.6940  -22.7900  -10.2720 C.2     1  UNL1        0.0560
     24  C         18.7720  -22.2560   -6.2210 C.2     1  UNL1        0.2580
     25  N         19.3970  -23.1700   -7.0450 N.am    1  UNL1       -0.3230
     26  H         18.8760  -24.0040   -7.2830 H       1  UNL1        0.1690
     27  O         19.1330  -21.1110   -5.9670 O.2     1  UNL1       -0.2670
     28  C         20.6310  -23.0160   -7.7100 C.2     1  UNL1        0.0350
     29  C         21.0810  -24.0900   -8.4830 C.2     1  UNL1        0.0320
     30  C         22.3000  -24.0140   -9.1650 C.2     1  UNL1        0.0390
     31  C         23.0890  -22.8660   -9.0860 C.2     1  UNL1        0.0680
     32  C         22.6450  -21.7940   -8.3140 C.2     1  UNL1        0.0390
     33  C         21.4240  -21.8700   -7.6290 C.2     1  UNL1        0.0320
     34  O         24.2530  -22.9200   -9.8000 O.2     1  UNL1       -0.3520
     35  C         24.5950  -21.7680  -10.5690 C.3     1  UNL1        0.1710
     36  C         26.0640  -21.8720  -10.9380 C.3     1  UNL1        0.0340
@<TRIPOS>BOND
     1    19    16    1
     2    20    18    2
     3    16    18   ar
     4    16    15   ar
     5    18    21   ar
     6    15    14    2
     7    15    17   ar
     8    14    13    1
     9    21    22    1
    10    21    17   ar
    11    17    23    2
    12    36    35    1
    13    13    12    2
    14    35    34    1
    15    23    12    1
    16    12     9    1
    17    34    31    1
    18    11     9    2
    19    30    31    2
    20    30    29    1
    21    31    32    1
    22     9    10    2
    23     9     7    1
    24    29    28    2
    25    32    33    2
    26     8     7    1
    27    28    33    1
    28    28    25    1
    29     7     6    1
    30    26    25    1
    31    25    24   am
    32     6     5    1
    33     6     1    2
    34    24    27    2
    35    24     1    1
    36     5     4    2
    37     1     2    1
    38     4     3    1
    39     2     3    2
