@<TRIPOS>MOLECULE
24289_out_ligand_01.pdbqt
 35 38 0 0 0
SMALL
GASTEIGER

@<TRIPOS>ATOM
      1  N         23.3510  -23.6060  -11.1080 N.pl3   1  UNL1       -0.2880
      2  H         22.3430  -23.8140  -11.0770 H       1  UNL1        0.1280
      3  C         23.8040  -23.1250   -9.8060 C.3     1  UNL1        0.1310
      4  C         22.6560  -22.7560   -8.8900 C.2     1  UNL1       -0.0450
      5  C         21.5160  -23.5730   -8.8020 C.2     1  UNL1        0.0090
      6  C         20.4610  -23.2320   -7.9530 C.2     1  UNL1        0.0170
      7  C         20.5270  -22.0630   -7.1890 C.2     1  UNL1        0.0320
      8  C         21.6680  -21.2530   -7.2510 C.2     1  UNL1        0.0170
      9  C         22.7230  -21.5990   -8.0990 C.2     1  UNL1        0.0090
     10  C         19.3840  -21.7210   -6.3010 C.2     1  UNL1        0.2560
     11  O         19.4890  -20.7460   -5.5670 O.2     1  UNL1       -0.2670
     12  N         18.3100  -22.5880   -6.3930 N.am    1  UNL1       -0.3230
     13  H         18.4430  -23.4180   -6.9550 H       1  UNL1        0.1690
     14  C         17.0770  -22.5010   -5.7160 C.2     1  UNL1        0.0350
     15  C         16.9440  -22.5570   -4.3280 C.2     1  UNL1        0.0290
     16  C         15.6810  -22.4570   -3.7330 C.2     1  UNL1        0.0020
     17  C         14.5430  -22.3000   -4.5200 C.2     1  UNL1        0.0000
     18  C         14.6660  -22.2410   -5.9060 C.2     1  UNL1        0.0020
     19  C         15.9260  -22.3390   -6.5000 C.2     1  UNL1        0.0290
     20  C         23.6350  -22.8740  -12.2770 C.2     1  UNL1        0.0240
     21  C         24.6830  -23.2380  -13.1360 C.2     1  UNL1        0.0240
     22  C         24.9320  -22.5430  -14.3250 C.2     1  UNL1        0.0020
     23  C         24.1220  -21.4750  -14.6960 C.2     1  UNL1        0.0010
     24  C         23.0440  -21.1170  -13.8900 C.2     1  UNL1        0.0190
     25  C         22.7790  -21.8290  -12.7050 C.2     1  UNL1        0.0530
     26  C         21.6010  -21.4320  -11.8750 C.2     1  UNL1        0.2580
     27  O         21.7500  -20.5680  -11.0160 O.2     1  UNL1       -0.2670
     28  N         20.4460  -22.1470  -12.1400 N.am    1  UNL1       -0.3230
     29  H         20.5360  -22.9420  -12.7580 H       1  UNL1        0.1690
     30  C         19.1760  -21.9730  -11.5490 C.2     1  UNL1        0.0350
     31  C         18.7090  -23.0040  -10.7230 C.2     1  UNL1        0.0290
     32  C         17.4580  -22.9140  -10.1070 C.2     1  UNL1        0.0020
     33  C         16.6620  -21.7900  -10.3130 C.2     1  UNL1        0.0000
     34  C         17.1150  -20.7630  -11.1360 C.2     1  UNL1        0.0020
     35  C         18.3670  -20.8560  -11.7550 C.2     1  UNL1        0.0290
@<TRIPOS>BOND
     1    23    22    2
     2    23    24    1
     3    22    21    1
     4    24    25    2
     5    21    20    2
     6    29    28    1
     7    25    20    1
     8    25    26    1
     9    20     1    1
    10    28    26   am
    11    28    30    1
    12    26    27    2
    13    35    30    2
    14    35    34    1
    15    30    31    1
    16    34    33    2
    17     1     2    1
    18     1     3    1
    19    31    32    2
    20    33    32    1
    21     3     4    1
    22     4     5    2
    23     4     9    1
    24     5     6    1
    25     9     8    2
    26     6     7    2
    27     8     7    1
    28     7    10    1
    29    13    12    1
    30    19    18    1
    31    19    14    2
    32    12    10   am
    33    12    14    1
    34    10    11    2
    35    18    17    2
    36    14    15    1
    37    17    16    1
    38    15    16    2
