@<TRIPOS>MOLECULE
24286_out_ligand_01.pdbqt
 34 37 0 0 0
SMALL
GASTEIGER

@<TRIPOS>ATOM
      1  C         15.9910  -23.7700   -6.1200 C.2     1  UNL1        0.0540
      2  C         14.9000  -23.7040   -5.2410 C.2     1  UNL1        0.0190
      3  C         15.1160  -23.5640   -3.8680 C.2     1  UNL1        0.0010
      4  C         16.4160  -23.5000   -3.3670 C.2     1  UNL1        0.0020
      5  C         17.5070  -23.5770   -4.2350 C.2     1  UNL1        0.0250
      6  C         17.3010  -23.7220   -5.6090 C.2     1  UNL1        0.0380
      7  N         18.4480  -23.7160   -6.4750 N.pl3   1  UNL1       -0.1800
      8  H         18.2680  -24.1750   -7.3830 H       1  UNL1        0.1460
      9  S         19.1190  -22.1890   -6.8100 S.O2    1  UNL1        0.2460
     10  O         19.6140  -21.6020   -5.5820 O.2     1  UNL1       -0.2060
     11  O         18.1820  -21.4870   -7.6590 O.2     1  UNL1       -0.2060
     12  C         20.5090  -22.6110   -7.8360 C.2     1  UNL1        0.0770
     13  C         20.6580  -23.9530   -8.2610 C.2     1  UNL1        0.0270
     14  C         21.7360  -24.3210   -9.0700 C.2     1  UNL1        0.0340
     15  C         22.6140  -23.3220   -9.4190 C.ar    1  UNL1        0.0710
     16  N         23.7450  -23.3590  -10.1800 N.ar    1  UNL1       -0.3000
     17  C         22.4680  -22.0100   -9.0110 C.ar    1  UNL1        0.1090
     18  C         24.2660  -22.0860  -10.2240 C.ar    1  UNL1        0.3700
     19  H         24.1610  -24.1520  -10.6430 H       1  UNL1        0.1710
     20  O         25.2870  -21.7710  -10.8170 O.2     1  UNL1       -0.2380
     21  O         23.4790  -21.1900   -9.4890 O.2     1  UNL1       -0.2590
     22  C         21.4170  -21.6130   -8.2150 C.2     1  UNL1        0.0640
     23  C         15.7750  -23.9360   -7.5830 C.2     1  UNL1        0.2530
     24  N         15.6080  -22.7830   -8.3140 N.am    1  UNL1       -0.3530
     25  H         15.8890  -21.9030   -7.9010 H       1  UNL1        0.1630
     26  O         15.7820  -25.0610   -8.0740 O.2     1  UNL1       -0.2680
     27  C         15.5630  -22.8330   -9.7570 C.3     1  UNL1        0.1610
     28  C         16.8640  -22.3520  -10.3400 C.2     1  UNL1       -0.0410
     29  C         16.9990  -21.0370  -10.8060 C.2     1  UNL1        0.0090
     30  C         18.2010  -20.6060  -11.3720 C.2     1  UNL1        0.0070
     31  C         19.2920  -21.4780  -11.4780 C.2     1  UNL1       -0.0620
     32  C         20.5750  -21.0260  -12.1100 C.3     1  UNL1        0.0480
     33  C         19.1500  -22.7980  -11.0350 C.2     1  UNL1        0.0070
     34  C         17.9480  -23.2320  -10.4710 C.2     1  UNL1        0.0090
@<TRIPOS>BOND
     1    32    31    1
     2    31    30    2
     3    31    33    1
     4    30    29    1
     5    33    34    2
     6    20    18    2
     7    29    28    2
     8    19    16    1
     9    34    28    1
    10    28    27    1
    11    18    16   ar
    12    18    21   ar
    13    16    15   ar
    14    27    24    1
    15    21    17   ar
    16    15    14    2
    17    15    17   ar
    18    14    13    1
    19    17    22    2
    20    24    25    1
    21    24    23   am
    22    13    12    2
    23    22    12    1
    24    26    23    2
    25    12     9    1
    26    11     9    2
    27    23     1    1
    28     8     7    1
    29     9     7    1
    30     9    10    2
    31     7     6    1
    32     1     6    2
    33     1     2    1
    34     6     5    1
    35     2     3    2
    36     5     4    2
    37     3     4    1
