@<TRIPOS>MOLECULE
24284_out_ligand_01.pdbqt
 42 45 0 0 0
SMALL
GASTEIGER

@<TRIPOS>ATOM
      1  C         20.2690  -23.0070  -10.3150 C.2     1  UNL1        0.2580
      2  O         20.4410  -24.1340   -9.8590 O.2     1  UNL1       -0.2670
      3  N         21.2270  -22.1690  -10.8550 N.am    1  UNL1       -0.3220
      4  H         20.8870  -21.3180  -11.2810 H       1  UNL1        0.1690
      5  C         18.8760  -22.4730  -10.3270 C.2     1  UNL1        0.0540
      6  C         18.4590  -21.5810  -11.3270 C.2     1  UNL1        0.0190
      7  C         17.1520  -21.0870  -11.3250 C.2     1  UNL1        0.0010
      8  C         16.2610  -21.4710  -10.3230 C.2     1  UNL1        0.0020
      9  C         16.6750  -22.3390   -9.3120 C.2     1  UNL1        0.0250
     10  C         17.9830  -22.8310   -9.3000 C.2     1  UNL1        0.0380
     11  N         18.3520  -23.7600   -8.2730 N.pl3   1  UNL1       -0.1800
     12  H         18.6430  -24.6790   -8.6410 H       1  UNL1        0.1460
     13  S         17.1960  -24.0420   -7.0590 S.O2    1  UNL1        0.2460
     14  O         15.8950  -23.6710   -7.5780 O.2     1  UNL1       -0.2060
     15  O         17.4410  -25.3710   -6.5430 O.2     1  UNL1       -0.2060
     16  C         17.6660  -22.8750   -5.7900 C.2     1  UNL1        0.0810
     17  C         17.0210  -22.8370   -4.5390 C.2     1  UNL1       -0.0390
     18  C         17.4460  -21.8760   -3.6070 C.2     1  UNL1        0.0090
     19  C         15.8730  -23.7340   -4.1670 C.3     1  UNL1        0.0500
     20  C         18.4850  -20.9910   -3.9030 C.2     1  UNL1        0.0070
     21  C         19.1280  -21.0380   -5.1420 C.2     1  UNL1       -0.0600
     22  C         20.2070  -20.0510   -5.4770 C.3     1  UNL1        0.0480
     23  C         18.7030  -21.9750   -6.0890 C.2     1  UNL1        0.0320
     24  C         22.6190  -22.4000  -10.9750 C.2     1  UNL1        0.0420
     25  C         23.2170  -22.7600  -12.1870 C.2     1  UNL1        0.0550
     26  C         24.6000  -22.9540  -12.2620 C.2     1  UNL1        0.0820
     27  C         25.4040  -22.8400  -11.1290 C.2     1  UNL1        0.0260
     28  C         24.8170  -22.4910   -9.9160 C.2     1  UNL1        0.0100
     29  C         23.4320  -22.2630   -9.8240 C.2     1  UNL1       -0.0350
     30  C         22.8670  -21.8840   -8.4780 C.3     1  UNL1        0.0500
     31  S         25.3510  -23.3780  -13.8170 S.O2    1  UNL1        0.2630
     32  O         25.6960  -24.7840  -13.7580 O.2     1  UNL1       -0.2000
     33  O         24.5310  -22.8580  -14.8880 O.2     1  UNL1       -0.2000
     34  N         26.8170  -22.5450  -13.7700 N.pl3   1  UNL1       -0.2810
     35  H         27.4050  -22.8520  -12.9980 H       1  UNL1        0.1790
     36  C         26.8830  -21.1800  -14.1650 C.2     1  UNL1        0.0420
     37  C         26.7840  -20.1980  -13.1750 C.2     1  UNL1        0.0320
     38  C         26.8340  -18.8450  -13.5240 C.2     1  UNL1        0.0260
     39  C         26.9880  -18.4790  -14.8590 C.2     1  UNL1        0.0340
     40 CL         27.0570  -16.8110  -15.2780 Cl      1  UNL1       -0.0840
     41  C         27.1000  -19.4550  -15.8470 C.2     1  UNL1        0.0260
     42  C         27.0500  -20.8070  -15.4990 C.2     1  UNL1        0.0320
@<TRIPOS>BOND
     1    41    42    1
     2    41    39    2
     3    42    36    2
     4    40    39    1
     5    33    31    2
     6    39    38    1
     7    36    34    1
     8    36    37    1
     9    31    34    1
    10    31    32    2
    11    31    26    1
    12    34    35    1
    13    38    37    2
    14    26    25    1
    15    26    27    2
    16    25    24    2
    17     6     7    1
    18     6     5    2
    19     7     8    2
    20     4     3    1
    21    27    28    1
    22    24     3    1
    23    24    29    1
    24     3     1   am
    25     5     1    1
    26     5    10    1
    27     8     9    1
    28     1     2    2
    29    28    29    2
    30    29    30    1
    31     9    10    2
    32    10    11    1
    33    12    11    1
    34    11    13    1
    35    14    13    2
    36    13    15    2
    37    13    16    1
    38    23    16    2
    39    23    21    1
    40    16    17    1
    41    22    21    1
    42    21    20    2
    43    17    19    1
    44    17    18    2
    45    20    18    1
