@<TRIPOS>MOLECULE
24296_out_ligand_01.pdbqt
 42 46 0 0 0
SMALL
GASTEIGER

@<TRIPOS>ATOM
      1  C         20.5960  -23.1300   -9.8980 C.2     1  UNL1        0.2560
      2  O         20.4390  -24.0550   -9.1110 O.2     1  UNL1       -0.2670
      3  N         19.6040  -22.3510  -10.4650 N.am    1  UNL1       -0.3230
      4  H         19.8750  -21.7330  -11.2180 H       1  UNL1        0.1690
      5  C         21.9860  -22.8150  -10.3440 C.2     1  UNL1        0.0320
      6  C         22.1560  -22.0760  -11.5250 C.2     1  UNL1        0.0180
      7  C         23.4370  -21.7780  -11.9960 C.2     1  UNL1        0.0260
      8  C         24.5510  -22.2250  -11.2810 C.2     1  UNL1        0.0790
      9  C         24.3980  -22.9760  -10.1110 C.2     1  UNL1        0.0260
     10  C         23.1140  -23.2750   -9.6460 C.2     1  UNL1        0.0180
     11  S         26.1780  -21.8700  -11.9100 S.O2    1  UNL1        0.2610
     12  O         27.1180  -22.2490  -10.8790 O.2     1  UNL1       -0.2000
     13  O         26.1520  -20.5290  -12.4520 O.2     1  UNL1       -0.2000
     14  N         26.3030  -22.9570  -13.1710 N.3     1  UNL1       -0.3010
     15  C         25.2320  -23.9030  -13.5230 C.3     1  UNL1        0.1450
     16  C         25.5220  -24.2590  -15.0030 C.3     1  UNL1       -0.0250
     17  C         27.0260  -23.9940  -15.1110 C.3     1  UNL1        0.0360
     18  C         25.1760  -25.7160  -15.3080 C.3     1  UNL1        0.0170
     19  C         24.8020  -23.3200  -16.0000 C.3     1  UNL1        0.0190
     20  C         27.1170  -22.6680  -14.3630 C.3     1  UNL1        0.0970
     21  C         26.5370  -21.5320  -15.2110 C.3     1  UNL1        0.0340
     22  C         25.1600  -21.8090  -15.8910 C.3     1  UNL1       -0.0450
     23  C         25.1950  -21.2060  -17.3160 C.3     1  UNL1        0.0150
     24  C         24.0280  -21.0650  -15.1530 C.3     1  UNL1        0.0150
     25  C         18.2260  -22.3710  -10.1590 C.2     1  UNL1        0.0360
     26  C         17.2330  -21.8380  -10.9870 C.2     1  UNL1        0.0290
     27  C         15.8820  -21.9190  -10.6310 C.2     1  UNL1        0.0040
     28  C         15.5070  -22.5320   -9.4390 C.2     1  UNL1        0.0250
     29  C         16.4960  -23.0470   -8.6010 C.2     1  UNL1        0.0820
     30  C         17.8480  -22.9860   -8.9620 C.2     1  UNL1        0.0540
     31  S         16.0270  -23.8320   -7.0780 S.O2    1  UNL1        0.2630
     32  O         15.2460  -22.8790   -6.3190 O.2     1  UNL1       -0.2000
     33  O         15.5040  -25.1440   -7.3980 O.2     1  UNL1       -0.2000
     34  N         17.4980  -24.0030   -6.2590 N.pl3   1  UNL1       -0.2790
     35  H         17.5620  -24.9210   -5.8170 H       1  UNL1        0.1790
     36  C         17.9790  -22.9040   -5.4750 C.2     1  UNL1        0.0640
     37  C         18.7550  -21.9100   -6.0750 C.2     1  UNL1        0.0320
     38  C         19.2010  -20.8200   -5.3240 C.2     1  UNL1        0.0020
     39  C         18.8730  -20.7190   -3.9720 C.2     1  UNL1        0.0020
     40  C         18.1030  -21.7110   -3.3650 C.2     1  UNL1        0.0260
     41  C         17.6600  -22.8030   -4.1120 C.2     1  UNL1        0.0610
     42 CL         16.7210  -24.0210   -3.3260 Cl      1  UNL1       -0.0820
@<TRIPOS>BOND
     1    23    22    1
     2    19    22    1
     3    19    16    1
     4    22    21    1
     5    22    24    1
     6    18    16    1
     7    21    20    1
     8    17    16    1
     9    17    20    1
    10    16    15    1
    11    20    14    1
    12    15    14    1
    13    14    11    1
    14    13    11    2
    15     7     6    1
    16     7     8    2
    17    11     8    1
    18    11    12    2
    19     6     5    2
    20     8     9    1
    21     4     3    1
    22    26    27    1
    23    26    25    2
    24    27    28    2
    25     3    25    1
    26     3     1   am
    27     5     1    1
    28     5    10    1
    29    25    30    1
    30     9    10    2
    31     1     2    2
    32    28    29    1
    33    30    29    2
    34    29    31    1
    35    33    31    2
    36    31    32    2
    37    31    34    1
    38    34    35    1
    39    34    36    1
    40    37    36    2
    41    37    38    1
    42    36    41    1
    43    38    39    2
    44    41    40    2
    45    41    42    1
    46    39    40    1
