@<TRIPOS>MOLECULE
24297_out_ligand_01.pdbqt
 30 32 0 0 0
SMALL
GASTEIGER

@<TRIPOS>ATOM
      1  C         22.5560  -22.3400  -11.2260 C.2     1  UNL1       -0.0190
      2  C         22.1600  -21.5960  -12.3470 C.2     1  UNL1        0.0100
      3  C         20.8430  -21.1540  -12.4820 C.2     1  UNL1        0.0030
      4  C         19.8930  -21.4480  -11.5030 C.2     1  UNL1        0.0290
      5  C         20.2500  -22.1890  -10.3810 C.2     1  UNL1        0.0350
      6  C         21.5760  -22.6280  -10.2530 C.2     1  UNL1        0.0390
      7  N         19.3600  -22.5190   -9.3370 N.am    1  UNL1       -0.3230
      8  C         18.0550  -22.9590   -9.4560 C.2     1  UNL1        0.2560
      9  O         17.4580  -23.2240  -10.4920 O.2     1  UNL1       -0.2670
     10  H         19.7490  -22.4830   -8.4030 H       1  UNL1        0.1690
     11  C         17.3420  -23.1640   -8.1630 C.2     1  UNL1        0.0320
     12  C         16.1410  -22.4790   -7.9450 C.2     1  UNL1        0.0180
     13  C         15.4460  -22.6420   -6.7440 C.2     1  UNL1        0.0170
     14  C         15.9440  -23.4890   -5.7410 C.2     1  UNL1        0.0480
     15  C         17.1640  -24.1520   -5.9570 C.2     1  UNL1        0.0170
     16  C         17.8610  -23.9910   -7.1580 C.2     1  UNL1        0.0180
     17  C         15.2030  -23.6430   -4.4340 C.3     1  UNL1        0.4170
     18  F         14.1520  -24.5070   -4.5160 F       1  UNL1       -0.1660
     19  F         14.6850  -22.4700   -3.9730 F       1  UNL1       -0.1660
     20  F         16.0020  -24.1180   -3.4400 F       1  UNL1       -0.1660
     21  C         23.9810  -22.8560  -11.0510 C.3     1  UNL1        0.1390
     22  C         24.2040  -23.4760   -9.6700 C.3     1  UNL1        0.0540
     23  N         24.3820  -23.7940  -12.0830 N.am    1  UNL1       -0.3210
     24  C         25.4590  -23.3590  -12.8130 C.2     1  UNL1        0.3240
     25  H         24.0020  -24.7200  -12.2200 H       1  UNL1        0.1650
     26  O         26.0120  -24.0000  -13.6870 O.2     1  UNL1       -0.2470
     27  N         25.8080  -22.1300  -12.3800 N.am    1  UNL1       -0.2770
     28  C         25.0480  -21.7600  -11.3130 C.2     1  UNL1        0.2580
     29  H         26.5960  -21.6120  -12.7300 H       1  UNL1        0.1730
     30  O         25.2170  -20.7340  -10.6670 O.2     1  UNL1       -0.2700
@<TRIPOS>BOND
     1    26    24    2
     2    24    27   am
     3    24    23   am
     4    29    27    1
     5     3     2    1
     6     3     4    2
     7    27    28   am
     8     2     1    2
     9    25    23    1
    10    23    21    1
    11     4     5    1
    12    28    21    1
    13    28    30    2
    14     1    21    1
    15     1     6    1
    16    21    22    1
    17     9     8    2
    18     5     6    2
    19     5     7    1
    20     8     7   am
    21     8    11    1
    22     7    10    1
    23    11    12    2
    24    11    16    1
    25    12    13    1
    26    16    15    2
    27    13    14    2
    28    15    14    1
    29    14    17    1
    30    18    17    1
    31    17    19    1
    32    17    20    1
