@<TRIPOS>MOLECULE
2430_out_ligand_01.pdbqt
 36 39 0 0 0
SMALL
GASTEIGER

@<TRIPOS>ATOM
      1  C         20.1700  -21.9040   -6.7510 C.2     1  UNL1        0.0760
      2  C         21.2340  -21.0020   -6.7880 C.2     1  UNL1        0.0380
      3  C         22.3340  -21.2670   -7.6050 C.2     1  UNL1        0.0200
      4  C         22.3470  -22.4110   -8.4100 C.2     1  UNL1        0.0320
      5  C         21.2730  -23.3130   -8.3750 C.2     1  UNL1        0.0200
      6  C         20.1800  -23.0540   -7.5470 C.2     1  UNL1        0.0380
      7  O         19.0940  -21.5970   -5.9480 O.2     1  UNL1       -0.3110
      8  C         17.9000  -22.1730   -6.3190 C.2     1  UNL1        0.0790
      9  C         17.4690  -22.1580   -7.6500 C.2     1  UNL1        0.0560
     10  C         16.2630  -22.7720   -8.0000 C.2     1  UNL1        0.0100
     11  C         15.4990  -23.4160   -7.0200 C.2     1  UNL1        0.0550
     12  C         15.9550  -23.4410   -5.6940 C.2     1  UNL1        0.1060
     13  C         17.1620  -22.8300   -5.3370 C.2     1  UNL1        0.0730
     14  S         15.7230  -22.7520   -9.7000 S.3     1  UNL1       -0.0900
     15  C         17.2220  -22.2250  -10.5090 C.2     1  UNL1        0.0050
     16  C         17.3150  -20.9590  -11.0930 C.2     1  UNL1        0.0190
     17  C         18.5000  -20.5560  -11.7170 C.2     1  UNL1        0.0080
     18  C         19.6020  -21.4180  -11.7750 C.2     1  UNL1       -0.0620
     19  C         20.8780  -20.9660  -12.4230 C.3     1  UNL1        0.0480
     20  C         19.5090  -22.6810  -11.1790 C.2     1  UNL1        0.0080
     21  C         18.3270  -23.0810  -10.5470 C.2     1  UNL1        0.0190
     22  N         15.1550  -24.1170   -4.6670 N.pl3   1  UNL1       -0.1160
     23  O         15.7020  -24.3680   -3.5850 O.2     1  UNL1       -0.5320
     24  O         13.9780  -24.3890   -4.9400 O.2     1  UNL1       -0.5320
     25  C         23.5240  -22.6550   -9.2850 C.2     1  UNL1        0.2560
     26  O         24.1280  -23.7120   -9.1570 O.2     1  UNL1       -0.2670
     27  N         23.8270  -21.6020  -10.1320 N.am    1  UNL1       -0.3220
     28  H         23.3000  -20.7530   -9.9820 H       1  UNL1        0.1690
     29  C         24.8600  -21.5360  -11.1020 C.2     1  UNL1        0.0420
     30  C         25.9840  -20.7200  -10.9180 C.2     1  UNL1        0.0300
     31  C         27.0010  -20.6700  -11.8710 C.2     1  UNL1        0.0040
     32  C         26.9110  -21.4380  -13.0210 C.2     1  UNL1        0.0240
     33  C         25.8010  -22.2630  -13.2240 C.2     1  UNL1        0.0420
     34 CL         25.7890  -23.1860  -14.6870 Cl      1  UNL1       -0.0840
     35  C         24.7570  -22.3270  -12.2760 C.2     1  UNL1       -0.0130
     36  C         23.5530  -23.2140  -12.4950 C.3     1  UNL1        0.0520
@<TRIPOS>BOND
     1    34    33    1
     2    33    32    2
     3    33    35    1
     4    32    31    1
     5    36    35    1
     6    19    18    1
     7    35    29    2
     8    31    30    2
     9    18    17    2
    10    18    20    1
    11    17    16    1
    12    20    21    2
    13    29    30    1
    14    29    27    1
    15    16    15    2
    16    21    15    1
    17    15    14    1
    18    27    28    1
    19    27    25   am
    20    14    10    1
    21    25    26    2
    22    25     4    1
    23     4     5    2
    24     4     3    1
    25     5     6    1
    26    10     9    1
    27    10    11    2
    28     9     8    2
    29     3     2    2
    30     6     1    2
    31    11    12    1
    32     2     1    1
    33     1     7    1
    34     8     7    1
    35     8    13    1
    36    12    13    2
    37    12    22    1
    38    24    22    2
    39    22    23    2
