@<TRIPOS>MOLECULE
24306_out_ligand_01.pdbqt
 36 41 0 0 0
SMALL
GASTEIGER

@<TRIPOS>ATOM
      1  C         21.8960  -21.8090  -12.0920 C.2     1  UNL1        0.0320
      2  C         22.7360  -22.8940  -11.8030 C.2     1  UNL1        0.0180
      3  C         23.7820  -23.2250  -12.6670 C.2     1  UNL1        0.0260
      4  C         23.9700  -22.4750  -13.8310 C.2     1  UNL1        0.0800
      5  C         23.1340  -21.3960  -14.1350 C.2     1  UNL1        0.0260
      6  C         22.0900  -21.0660  -13.2660 C.2     1  UNL1        0.0180
      7  C         20.7880  -21.4980  -11.1430 C.2     1  UNL1        0.2570
      8  O         20.3020  -20.3750  -11.1840 O.2     1  UNL1       -0.2670
      9  N         20.4170  -22.5460  -10.3350 N.am    1  UNL1       -0.3010
     10  H         20.8120  -23.4650  -10.4790 H       1  UNL1        0.1710
     11  C         19.4540  -22.5360   -9.3580 C.ar    1  UNL1        0.1740
     12  N         18.1890  -22.6510   -9.6750 N.ar    1  UNL1       -0.2230
     13  C         17.4160  -22.6220   -8.5240 C.ar    1  UNL1        0.0770
     14  C         16.0120  -22.7140   -8.4880 C.2     1  UNL1        0.0340
     15  C         18.1210  -22.4910   -7.3230 C.ar    1  UNL1        0.0480
     16  C         15.3370  -22.6750   -7.2640 C.2     1  UNL1        0.0140
     17  C         16.0350  -22.5440   -6.0600 C.2     1  UNL1       -0.0250
     18  C         15.3600  -22.5040   -4.8300 C.2     1  UNL1        0.0120
     19  C         17.4490  -22.4490   -6.0660 C.2     1  UNL1       -0.0060
     20  C         16.0650  -22.3730   -3.6310 C.2     1  UNL1        0.0010
     21  C         17.4550  -22.2800   -3.6390 C.2     1  UNL1        0.0010
     22  C         18.1500  -22.3180   -4.8470 C.2     1  UNL1        0.0140
     23  S         19.8050  -22.4070   -7.7050 S.2     1  UNL1       -0.0490
     24  S         25.2970  -22.8760  -14.9560 S.O2    1  UNL1        0.2650
     25  O         25.1000  -24.2710  -15.2950 O.2     1  UNL1       -0.2000
     26  O         25.3210  -21.8540  -15.9830 O.2     1  UNL1       -0.2000
     27  N         26.6890  -22.6780  -13.9500 N.pl3   1  UNL1       -0.2710
     28  C         27.1190  -23.8980  -13.2100 C.3     1  UNL1        0.1420
     29  C         26.4270  -23.9950  -11.8600 C.3     1  UNL1        0.0260
     30  C         26.7730  -22.7890  -11.0030 C.3     1  UNL1        0.0420
     31  C         26.7090  -21.4920  -11.7650 C.2     1  UNL1       -0.0310
     32  C         26.7250  -20.2880  -11.0410 C.2     1  UNL1        0.0090
     33  C         26.7130  -21.4530  -13.1710 C.2     1  UNL1        0.0510
     34  C         26.7460  -19.0610  -11.7010 C.2     1  UNL1        0.0010
     35  C         26.7690  -19.0240  -13.0910 C.2     1  UNL1        0.0020
     36  C         26.7600  -20.2140  -13.8200 C.2     1  UNL1        0.0310
@<TRIPOS>BOND
     1    26    24    2
     2    25    24    2
     3    24    27    1
     4    24     4    1
     5     5     4    2
     6     5     6    1
     7    27    28    1
     8    27    33    1
     9     4     3    1
    10    36    33    1
    11    36    35    2
    12     6     1    2
    13    28    29    1
    14    33    31    2
    15    35    34    1
    16     3     2    2
    17     1     2    1
    18     1     7    1
    19    29    30    1
    20    31    32    1
    21    31    30    1
    22    34    32    2
    23     8     7    2
    24     7     9   am
    25    10     9    1
    26     9    11    1
    27    12    11   ar
    28    12    13   ar
    29    11    23   ar
    30    13    14    2
    31    13    15   ar
    32    14    16    1
    33    23    15   ar
    34    15    19    2
    35    16    17    2
    36    19    17    1
    37    19    22    1
    38    17    18    1
    39    22    21    2
    40    18    20    2
    41    21    20    1
