@<TRIPOS>MOLECULE
24328_out_ligand_01.pdbqt
 25 27 0 0 0
SMALL
GASTEIGER

@<TRIPOS>ATOM
      1  C         21.0040  -21.6120  -11.7660 C.2     1  UNL1        0.0400
      2  C         19.8980  -20.8320  -12.1260 C.2     1  UNL1        0.0180
      3  C         18.7050  -20.9590  -11.4280 C.2     1  UNL1        0.0030
      4  C         18.6170  -21.8490  -10.3560 C.2     1  UNL1        0.0300
      5  C         19.7220  -22.6100   -9.9440 C.2     1  UNL1        0.0440
      6  C         20.9270  -22.5190  -10.6810 C.2     1  UNL1       -0.0150
      7  C         22.1130  -23.3990  -10.3470 C.3     1  UNL1        0.0430
      8  C         21.9860  -24.1020   -9.0050 C.3     1  UNL1        0.0250
      9  C         20.5760  -24.6350   -8.8490 C.3     1  UNL1        0.1320
     10  N         19.6260  -23.5250   -8.8460 N.am    1  UNL1       -0.3170
     11  C         18.6820  -23.5080   -7.8180 C.2     1  UNL1        0.2280
     12  O         18.3460  -24.5410   -7.2300 O.2     1  UNL1       -0.2730
     13  C         18.1440  -22.1560   -7.3550 C.3     1  UNL1        0.1450
     14  C         17.0910  -22.2990   -6.2820 C.2     1  UNL1       -0.0110
     15  C         17.4200  -22.2250   -4.9220 C.2     1  UNL1        0.0110
     16  C         16.4240  -22.3490   -3.9500 C.2     1  UNL1        0.0010
     17  C         15.0930  -22.5420   -4.3250 C.2     1  UNL1        0.0030
     18  C         14.7560  -22.6080   -5.6750 C.2     1  UNL1        0.0430
     19  C         15.7510  -22.4830   -6.6390 C.2     1  UNL1        0.1230
     20  F         15.4130  -22.5500   -7.9350 F       1  UNL1       -0.2060
     21  C         22.2410  -21.4780  -12.5840 C.2     1  UNL1        0.2490
     22  N         22.0860  -20.9080  -13.8180 N.am    1  UNL1       -0.3660
     23  H         21.2470  -20.4050  -14.0730 H       1  UNL1        0.1590
     24  H         22.9350  -20.7050  -14.3290 H       1  UNL1        0.1590
     25  O         23.3380  -21.8360  -12.1830 O.2     1  UNL1       -0.2680
@<TRIPOS>BOND
     1    24    22    1
     2    23    22    1
     3    22    21   am
     4    21    25    2
     5    21     1    1
     6     2     1    2
     7     2     3    1
     8     1     6    1
     9     3     4    2
    10     6     7    1
    11     6     5    2
    12     4     5    1
    13     7     8    1
    14     5    10    1
    15     8     9    1
    16     9    10    1
    17    10    11   am
    18    20    19    1
    19    11    13    1
    20    11    12    2
    21    13    14    1
    22    19    14    2
    23    19    18    1
    24    14    15    1
    25    18    17    2
    26    15    16    2
    27    17    16    1
