@<TRIPOS>MOLECULE
24321_out_ligand_01.pdbqt
 38 41 0 0 0
SMALL
GASTEIGER

@<TRIPOS>ATOM
      1  C         20.2130  -22.2170   -7.1940 C.2     1  UNL1        0.0330
      2  C         20.7160  -21.0860   -6.5320 C.2     1  UNL1        0.0170
      3  C         20.0190  -20.5240   -5.4600 C.2     1  UNL1        0.0030
      4  C         18.8160  -21.0890   -5.0380 C.2     1  UNL1        0.0250
      5  C         18.3290  -22.2290   -5.6830 C.2     1  UNL1        0.0800
      6  C         19.0220  -22.8050   -6.7540 C.2     1  UNL1        0.0420
      7  C         20.9910  -22.7730   -8.3430 C.2     1  UNL1        0.2570
      8  N         21.7840  -21.8560   -8.9950 N.am    1  UNL1       -0.3010
      9  H         21.9110  -20.9280   -8.6160 H       1  UNL1        0.1710
     10  O         20.8940  -23.9710   -8.5760 O.2     1  UNL1       -0.2670
     11  C         22.5520  -22.0700  -10.1130 C.ar    1  UNL1        0.1740
     12  N         22.2330  -21.5070  -11.2550 N.ar    1  UNL1       -0.2230
     13  C         23.1140  -21.9190  -12.2380 C.ar    1  UNL1        0.0770
     14  C         23.0760  -21.5320  -13.5960 C.2     1  UNL1        0.0340
     15  C         24.1100  -22.8020  -11.8130 C.ar    1  UNL1        0.0380
     16  C         24.0180  -22.0430  -14.4930 C.2     1  UNL1        0.0260
     17  C         25.0030  -22.9210  -14.0370 C.2     1  UNL1        0.0600
     18  C         25.0700  -23.3230  -12.6950 C.2     1  UNL1        0.0440
     19  S         23.9100  -23.0890  -10.1280 S.2     1  UNL1       -0.0500
     20  S         26.1690  -23.5990  -15.1990 S.O2    1  UNL1        0.1710
     21  C         27.0970  -24.7530  -14.2220 C.3     1  UNL1        0.1670
     22  O         27.0610  -22.5230  -15.5930 O.2     1  UNL1       -0.2230
     23  O         25.4170  -24.3450  -16.1890 O.2     1  UNL1       -0.2230
     24  S         16.8090  -22.9720   -5.1410 S.O2    1  UNL1        0.2630
     25  O         16.4070  -22.3170   -3.9100 O.2     1  UNL1       -0.2000
     26  O         17.0190  -24.4010   -5.1980 O.2     1  UNL1       -0.2000
     27  N         15.7130  -22.5990   -6.3470 N.pl3   1  UNL1       -0.2810
     28  H         15.0000  -21.9320   -6.0460 H       1  UNL1        0.1790
     29  C         15.8930  -22.8410   -7.7400 C.2     1  UNL1        0.0430
     30  C         15.3500  -24.0290   -8.2420 C.2     1  UNL1        0.0300
     31  C         15.5110  -24.3780   -9.5840 C.2     1  UNL1        0.0030
     32  C         16.2380  -23.5490  -10.4360 C.2     1  UNL1        0.0160
     33  C         16.8130  -22.3630   -9.9490 C.2     1  UNL1        0.0500
     34  C         16.6310  -22.0190   -8.5960 C.2     1  UNL1        0.0460
     35  C         17.5900  -21.4540  -10.8760 C.3     1  UNL1        0.4170
     36  F         18.8500  -21.1880  -10.4210 F       1  UNL1       -0.1660
     37  F         16.9970  -20.2420  -11.0580 F       1  UNL1       -0.1660
     38  F         17.7440  -21.9890  -12.1200 F       1  UNL1       -0.1660
@<TRIPOS>BOND
     1    23    20    2
     2    22    20    2
     3    20    21    1
     4    20    17    1
     5    16    17    2
     6    16    14    1
     7    17    18    1
     8    14    13    2
     9    18    15    2
    10    13    15   ar
    11    13    12   ar
    12    38    35    1
    13    15    19   ar
    14    12    11   ar
    15    37    35    1
    16    35    36    1
    17    35    33    1
    18    32    33    2
    19    32    31    1
    20    19    11   ar
    21    11     8    1
    22    33    34    1
    23    31    30    2
    24     8     9    1
    25     8     7   am
    26    34    29    2
    27    10     7    2
    28     7     1    1
    29    30    29    1
    30    29    27    1
    31     1     6    2
    32     1     2    1
    33     6     5    1
    34     2     3    2
    35    27    28    1
    36    27    24    1
    37     5    24    1
    38     5     4    2
    39     3     4    1
    40    26    24    2
    41    24    25    2
