@<TRIPOS>MOLECULE
2432_out_ligand_01.pdbqt
 38 43 0 0 0
SMALL
GASTEIGER

@<TRIPOS>ATOM
      1  N         22.4280  -22.8260  -11.1850 N.am    1  UNL1       -0.3220
      2  C         23.5280  -22.0670  -10.8210 C.2     1  UNL1        0.2780
      3  O         23.6390  -21.4000   -9.7990 O.2     1  UNL1       -0.2650
      4  H         22.5470  -23.2910  -12.0830 H       1  UNL1        0.1690
      5  C         21.2190  -23.0120  -10.4980 C.2     1  UNL1        0.0350
      6  C         20.1190  -22.2580  -10.9310 C.2     1  UNL1        0.0310
      7  C         18.8800  -22.3740  -10.2960 C.2     1  UNL1        0.0270
      8  C         18.7440  -23.2390   -9.2100 C.2     1  UNL1        0.0800
      9  C         19.8230  -24.0180   -8.7860 C.2     1  UNL1        0.0270
     10  C         21.0610  -23.8960   -9.4280 C.2     1  UNL1        0.0310
     11  S         17.1720  -23.3960   -8.3940 S.O2    1  UNL1        0.2630
     12  O         16.1380  -23.3520   -9.4070 O.2     1  UNL1       -0.2000
     13  O         17.2660  -24.5120   -7.4760 O.2     1  UNL1       -0.2000
     14  N         17.0940  -22.0130   -7.4330 N.pl3   1  UNL1       -0.2800
     15  H         16.6710  -21.2280   -7.9230 H       1  UNL1        0.1790
     16  C         16.8890  -22.1260   -6.0270 C.2     1  UNL1        0.0480
     17  C         15.6640  -22.5960   -5.5440 C.2     1  UNL1        0.0300
     18  C         15.4360  -22.6980   -4.1720 C.2     1  UNL1        0.0020
     19  C         16.4360  -22.3380   -3.2760 C.2     1  UNL1        0.0010
     20  C         17.6670  -21.8800   -3.7500 C.2     1  UNL1        0.0090
     21  C         17.9100  -21.7670   -5.1290 C.2     1  UNL1       -0.0350
     22  C         19.2550  -21.2850   -5.5950 C.3     1  UNL1        0.0500
     23  C         24.5920  -22.1440  -11.8410 C.2     1  UNL1        0.1680
     24  N         24.3410  -21.7720  -13.1200 N.2     1  UNL1       -0.1650
     25  N         25.5110  -21.9630  -13.7660 N.pl3   1  UNL1       -0.2690
     26  C         26.4920  -22.4450  -12.9450 C.2     1  UNL1        0.1390
     27  C         25.9330  -22.5710  -11.6980 C.2     1  UNL1        0.0870
     28 CL         26.7160  -23.1250  -10.3010 Cl      1  UNL1       -0.0800
     29  C         25.6320  -21.6670  -15.2030 C.3     1  UNL1        0.0560
     30  C         26.9520  -22.2660  -15.7600 C.3     1  UNL1        0.0380
     31  C         27.1120  -21.9410  -17.2560 C.3     1  UNL1       -0.0110
     32  C         25.9320  -22.5410  -18.0350 C.3     1  UNL1        0.0090
     33  C         27.1210  -20.4150  -17.4460 C.3     1  UNL1        0.0090
     34  C         24.6100  -21.9450  -17.5270 C.3     1  UNL1       -0.0110
     35  C         24.6280  -20.4210  -17.7170 C.3     1  UNL1        0.0090
     36  C         24.4550  -22.2660  -16.0300 C.3     1  UNL1        0.0380
     37  C         25.8020  -19.8110  -16.9370 C.3     1  UNL1       -0.0110
     38  C         25.6400  -20.1320  -15.4410 C.3     1  UNL1        0.0380
@<TRIPOS>BOND
     1    32    34    1
     2    32    31    1
     3    35    34    1
     4    35    37    1
     5    34    36    1
     6    33    31    1
     7    33    37    1
     8    31    30    1
     9    37    38    1
    10    36    29    1
    11    30    29    1
    12    38    29    1
    13    29    25    1
    14    25    24    1
    15    25    26    1
    16    24    23    2
    17    26    27    2
    18     4     1    1
    19    23    27    1
    20    23     2    1
    21    27    28    1
    22     1     2   am
    23     1     5    1
    24     6     5    2
    25     6     7    1
    26     2     3    2
    27     5    10    1
    28     7     8    2
    29    10     9    2
    30    12    11    2
    31     8     9    1
    32     8    11    1
    33    11    13    2
    34    11    14    1
    35    15    14    1
    36    14    16    1
    37    16    17    2
    38    16    21    1
    39    22    21    1
    40    17    18    1
    41    21    20    2
    42    18    19    2
    43    20    19    1
