@<TRIPOS>MOLECULE
24336_out_ligand_01.pdbqt
 38 42 0 0 0
SMALL
GASTEIGER

@<TRIPOS>ATOM
      1  O         23.3570  -20.9350   -9.5570 O.2     1  UNL1       -0.2670
      2  C         23.3210  -22.0800   -9.9980 C.2     1  UNL1        0.2580
      3  N         22.2860  -22.6570  -10.7040 N.am    1  UNL1       -0.3220
      4  H         22.4680  -23.5660  -11.1370 H       1  UNL1        0.1690
      5  C         24.5390  -22.9290   -9.8540 C.2     1  UNL1        0.0540
      6  C         24.5960  -23.9330   -8.8740 C.2     1  UNL1        0.0190
      7  C         25.7290  -24.7410   -8.7620 C.2     1  UNL1        0.0010
      8  C         26.8110  -24.5490   -9.6190 C.2     1  UNL1        0.0020
      9  C         26.7690  -23.5420  -10.5840 C.2     1  UNL1        0.0250
     10  C         25.6440  -22.7220  -10.7010 C.2     1  UNL1        0.0380
     11  N         25.6360  -21.7170  -11.7280 N.pl3   1  UNL1       -0.1800
     12  H         25.0950  -20.8780  -11.4720 H       1  UNL1        0.1460
     13  S         25.2620  -22.1950  -13.3100 S.O2    1  UNL1        0.2450
     14  O         26.1780  -23.2600  -13.6570 O.2     1  UNL1       -0.2060
     15  O         23.8300  -22.3730  -13.4350 O.2     1  UNL1       -0.2060
     16  C         25.7160  -20.7710  -14.2810 C.2     1  UNL1        0.0740
     17  C         26.2430  -19.6440  -13.6420 C.2     1  UNL1        0.0260
     18  C         26.6190  -18.5340  -14.4010 C.2     1  UNL1        0.0200
     19  C         26.4720  -18.5610  -15.7880 C.2     1  UNL1        0.0110
     20 BR         26.9780  -17.0540  -16.8110 Br      1  UNL1       -0.0510
     21  C         25.9580  -19.6910  -16.4280 C.2     1  UNL1        0.0200
     22  C         25.5860  -20.8070  -15.6740 C.2     1  UNL1        0.0260
     23  C         21.0390  -22.0910  -11.0650 C.2     1  UNL1        0.0500
     24  C         20.9030  -21.2400  -12.1690 C.2     1  UNL1        0.0300
     25  C         19.6580  -20.7150  -12.5200 C.2     1  UNL1        0.0030
     26  C         18.5310  -21.0320  -11.7700 C.2     1  UNL1        0.0170
     27  C         18.6460  -21.8730  -10.6570 C.2     1  UNL1        0.0310
     28  C         19.8900  -22.3990  -10.2940 C.2     1  UNL1        0.0560
     29  C         17.4270  -22.1940   -9.8870 C.2     1  UNL1        0.1940
     30  C         19.9750  -23.2870   -9.1040 C.2     1  UNL1        0.1960
     31  O         21.0560  -23.7400   -8.7360 O.2     1  UNL1       -0.2860
     32  C         18.7500  -23.6350   -8.3570 C.2     1  UNL1        0.0290
     33  C         18.8290  -24.5040   -7.2600 C.2     1  UNL1        0.0160
     34  C         17.5190  -23.1080   -8.7360 C.2     1  UNL1        0.0290
     35  C         17.6760  -24.8410   -6.5500 C.2     1  UNL1        0.0010
     36  C         16.4430  -24.3120   -6.9310 C.2     1  UNL1        0.0010
     37  C         16.3620  -23.4460   -8.0220 C.2     1  UNL1        0.0160
     38  O         16.3470  -21.7070  -10.2020 O.2     1  UNL1       -0.2870
@<TRIPOS>BOND
     1    20    19    1
     2    21    19    2
     3    21    22    1
     4    19    18    1
     5    22    16    2
     6    18    17    2
     7    16    17    1
     8    16    13    1
     9    14    13    2
    10    15    13    2
    11    13    11    1
    12    25    24    1
    13    25    26    2
    14    24    23    2
    15    26    27    1
    16    11    12    1
    17    11    10    1
    18     4     3    1
    19    23     3    1
    20    23    28    1
    21     3     2   am
    22    10     9    1
    23    10     5    2
    24    27    28    2
    25    27    29    1
    26     9     8    2
    27    28    30    1
    28    38    29    2
    29     2     5    1
    30     2     1    2
    31    29    34    1
    32     5     6    1
    33     8     7    1
    34    30    31    2
    35    30    32    1
    36     6     7    2
    37    34    32    2
    38    34    37    1
    39    32    33    1
    40    37    36    2
    41    33    35    2
    42    36    35    1
