@<TRIPOS>MOLECULE
24344_out_ligand_01.pdbqt
 40 43 0 0 0
SMALL
GASTEIGER

@<TRIPOS>ATOM
      1  S         20.0760  -24.4440   -8.7740 S.O2    1  UNL1        0.2650
      2  O         20.5810  -25.7940   -8.9140 O.2     1  UNL1       -0.2000
      3  O         19.3550  -24.0220   -7.5930 O.2     1  UNL1       -0.2000
      4  C         21.4390  -23.3190   -8.9510 C.2     1  UNL1        0.1020
      5  C         21.5280  -22.1930   -8.1230 C.2     1  UNL1        0.0570
      6  C         22.6440  -21.3490   -8.2240 C.2     1  UNL1        0.0260
      7 CL         20.3150  -21.7290   -6.9790 Cl      1  UNL1       -0.0830
      8  C         23.6640  -21.6180   -9.1450 C.2     1  UNL1        0.0190
      9  C         23.5560  -22.7210  -10.0010 C.2     1  UNL1        0.0330
     10  C         22.4390  -23.5630   -9.9110 C.2     1  UNL1        0.0440
     11  C         24.6220  -23.0650  -10.9840 C.2     1  UNL1        0.2510
     12  O         25.8020  -22.9440  -10.6720 O.2     1  UNL1       -0.2680
     13  N         24.1900  -23.5260  -12.2040 N.am    1  UNL1       -0.3530
     14  H         23.2100  -23.7080  -12.3640 H       1  UNL1        0.1630
     15  C         25.1080  -23.9300  -13.2460 C.3     1  UNL1        0.1620
     16  C         25.0320  -22.9810  -14.4020 C.2     1  UNL1       -0.0230
     17  C         25.9150  -23.0580  -15.4840 C.2     1  UNL1        0.0120
     18  C         25.8410  -22.1110  -16.5010 C.2     1  UNL1        0.0200
     19  C         24.8770  -21.1190  -16.4030 C.2     1  UNL1        0.1160
     20  N         24.0030  -21.0170  -15.3820 N.2     1  UNL1       -0.2730
     21  C         24.1100  -21.9400  -14.4010 C.2     1  UNL1        0.1240
     22  N         19.0610  -24.1450  -10.0630 N.pl3   1  UNL1       -0.2800
     23  H         18.5910  -24.9790  -10.4470 H       1  UNL1        0.1790
     24  C         18.6340  -22.8680  -10.5540 C.2     1  UNL1        0.0580
     25  C         19.4580  -22.0720  -11.3590 C.2     1  UNL1        0.0310
     26  C         19.0040  -20.8370  -11.8370 C.2     1  UNL1        0.0020
     27  C         17.7150  -20.3930  -11.5400 C.2     1  UNL1        0.0010
     28  C         16.8720  -21.1780  -10.7530 C.2     1  UNL1        0.0190
     29  C         17.3270  -22.4060  -10.2430 C.2     1  UNL1        0.0590
     30  C         16.4170  -23.2330   -9.3910 C.2     1  UNL1        0.2540
     31  O         15.5660  -23.9500   -9.9180 O.2     1  UNL1       -0.2680
     32  N         16.6100  -23.1730   -8.0260 N.am    1  UNL1       -0.3530
     33  H         17.4770  -22.7950   -7.6640 H       1  UNL1        0.1630
     34  C         15.8030  -23.9660   -7.1220 C.3     1  UNL1        0.1620
     35  C         15.8810  -23.4660   -5.7070 C.2     1  UNL1       -0.0230
     36  C         16.9160  -23.8450   -4.8450 C.2     1  UNL1        0.0120
     37  C         16.9660  -23.3260   -3.5510 C.2     1  UNL1        0.0200
     38  C         15.9680  -22.4480   -3.1540 C.2     1  UNL1        0.1160
     39  N         14.9400  -22.0760   -3.9470 N.2     1  UNL1       -0.2730
     40  C         14.9170  -22.5930   -5.2020 C.2     1  UNL1        0.1240
@<TRIPOS>BOND
     1    18    19    2
     2    18    17    1
     3    19    20    1
     4    17    16    2
     5    20    21    2
     6    16    21    1
     7    16    15    1
     8    15    13    1
     9    14    13    1
    10    13    11   am
    11    26    27    2
    12    26    25    1
    13    27    28    1
    14    25    24    2
    15    11    12    2
    16    11     9    1
    17    28    29    2
    18    24    29    1
    19    24    22    1
    20    23    22    1
    21    29    30    1
    22    22     1    1
    23     9    10    1
    24     9     8    2
    25    31    30    2
    26    10     4    2
    27    30    32   am
    28     8     6    1
    29     4     1    1
    30     4     5    1
    31     2     1    2
    32     1     3    2
    33     6     5    2
    34     5     7    1
    35    32    33    1
    36    32    34    1
    37    34    35    1
    38    35    40    2
    39    35    36    1
    40    40    39    1
    41    36    37    2
    42    39    38    2
    43    37    38    1
