@<TRIPOS>MOLECULE
24347_out_ligand_01.pdbqt
 38 41 0 0 0
SMALL
GASTEIGER

@<TRIPOS>ATOM
      1  C         17.2200  -23.3220   -9.3180 C.2     1  UNL1        0.1130
      2  C         15.8880  -23.7550   -9.5720 C.1     1  UNL1        0.1050
      3  N         14.7980  -24.0670   -9.8250 N.1     1  UNL1       -0.1910
      4  C         18.0060  -22.9150  -10.3350 C.2     1  UNL1        0.0390
      5  C         17.6870  -23.3980   -7.9030 C.2     1  UNL1        0.2660
      6  N         17.4170  -22.2570   -7.1730 N.am    1  UNL1       -0.3210
      7  H         16.9190  -21.5110   -7.6540 H       1  UNL1        0.1690
      8  O         18.2350  -24.4190   -7.5080 O.2     1  UNL1       -0.2670
      9  C         17.7620  -21.9620   -5.8310 C.2     1  UNL1        0.0510
     10  C         18.8400  -21.1190   -5.5220 C.2     1  UNL1        0.0300
     11  C         19.1700  -20.8120   -4.1980 C.2     1  UNL1        0.0020
     12  C         18.4260  -21.3400   -3.1530 C.2     1  UNL1        0.0010
     13  C         17.3520  -22.1800   -3.4330 C.2     1  UNL1        0.0200
     14  C         17.0080  -22.5050   -4.7610 C.2     1  UNL1        0.0660
     15  C         15.8310  -23.4170   -4.9020 C.2     1  UNL1        0.2950
     16  O         15.6970  -24.4410   -4.2480 O.2     1  UNL1       -0.2590
     17  O         14.9600  -22.9900   -5.8540 O.3     1  UNL1       -0.3220
     18  C         14.1670  -21.8690   -5.4450 C.3     1  UNL1        0.2130
     19  C         19.4140  -22.5050  -10.2510 C.2     1  UNL1       -0.0330
     20  C         20.1240  -22.5530   -9.0410 C.2     1  UNL1        0.0140
     21  C         21.4580  -22.1490   -8.9890 C.2     1  UNL1        0.0390
     22  C         22.0950  -21.7250  -10.1560 C.2     1  UNL1        0.0970
     23  C         21.4040  -21.6760  -11.3680 C.2     1  UNL1        0.0450
     24 BR         22.2220  -21.0550  -12.9590 Br      1  UNL1       -0.0480
     25  C         20.0670  -22.0810  -11.4160 C.2     1  UNL1        0.0330
     26  O         23.4200  -21.2960  -10.0600 O.3     1  UNL1       -0.2740
     27  C         24.3190  -22.3170  -10.3110 C.2     1  UNL1        0.2990
     28  O         24.3520  -23.4220   -9.7950 O.2     1  UNL1       -0.2590
     29  C         25.2920  -21.8240  -11.3160 C.2     1  UNL1        0.0510
     30  C         25.9580  -20.6170  -11.0440 C.2     1  UNL1        0.0180
     31  C         26.8710  -20.1030  -11.9560 C.2     1  UNL1        0.0020
     32  C         27.1210  -20.7890  -13.1430 C.2     1  UNL1        0.0120
     33  C         26.4650  -21.9950  -13.4380 C.2     1  UNL1       -0.0250
     34  C         26.7390  -22.6650  -14.6420 C.2     1  UNL1        0.0120
     35  C         25.5280  -22.5370  -12.5220 C.2     1  UNL1       -0.0100
     36  C         26.1060  -23.8650  -14.9580 C.2     1  UNL1        0.0010
     37  C         25.1890  -24.4140  -14.0720 C.2     1  UNL1        0.0010
     38  C         24.9050  -23.7610  -12.8710 C.2     1  UNL1        0.0130
@<TRIPOS>BOND
     1    36    34    2
     2    36    37    1
     3    34    33    1
     4    37    38    2
     5    33    32    2
     6    33    35    1
     7    32    31    1
     8    24    23    1
     9    38    35    1
    10    35    29    2
    11    31    30    2
    12    25    23    1
    13    25    19    2
    14    23    22    2
    15    29    30    1
    16    29    27    1
    17     4    19    1
    18     4     1    2
    19    27    26    1
    20    27    28    2
    21    19    20    1
    22    22    26    1
    23    22    21    1
    24     3     2    3
    25     2     1    1
    26     1     5    1
    27    20    21    2
    28     5     8    2
    29     5     6   am
    30     7     6    1
    31     6     9    1
    32    17    18    1
    33    17    15    1
    34     9    10    2
    35     9    14    1
    36    10    11    1
    37    15    14    1
    38    15    16    2
    39    14    13    2
    40    11    12    2
    41    13    12    1
