@<TRIPOS>MOLECULE
24348_out_ligand_01.pdbqt
 38 41 0 0 0
SMALL
GASTEIGER

@<TRIPOS>ATOM
      1  N         17.1170  -20.9700  -12.3210 N.1     1  UNL1       -0.1910
      2  C         17.9740  -21.3940  -11.6620 C.1     1  UNL1        0.1050
      3  C         19.0640  -21.8520  -10.8710 C.2     1  UNL1        0.1130
      4  C         20.3310  -21.5450  -11.2150 C.2     1  UNL1        0.0400
      5  C         18.7250  -22.7180   -9.7060 C.2     1  UNL1        0.2660
      6  O         19.3290  -23.7700   -9.5390 O.2     1  UNL1       -0.2670
      7  N         17.7690  -22.1720   -8.8640 N.am    1  UNL1       -0.3210
      8  H         17.6320  -21.1710   -8.9430 H       1  UNL1        0.1690
      9  C         17.3650  -22.7550   -7.6410 C.2     1  UNL1        0.0570
     10  C         17.8550  -22.1390   -6.4770 C.2     1  UNL1        0.0470
     11  C         17.5620  -22.6500   -5.2010 C.2     1  UNL1        0.0500
     12  C         16.7500  -23.7860   -5.0980 C.2     1  UNL1        0.0180
     13  C         16.2140  -24.3750   -6.2460 C.2     1  UNL1        0.0270
     14  C         16.5050  -23.8600   -7.5150 C.2     1  UNL1        0.0600
     15 CL         15.6100  -24.5220   -8.8390 Cl      1  UNL1       -0.0820
     16  C         18.1520  -21.9970   -3.9750 C.3     1  UNL1        0.4170
     17  F         17.2070  -21.3790   -3.2150 F       1  UNL1       -0.1660
     18  F         18.7660  -22.8920   -3.1530 F       1  UNL1       -0.1660
     19  F         19.0870  -21.0490   -4.2600 F       1  UNL1       -0.1660
     20  C         21.5530  -22.0000  -10.5390 C.2     1  UNL1       -0.0320
     21  C         21.7320  -21.8320   -9.1580 C.2     1  UNL1        0.0110
     22  C         22.9180  -22.2400   -8.5420 C.2     1  UNL1        0.0040
     23  C         23.9250  -22.8380   -9.2970 C.2     1  UNL1        0.0370
     24  C         23.7280  -23.0420  -10.6620 C.2     1  UNL1        0.0800
     25  C         22.5590  -22.6130  -11.2920 C.2     1  UNL1        0.0490
     26  O         24.7940  -23.6110  -11.3750 O.3     1  UNL1       -0.2750
     27  C         26.0480  -23.0530  -11.1950 C.2     1  UNL1        0.2990
     28  O         26.9980  -23.5110  -10.5830 O.2     1  UNL1       -0.2590
     29  C         26.1040  -21.8050  -11.9830 C.2     1  UNL1        0.0510
     30  C         26.4650  -20.6490  -11.2760 C.2     1  UNL1        0.0180
     31  C         26.5720  -19.4350  -11.9430 C.2     1  UNL1        0.0020
     32  C         26.3130  -19.3740  -13.3110 C.2     1  UNL1        0.0120
     33  C         25.9250  -20.5160  -14.0310 C.2     1  UNL1       -0.0250
     34  C         25.6500  -20.4230  -15.4060 C.2     1  UNL1        0.0120
     35  C         25.8020  -21.7640  -13.3710 C.2     1  UNL1       -0.0100
     36  C         25.2410  -21.5380  -16.1350 C.2     1  UNL1        0.0010
     37  C         25.0970  -22.7640  -15.4990 C.2     1  UNL1        0.0010
     38  C         25.3700  -22.8760  -14.1340 C.2     1  UNL1        0.0130
@<TRIPOS>BOND
     1    36    37    1
     2    36    34    2
     3    37    38    2
     4    34    33    1
     5    38    35    1
     6    33    35    1
     7    33    32    2
     8    35    29    2
     9    32    31    1
    10     1     2    3
    11    29    30    1
    12    29    27    1
    13    31    30    2
    14     2     3    1
    15    26    27    1
    16    26    24    1
    17    25    24    1
    18    25    20    2
    19     4     3    2
    20     4    20    1
    21    27    28    2
    22     3     5    1
    23    24    23    2
    24    20    21    1
    25     5     6    2
    26     5     7   am
    27    23    22    1
    28    21    22    2
    29     8     7    1
    30     7     9    1
    31    15    14    1
    32     9    14    2
    33     9    10    1
    34    14    13    1
    35    10    11    2
    36    13    12    2
    37    11    12    1
    38    11    16    1
    39    19    16    1
    40    16    17    1
    41    16    18    1
