@<TRIPOS>MOLECULE
24352_out_ligand_01.pdbqt
 34 37 0 0 0
SMALL
GASTEIGER

@<TRIPOS>ATOM
      1  C         24.9900  -22.5790  -15.7820 C.2     1  UNL1        0.1130
      2  C         24.8800  -23.1090  -17.1010 C.1     1  UNL1        0.1050
      3  N         24.8190  -23.6000  -18.1510 N.1     1  UNL1       -0.1910
      4  C         25.0910  -23.4300  -14.7400 C.2     1  UNL1        0.0400
      5  C         24.9270  -21.0890  -15.6720 C.2     1  UNL1        0.2660
      6  N         26.0890  -20.4410  -16.0410 N.am    1  UNL1       -0.3220
      7  H         26.8910  -21.0220  -16.2550 H       1  UNL1        0.1690
      8  O         23.8790  -20.5710  -15.3010 O.2     1  UNL1       -0.2670
      9  C         26.3170  -19.0440  -16.1160 C.2     1  UNL1        0.0410
     10  C         26.0600  -18.3020  -17.2760 C.2     1  UNL1        0.0300
     11  C         26.3190  -16.9280  -17.3270 C.2     1  UNL1        0.0020
     12  C         26.8350  -16.2750  -16.2160 C.2     1  UNL1        0.0010
     13  C         27.0930  -16.9940  -15.0510 C.2     1  UNL1        0.0090
     14  C         26.8410  -18.3770  -14.9840 C.2     1  UNL1       -0.0350
     15  C         27.1210  -19.0870  -13.6840 C.3     1  UNL1        0.0500
     16  C         25.1470  -23.1080  -13.3090 C.2     1  UNL1       -0.0320
     17  C         26.2980  -22.5720  -12.7120 C.2     1  UNL1        0.0110
     18  C         26.3120  -22.2680  -11.3460 C.2     1  UNL1        0.0040
     19  C         25.1770  -22.4840  -10.5690 C.2     1  UNL1        0.0370
     20  C         24.0370  -23.0130  -11.1670 C.2     1  UNL1        0.0800
     21  C         24.0010  -23.3050  -12.5310 C.2     1  UNL1        0.0490
     22  O         22.8900  -23.1800  -10.3860 O.3     1  UNL1       -0.2750
     23  C         22.3730  -21.9910   -9.9110 C.2     1  UNL1        0.2990
     24  O         22.9320  -21.1530   -9.2190 O.2     1  UNL1       -0.2590
     25  C         20.9380  -21.9220  -10.2640 C.2     1  UNL1        0.0510
     26  C         20.6450  -21.2650  -11.4700 C.2     1  UNL1        0.0180
     27  C         19.3270  -21.1130  -11.8800 C.2     1  UNL1        0.0020
     28  C         18.2970  -21.6220  -11.0910 C.2     1  UNL1        0.0120
     29  C         18.5660  -22.3060   -9.8940 C.2     1  UNL1       -0.0250
     30  C         17.5060  -22.8240   -9.1300 C.2     1  UNL1        0.0120
     31  C         19.9060  -22.4810   -9.4600 C.2     1  UNL1       -0.0100
     32  C         17.7440  -23.5250   -7.9510 C.2     1  UNL1        0.0010
     33  C         19.0480  -23.7300   -7.5230 C.2     1  UNL1        0.0010
     34  C         20.1150  -23.2210   -8.2680 C.2     1  UNL1        0.0130
@<TRIPOS>BOND
     1     3     2    3
     2    11    10    1
     3    11    12    2
     4    10     9    2
     5     2     1    1
     6     7     6    1
     7    12    13    1
     8     9     6    1
     9     9    14    1
    10     6     5   am
    11     1     5    1
    12     1     4    2
    13     5     8    2
    14    13    14    2
    15    14    15    1
    16     4    16    1
    17    16    17    2
    18    16    21    1
    19    17    18    1
    20    21    20    2
    21    27    26    1
    22    27    28    2
    23    26    25    2
    24    18    19    2
    25    20    19    1
    26    20    22    1
    27    28    29    1
    28    22    23    1
    29    25    23    1
    30    25    31    1
    31    23    24    2
    32    29    31    2
    33    29    30    1
    34    31    34    1
    35    30    32    2
    36    34    33    2
    37    32    33    1
