@<TRIPOS>MOLECULE
24372_out_ligand_01.pdbqt
 31 34 0 0 0
SMALL
GASTEIGER

@<TRIPOS>ATOM
      1  C         19.0370  -22.4170  -10.5280 C.2     1  UNL1        0.0360
      2  C         18.2750  -21.5870  -11.3630 C.2     1  UNL1        0.0290
      3  C         16.9190  -21.3590  -11.1070 C.2     1  UNL1        0.0040
      4  C         16.3070  -21.9600  -10.0100 C.2     1  UNL1        0.0250
      5  C         17.0640  -22.7860   -9.1780 C.2     1  UNL1        0.0820
      6  C         18.4280  -23.0030   -9.4190 C.2     1  UNL1        0.0540
      7  N         20.3950  -22.5950  -10.8640 N.am    1  UNL1       -0.3220
      8  C         21.2860  -21.6270  -11.2970 C.2     1  UNL1        0.2760
      9  O         21.0400  -20.4300  -11.3840 O.2     1  UNL1       -0.2660
     10  H         20.7800  -23.5090  -10.6620 H       1  UNL1        0.1690
     11  C         22.5780  -22.1560  -11.6190 C.ar    1  UNL1        0.1500
     12  C         23.4400  -22.9250  -10.8430 C.ar    1  UNL1        0.1610
     13 CL         23.1530  -23.5060   -9.2660 Cl      1  UNL1       -0.0600
     14  N         24.6030  -23.2430  -11.5240 N.ar    1  UNL1       -0.2090
     15  C         24.4560  -22.6330  -12.6620 C.ar    1  UNL1        0.1790
     16  S         25.4260  -22.4590  -14.0900 S.3     1  UNL1       -0.0620
     17  N         23.2820  -21.9540  -12.7750 N.ar    1  UNL1       -0.2930
     18  C         24.1670  -21.4210  -14.7780 C.2     1  UNL1        0.0710
     19  C         23.1130  -21.2630  -13.9580 C.2     1  UNL1        0.1070
     20  S         16.3090  -23.5550   -7.7630 S.O2    1  UNL1        0.2630
     21  O         15.7530  -24.8220   -8.1910 O.2     1  UNL1       -0.2000
     22  O         15.4810  -22.5580   -7.1210 O.2     1  UNL1       -0.2000
     23  N         17.6220  -23.8390   -6.7350 N.pl3   1  UNL1       -0.2790
     24  H         17.5730  -24.7800   -6.3360 H       1  UNL1        0.1790
     25  C         18.0200  -22.8040   -5.8240 C.2     1  UNL1        0.0640
     26  C         18.9280  -21.8250   -6.2320 C.2     1  UNL1        0.0320
     27  C         19.2990  -20.8020   -5.3570 C.2     1  UNL1        0.0020
     28  C         18.7700  -20.7560   -4.0660 C.2     1  UNL1        0.0020
     29  C         17.8710  -21.7370   -3.6470 C.2     1  UNL1        0.0260
     30  C         17.5000  -22.7600   -4.5210 C.2     1  UNL1        0.0610
     31 CL         16.3920  -23.9610   -3.9590 Cl      1  UNL1       -0.0820
@<TRIPOS>BOND
     1    18    16    1
     2    18    19    2
     3    16    15    1
     4    19    17    1
     5    17    15   ar
     6    17    11   ar
     7    15    14   ar
     8    11     8    1
     9    11    12   ar
    10    14    12   ar
    11     9     8    2
    12     2     3    1
    13     2     1    2
    14     8     7   am
    15     3     4    2
    16     7    10    1
    17     7     1    1
    18    12    13    1
    19     1     6    1
    20     4     5    1
    21     6     5    2
    22     5    20    1
    23    21    20    2
    24    20    22    2
    25    20    23    1
    26    23    24    1
    27    23    25    1
    28    26    25    2
    29    26    27    1
    30    25    30    1
    31    27    28    2
    32    30    31    1
    33    30    29    2
    34    28    29    1
