@<TRIPOS>MOLECULE
24374_out_ligand_01.pdbqt
 38 41 0 0 0
SMALL
GASTEIGER

@<TRIPOS>ATOM
      1  C         24.4880  -21.2710  -10.3130 C.2     1  UNL1        0.0400
      2  C         25.0150  -20.9900  -11.5220 C.2     1  UNL1        0.1130
      3  C         26.1620  -20.1470  -11.6020 C.1     1  UNL1        0.1050
      4  N         27.1210  -19.4920  -11.6010 N.1     1  UNL1       -0.1910
      5  C         24.4650  -21.4820  -12.8260 C.2     1  UNL1        0.2660
      6  O         23.2550  -21.4320  -13.0480 O.2     1  UNL1       -0.2670
      7  N         25.4160  -21.8300  -13.7650 N.am    1  UNL1       -0.3200
      8  H         26.3700  -21.5410  -13.5750 H       1  UNL1        0.1690
      9  C         25.1520  -22.3040  -15.0730 C.2     1  UNL1        0.0680
     10  C         25.0660  -21.3070  -16.0560 C.2     1  UNL1        0.0320
     11  C         24.7210  -21.6150  -17.3750 C.2     1  UNL1        0.0020
     12  C         24.4660  -22.9320  -17.7460 C.2     1  UNL1        0.0030
     13  C         24.6060  -23.9490  -16.8070 C.2     1  UNL1        0.0380
     14  C         24.9600  -23.6370  -15.4800 C.2     1  UNL1        0.1290
     15  N         25.3250  -24.7730  -14.6390 N.pl3   1  UNL1       -0.1130
     16  O         25.2870  -24.6010  -13.4110 O.2     1  UNL1       -0.5320
     17  O         25.7540  -25.7900  -15.2050 O.2     1  UNL1       -0.5320
     18  C         23.2750  -22.0410  -10.0330 C.2     1  UNL1       -0.0320
     19  C         22.0110  -21.4920  -10.2730 C.2     1  UNL1        0.0510
     20  C         20.8630  -22.2430  -10.0080 C.2     1  UNL1        0.1020
     21  C         20.9690  -23.5200   -9.4510 C.2     1  UNL1        0.1020
     22  C         22.2310  -24.0800   -9.2370 C.2     1  UNL1        0.0400
     23  C         23.3810  -23.3370   -9.5150 C.2     1  UNL1        0.0140
     24  O         19.6580  -21.6310  -10.2390 O.2     1  UNL1       -0.3490
     25  C         19.3200  -21.6450  -11.6310 C.3     1  UNL1        0.1710
     26  C         17.9250  -21.0620  -11.7860 C.3     1  UNL1        0.0340
     27  O         19.8240  -24.2200   -9.1520 O.2     1  UNL1       -0.3440
     28  C         19.3860  -23.9520   -7.8040 C.3     1  UNL1        0.2150
     29  C         17.9150  -23.5720   -7.7360 C.2     1  UNL1       -0.0230
     30  C         17.1910  -23.3080   -8.9120 C.2     1  UNL1        0.0100
     31  C         15.8440  -22.9610   -8.8620 C.2     1  UNL1        0.0020
     32  C         15.1980  -22.8610   -7.6350 C.2     1  UNL1        0.0120
     33  C         15.8830  -23.1190   -6.4420 C.2     1  UNL1       -0.0250
     34  C         15.2090  -23.0210   -5.2140 C.2     1  UNL1        0.0120
     35  C         17.2550  -23.4780   -6.4750 C.2     1  UNL1       -0.0180
     36  C         15.8690  -23.2660   -4.0120 C.2     1  UNL1        0.0010
     37  C         17.2080  -23.6290   -4.0250 C.2     1  UNL1        0.0010
     38  C         17.8940  -23.7290   -5.2380 C.2     1  UNL1        0.0130
@<TRIPOS>BOND
     1    12    11    2
     2    12    13    1
     3    11    10    1
     4    13    14    2
     5    10     9    2
     6    14     9    1
     7    14    15    1
     8    17    15    2
     9     9     7    1
    10    15    16    2
    11     7     8    1
    12     7     5   am
    13     6     5    2
    14     5     2    1
    15    26    25    1
    16    25    24    1
    17     3     4    3
    18     3     2    1
    19     2     1    2
    20     1    18    1
    21    19    18    2
    22    19    20    1
    23    24    20    1
    24    18    23    1
    25    20    21    2
    26    23    22    2
    27    21    22    1
    28    21    27    1
    29    27    28    1
    30    30    31    1
    31    30    29    2
    32    31    32    2
    33    28    29    1
    34    29    35    1
    35    32    33    1
    36    35    33    2
    37    35    38    1
    38    33    34    1
    39    38    37    2
    40    34    36    2
    41    37    36    1
