@<TRIPOS>MOLECULE
24388_out_ligand_01.pdbqt
 34 37 0 0 0
SMALL
GASTEIGER

@<TRIPOS>ATOM
      1  C         19.4450  -23.1330   -9.5830 C.2     1  UNL1        0.0800
      2  C         19.5700  -24.4290   -9.0750 C.2     1  UNL1        0.0250
      3  C         20.8370  -24.9280   -8.7820 C.2     1  UNL1        0.0030
      4  C         21.9720  -24.1390   -9.0010 C.2     1  UNL1        0.0150
      5  C         21.8470  -22.8420   -9.5190 C.2     1  UNL1        0.0150
      6  C         20.5750  -22.3460   -9.8280 C.2     1  UNL1        0.0400
      7  C         23.0220  -21.9640   -9.7920 C.2     1  UNL1        0.1840
      8  O         23.0210  -20.7870   -9.4390 O.2     1  UNL1       -0.2880
      9  C         24.1790  -22.4820  -10.5540 C.2     1  UNL1        0.0820
     10  C         24.4820  -22.2200  -11.8370 C.2     1  UNL1        0.0280
     11  N         23.7790  -21.4700  -12.7950 N.pl3   1  UNL1       -0.3530
     12  C         25.8210  -22.7200  -12.4670 C.3     1  UNL1        0.0250
     13  C         22.3310  -21.4460  -12.9740 C.3     1  UNL1        0.1560
     14  C         24.5360  -21.4080  -13.9840 C.2     1  UNL1        0.0410
     15  C         24.2280  -20.7730  -15.1770 C.2     1  UNL1        0.0300
     16  C         25.7520  -22.0970  -13.8490 C.2     1  UNL1       -0.0170
     17  C         25.1470  -20.8310  -16.2320 C.2     1  UNL1        0.0020
     18  C         26.3580  -21.5210  -16.0880 C.2     1  UNL1        0.0010
     19  C         26.6690  -22.1630  -14.8900 C.2     1  UNL1        0.0100
     20  C         27.0470  -22.1930  -11.7060 C.3     1  UNL1        0.0270
     21  C         25.8540  -24.2510  -12.5730 C.3     1  UNL1        0.0270
     22  S         17.8310  -22.5000   -9.9770 S.O2    1  UNL1        0.2630
     23  O         17.9440  -21.6690  -11.1550 O.2     1  UNL1       -0.2000
     24  O         16.9080  -23.6160   -9.9380 O.2     1  UNL1       -0.2000
     25  N         17.4540  -21.5480   -8.6400 N.pl3   1  UNL1       -0.2800
     26  H         17.0920  -20.6330   -8.9000 H       1  UNL1        0.1790
     27  C         17.0290  -22.1340   -7.4130 C.2     1  UNL1        0.0480
     28  C         15.7320  -22.6370   -7.2900 C.2     1  UNL1        0.0310
     29  C         15.3030  -23.2070   -6.0900 C.2     1  UNL1        0.0090
     30  C         16.1650  -23.2810   -4.9940 C.2     1  UNL1       -0.0610
     31  C         15.7200  -23.9260   -3.7150 C.3     1  UNL1        0.0480
     32  C         17.4750  -22.8040   -5.1290 C.2     1  UNL1        0.0150
     33  C         17.9200  -22.2240   -6.3290 C.2     1  UNL1       -0.0340
     34  C         19.3330  -21.7170   -6.4140 C.3     1  UNL1        0.0500
@<TRIPOS>BOND
     1    17    18    2
     2    17    15    1
     3    18    19    1
     4    15    14    2
     5    19    16    2
     6    14    16    1
     7    14    11    1
     8    16    12    1
     9    13    11    1
    10    11    10    1
    11    21    12    1
    12    12    10    1
    13    12    20    1
    14    10     9    2
    15    23    22    2
    16     9     7    1
    17    22    24    2
    18    22     1    1
    19    22    25    1
    20     6     1    2
    21     6     5    1
    22     7     5    1
    23     7     8    2
    24     1     2    1
    25     5     4    2
    26     2     3    2
    27     4     3    1
    28    26    25    1
    29    25    27    1
    30    27    28    2
    31    27    33    1
    32    28    29    1
    33    34    33    1
    34    33    32    2
    35    29    30    2
    36    32    30    1
    37    30    31    1
