@<TRIPOS>MOLECULE
24389_out_ligand_01.pdbqt
 36 39 0 0 0
SMALL
GASTEIGER

@<TRIPOS>ATOM
      1  C         23.7610  -23.3300  -10.3700 C.2     1  UNL1        0.0400
      2  C         25.0010  -22.8910  -10.6230 C.2     1  UNL1        0.1130
      3  C         26.1370  -23.6930  -10.3200 C.1     1  UNL1        0.1050
      4  N         27.0390  -24.3660  -10.0230 N.1     1  UNL1       -0.1910
      5  C         25.2530  -21.5540  -11.2360 C.2     1  UNL1        0.2660
      6  O         25.1910  -20.5430  -10.5380 O.2     1  UNL1       -0.2670
      7  N         25.5390  -21.6340  -12.5850 N.am    1  UNL1       -0.3220
      8  H         25.5190  -22.5580  -13.0100 H       1  UNL1        0.1690
      9  C         25.9270  -20.5890  -13.4450 C.2     1  UNL1        0.0350
     10  C         25.5070  -20.6910  -14.7910 C.2     1  UNL1        0.0320
     11  C         25.8400  -19.6980  -15.7120 C.2     1  UNL1        0.0440
     12  C         26.6070  -18.6080  -15.2890 C.2     1  UNL1        0.1160
     13  F         26.9310  -17.6540  -16.1670 F       1  UNL1       -0.2060
     14  C         27.0440  -18.4980  -13.9660 C.2     1  UNL1        0.0440
     15  C         26.7000  -19.4880  -13.0410 C.2     1  UNL1        0.0320
     16  C         22.5030  -22.6410  -10.7060 C.2     1  UNL1       -0.0320
     17  C         22.3260  -22.0010  -11.9390 C.2     1  UNL1        0.0140
     18  C         21.1200  -21.3570  -12.2550 C.2     1  UNL1        0.0400
     19  C         20.0600  -21.3650  -11.3520 C.2     1  UNL1        0.1020
     20  C         20.2440  -22.0210  -10.1320 C.2     1  UNL1        0.1130
     21  C         21.4390  -22.6690   -9.8070 C.2     1  UNL1        0.0510
     22  O         18.8290  -20.7970  -11.5560 O.2     1  UNL1       -0.3530
     23  C         17.7930  -21.6450  -12.0370 C.3     1  UNL1        0.2100
     24  O         19.1740  -22.1070   -9.2360 O.3     1  UNL1       -0.2720
     25  C         19.4240  -23.0150   -8.2230 C.2     1  UNL1        0.2990
     26  O         19.8670  -24.1460   -8.3200 O.2     1  UNL1       -0.2590
     27  C         19.0800  -22.3420   -6.9470 C.2     1  UNL1        0.0510
     28  C         19.9650  -21.3580   -6.4610 C.2     1  UNL1        0.0180
     29  C         19.7020  -20.7180   -5.2530 C.2     1  UNL1        0.0020
     30  C         18.5610  -21.0580   -4.5260 C.2     1  UNL1        0.0120
     31  C         17.6700  -22.0440   -4.9900 C.2     1  UNL1       -0.0250
     32  C         16.5370  -22.3820   -4.2290 C.2     1  UNL1        0.0120
     33  C         17.9170  -22.7040   -6.2210 C.2     1  UNL1       -0.0100
     34  C         15.6460  -23.3720   -4.6600 C.2     1  UNL1        0.0010
     35  C         15.8740  -24.0270   -5.8620 C.2     1  UNL1        0.0010
     36  C         16.9930  -23.6980   -6.6340 C.2     1  UNL1        0.0130
@<TRIPOS>BOND
     1    13    12    1
     2    11    12    2
     3    11    10    1
     4    12    14    1
     5    10     9    2
     6    14    15    2
     7     9    15    1
     8     9     7    1
     9     8     7    1
    10     7     5   am
    11    18    17    1
    12    18    19    2
    13    23    22    1
    14    17    16    2
    15    22    19    1
    16    19    20    1
    17     5     2    1
    18     5     6    2
    19    16     1    1
    20    16    21    1
    21     2     1    2
    22     2     3    1
    23     3     4    3
    24    20    21    2
    25    20    24    1
    26    24    25    1
    27    26    25    2
    28    25    27    1
    29    27    28    2
    30    27    33    1
    31    36    33    1
    32    36    35    2
    33    28    29    1
    34    33    31    2
    35    35    34    1
    36    29    30    2
    37    31    30    1
    38    31    32    1
    39    34    32    2
