@<TRIPOS>MOLECULE
24386_out_ligand_01.pdbqt
 39 43 0 0 0
SMALL
GASTEIGER

@<TRIPOS>ATOM
      1  C         23.9330  -22.6630  -10.3200 C.2     1  UNL1        0.2580
      2  O         23.8920  -21.4560  -10.0900 O.2     1  UNL1       -0.2670
      3  N         23.0800  -23.6000   -9.7600 N.am    1  UNL1       -0.3230
      4  H         23.3190  -24.5760   -9.8500 H       1  UNL1        0.1690
      5  C         25.0210  -23.1810  -11.2250 C.2     1  UNL1        0.0540
      6  C         26.0560  -23.9970  -10.7330 C.2     1  UNL1        0.0190
      7  C         27.0980  -24.4130  -11.5670 C.2     1  UNL1        0.0010
      8  C         27.1200  -24.0240  -12.9030 C.2     1  UNL1        0.0020
      9  C         26.0810  -23.2520  -13.4170 C.2     1  UNL1        0.0250
     10  C         25.0130  -22.8590  -12.6030 C.2     1  UNL1        0.0380
     11  N         23.9250  -22.1370  -13.2070 N.pl3   1  UNL1       -0.1800
     12  H         23.3230  -22.7250  -13.8060 H       1  UNL1        0.1460
     13  S         24.2760  -20.7010  -14.0520 S.O2    1  UNL1        0.2460
     14  O         23.0120  -20.0220  -14.2520 O.2     1  UNL1       -0.2060
     15  O         25.3650  -20.0250  -13.3780 O.2     1  UNL1       -0.2060
     16  C         24.8200  -21.2830  -15.6600 C.2     1  UNL1        0.0810
     17  C         25.9640  -20.8030  -16.3250 C.2     1  UNL1       -0.0390
     18  C         26.2830  -21.3630  -17.5760 C.2     1  UNL1        0.0090
     19  C         26.8500  -19.7090  -15.8030 C.3     1  UNL1        0.0500
     20  C         25.4950  -22.3630  -18.1510 C.2     1  UNL1        0.0070
     21  C         24.3550  -22.8290  -17.4950 C.2     1  UNL1       -0.0600
     22  C         23.4830  -23.8740  -18.1260 C.3     1  UNL1        0.0480
     23  C         24.0110  -22.2640  -16.2620 C.2     1  UNL1        0.0320
     24  C         21.9340  -23.3470   -8.9730 C.2     1  UNL1        0.0350
     25  C         20.8240  -24.1730   -9.1760 C.2     1  UNL1        0.0300
     26  C         19.6470  -23.9790   -8.4440 C.2     1  UNL1        0.0170
     27  C         19.5460  -22.9570   -7.4910 C.2     1  UNL1        0.0100
     28  C         20.6580  -22.1280   -7.2990 C.2     1  UNL1        0.0170
     29  C         21.8370  -22.3210   -8.0340 C.2     1  UNL1        0.0300
     30  C         18.2920  -22.7940   -6.7460 C.ar    1  UNL1        0.1390
     31  N         17.0920  -22.6380   -7.2810 N.ar    1  UNL1       -0.2280
     32  C         16.2140  -22.5280   -6.2320 C.ar    1  UNL1        0.0860
     33  C         14.8240  -22.3460   -6.2400 C.2     1  UNL1        0.0340
     34  C         16.8800  -22.6230   -5.0190 C.ar    1  UNL1        0.0620
     35  C         14.1510  -22.2670   -5.0130 C.2     1  UNL1        0.0020
     36  C         14.8490  -22.3670   -3.8060 C.2     1  UNL1        0.0020
     37  C         16.2370  -22.5480   -3.7810 C.2     1  UNL1        0.0320
     38  N         18.1930  -22.7930   -5.3720 N.ar    1  UNL1       -0.3380
     39  H         18.9580  -22.9140   -4.7270 H       1  UNL1        0.1670
@<TRIPOS>BOND
     1    20    18    2
     2    20    21    1
     3    22    21    1
     4    18    17    1
     5    21    23    2
     6    17    19    1
     7    17    16    2
     8    23    16    1
     9    16    13    1
    10    14    13    2
    11    13    15    2
    12    13    11    1
    13    12    11    1
    14     9     8    2
    15     9    10    1
    16    11    10    1
    17     8     7    1
    18    10     5    2
    19     7     6    2
    20     5     6    1
    21     5     1    1
    22     1     2    2
    23     1     3   am
    24     4     3    1
    25     3    24    1
    26    25    24    2
    27    25    26    1
    28    24    29    1
    29    26    27    2
    30    29    28    2
    31    27    28    1
    32    27    30    1
    33    31    30   ar
    34    31    32   ar
    35    30    38   ar
    36    33    32    2
    37    33    35    1
    38    32    34   ar
    39    38    34   ar
    40    38    39    1
    41    34    37    2
    42    35    36    2
    43    36    37    1
