@<TRIPOS>MOLECULE
24382_out_ligand_01.pdbqt
 38 41 0 0 0
SMALL
GASTEIGER

@<TRIPOS>ATOM
      1  C         20.7480  -22.4410   -9.8570 C.2     1  UNL1        0.0810
      2  C         19.9010  -21.7970  -10.7570 C.2     1  UNL1        0.0260
      3  C         20.4010  -21.3890  -11.9930 C.2     1  UNL1        0.0100
      4  C         21.7360  -21.6410  -12.3470 C.2     1  UNL1       -0.0390
      5  C         22.2460  -21.1620  -13.6780 C.3     1  UNL1        0.0500
      6  C         22.5730  -22.3360  -11.4490 C.2     1  UNL1        0.0370
      7  C         22.0720  -22.7260  -10.1990 C.2     1  UNL1        0.0510
      8  N         23.9570  -22.5430  -11.7430 N.pl3   1  UNL1       -0.1810
      9  H         24.2000  -23.4430  -11.3080 H       1  UNL1        0.1550
     10  N         24.7430  -21.5480  -11.2260 N.2     1  UNL1       -0.1870
     11  C         25.5940  -20.9940  -12.0230 C.2     1  UNL1        0.1450
     12  S         26.5280  -19.6040  -11.5880 S.3     1  UNL1       -0.0270
     13  C         25.9360  -21.2120  -13.4720 C.3     1  UNL1        0.1100
     14  C         26.7280  -19.2200  -13.2520 C.2     1  UNL1        0.1880
     15  N         26.4650  -20.2190  -14.1200 N.2     1  UNL1       -0.2190
     16  N         27.1210  -18.0700  -13.6520 N.pl3   1  UNL1       -0.2760
     17  H         27.7610  -18.2160  -14.4380 H       1  UNL1        0.1890
     18  C         25.7140  -22.4900  -14.1650 C.2     1  UNL1        0.0370
     19  C         24.9490  -22.5140  -15.3340 C.2     1  UNL1        0.0590
     20  C         24.7700  -23.7210  -16.0010 C.2     1  UNL1        0.1170
     21  F         24.0250  -23.7540  -17.1130 F       1  UNL1       -0.2060
     22  C         25.3530  -24.8970  -15.5360 C.2     1  UNL1        0.0450
     23  C         26.1410  -24.8660  -14.3850 C.2     1  UNL1        0.0460
     24  C         26.3250  -23.6610  -13.7110 C.2     1  UNL1        0.1290
     25  F         27.1080  -23.6450  -12.6240 F       1  UNL1       -0.2050
     26  S         20.1400  -22.9340   -8.2620 S.O2    1  UNL1        0.2630
     27  O         19.9100  -24.3630   -8.2920 O.2     1  UNL1       -0.2000
     28  O         21.0120  -22.3430   -7.2680 O.2     1  UNL1       -0.2000
     29  N         18.6690  -22.1170   -8.1350 N.pl3   1  UNL1       -0.2800
     30  H         18.3570  -21.7460   -9.0290 H       1  UNL1        0.1790
     31  C         17.6790  -22.5740   -7.2150 C.2     1  UNL1        0.0480
     32  C         17.9120  -22.4580   -5.8420 C.2     1  UNL1        0.0310
     33  C         16.9760  -22.9290   -4.9220 C.2     1  UNL1        0.0090
     34  C         15.7860  -23.5100   -5.3630 C.2     1  UNL1       -0.0610
     35  C         14.7920  -24.0530   -4.3770 C.3     1  UNL1        0.0480
     36  C         15.5550  -23.6280   -6.7390 C.2     1  UNL1        0.0150
     37  C         16.4880  -23.1560   -7.6800 C.2     1  UNL1       -0.0340
     38  C         16.1800  -23.2970   -9.1440 C.3     1  UNL1        0.0500
@<TRIPOS>BOND
     1    21    20    1
     2    20    22    2
     3    20    19    1
     4    22    23    1
     5    19    18    2
     6    17    16    1
     7    23    24    2
     8    18    24    1
     9    18    13    1
    10    15    13    1
    11    15    14    2
    12    24    25    1
    13     5     4    1
    14    16    14    1
    15    13    11    1
    16    14    12    1
    17     4     3    2
    18     4     6    1
    19    11    12    1
    20    11    10    2
    21     3     2    1
    22     8     6    1
    23     8     9    1
    24     8    10    1
    25     6     7    2
    26     2     1    2
    27     7     1    1
    28     1    26    1
    29    38    37    1
    30    30    29    1
    31    27    26    2
    32    26    29    1
    33    26    28    2
    34    29    31    1
    35    37    31    2
    36    37    36    1
    37    31    32    1
    38    36    34    2
    39    32    33    2
    40    34    33    1
    41    34    35    1
