@<TRIPOS>MOLECULE
24402_out_ligand_01.pdbqt
 34 36 0 0 0
SMALL
GASTEIGER

@<TRIPOS>ATOM
      1  C         18.2690  -22.8990  -10.4020 C.2     1  UNL1        0.0390
      2  C         17.4210  -23.2660   -9.4190 C.2     1  UNL1        0.1130
      3  C         16.0960  -23.6790   -9.7410 C.1     1  UNL1        0.1050
      4  N         15.0160  -23.9740  -10.0470 N.1     1  UNL1       -0.1910
      5  C         17.8020  -23.3220   -7.9740 C.2     1  UNL1        0.2660
      6  O         18.3770  -24.3140   -7.5460 O.2     1  UNL1       -0.2670
      7  N         17.4160  -22.2040   -7.2550 N.am    1  UNL1       -0.3220
      8  H         16.9260  -21.4850   -7.7830 H       1  UNL1        0.1690
      9  C         17.6540  -21.9170   -5.8880 C.2     1  UNL1        0.0500
     10  C         18.7800  -21.1960   -5.4690 C.2     1  UNL1        0.0300
     11  C         19.0040  -20.9160   -4.1170 C.2     1  UNL1        0.0020
     12  C         18.1030  -21.3520   -3.1560 C.2     1  UNL1        0.0010
     13  C         16.9760  -22.0650   -3.5490 C.2     1  UNL1        0.0180
     14  C         16.7370  -22.3620   -4.9100 C.2     1  UNL1        0.0740
     15  C         15.4780  -23.1240   -5.2300 C.3     1  UNL1        0.4190
     16  F         15.6960  -24.3590   -5.7740 F       1  UNL1       -0.1660
     17  F         14.7020  -23.3480   -4.1310 F       1  UNL1       -0.1660
     18  F         14.6800  -22.4700   -6.1180 F       1  UNL1       -0.1660
     19  C         19.6770  -22.5150  -10.2430 C.2     1  UNL1       -0.0340
     20  C         20.2620  -21.6680  -11.1940 C.2     1  UNL1        0.0140
     21  C         21.5930  -21.2690  -11.0590 C.2     1  UNL1        0.0380
     22  C         22.3400  -21.7430   -9.9850 C.2     1  UNL1        0.0790
     23  C         21.7770  -22.5850   -9.0290 C.2     1  UNL1        0.0380
     24  C         20.4460  -22.9830   -9.1690 C.2     1  UNL1        0.0140
     25  O         23.6530  -21.2830   -9.8450 O.3     1  UNL1       -0.2750
     26  C         24.5920  -21.9940  -10.5690 C.2     1  UNL1        0.2980
     27  O         24.8670  -23.1790  -10.4560 O.2     1  UNL1       -0.2590
     28  C         25.2580  -21.0930  -11.5520 C.2     1  UNL1        0.0400
     29  C         24.8550  -21.1670  -12.8900 C.2     1  UNL1        0.0180
     30  C         25.4460  -20.3480  -13.8550 C.2     1  UNL1        0.0070
     31  C         26.4560  -19.4470  -13.4960 C.2     1  UNL1       -0.0620
     32  C         27.0670  -18.5440  -14.5270 C.3     1  UNL1        0.0480
     33  C         26.8490  -19.3630  -12.1550 C.2     1  UNL1        0.0070
     34  C         26.2590  -20.1820  -11.1870 C.2     1  UNL1        0.0180
@<TRIPOS>BOND
     1    32    31    1
     2    30    31    2
     3    30    29    1
     4    31    33    1
     5    29    28    2
     6    33    34    2
     7    28    34    1
     8    28    26    1
     9    20    21    1
    10    20    19    2
    11    21    22    2
    12    26    27    2
    13    26    25    1
    14     1    19    1
    15     1     2    2
    16    19    24    1
    17     4     3    3
    18    22    25    1
    19    22    23    1
    20     3     2    1
    21     2     5    1
    22    24    23    2
    23     5     6    2
    24     5     7   am
    25     8     7    1
    26     7     9    1
    27    18    15    1
    28     9    10    2
    29     9    14    1
    30    16    15    1
    31    10    11    1
    32    15    14    1
    33    15    17    1
    34    14    13    2
    35    11    12    2
    36    13    12    1
