@<TRIPOS>MOLECULE
24409_out_ligand_01.pdbqt
 35 38 0 0 0
SMALL
GASTEIGER

@<TRIPOS>ATOM
      1  C         24.8920  -22.7290  -15.7760 C.2     1  UNL1        0.1130
      2  C         24.6030  -23.2060  -17.0870 C.1     1  UNL1        0.1050
      3  N         24.4010  -23.6510  -18.1410 N.1     1  UNL1       -0.1910
      4  C         25.1110  -23.6120  -14.7810 C.2     1  UNL1        0.0400
      5  C         24.8700  -21.2450  -15.5960 C.2     1  UNL1        0.2660
      6  N         26.0650  -20.6240  -15.9050 N.am    1  UNL1       -0.3220
      7  H         26.8360  -21.2250  -16.1670 H       1  UNL1        0.1690
      8  O         23.8310  -20.7120  -15.2260 O.2     1  UNL1       -0.2670
      9  C         26.3620  -19.2390  -15.8620 C.2     1  UNL1        0.0410
     10  C         26.8040  -18.6760  -14.6450 C.2     1  UNL1       -0.0350
     11  C         27.1160  -17.3070  -14.5910 C.2     1  UNL1        0.0090
     12  C         26.9370  -19.4830  -13.3810 C.3     1  UNL1        0.0500
     13  C         26.9920  -16.4970  -15.7180 C.2     1  UNL1        0.0070
     14  C         26.5430  -17.0400  -16.9220 C.2     1  UNL1       -0.0600
     15  C         26.4410  -16.1880  -18.1530 C.3     1  UNL1        0.0480
     16  C         26.2430  -18.4090  -16.9850 C.2     1  UNL1        0.0370
     17  C         25.3570  -23.3120  -13.3660 C.2     1  UNL1       -0.0320
     18  C         26.6060  -22.8680  -12.9100 C.2     1  UNL1        0.0110
     19  C         26.8090  -22.5940  -11.5540 C.2     1  UNL1        0.0040
     20  C         25.7670  -22.7610  -10.6450 C.2     1  UNL1        0.0370
     21  C         24.5280  -23.2050  -11.1000 C.2     1  UNL1        0.0800
     22  C         24.3050  -23.4520  -12.4550 C.2     1  UNL1        0.0490
     23  O         23.5010  -23.3240  -10.1550 O.3     1  UNL1       -0.2750
     24  C         22.8380  -22.1540   -9.8350 C.2     1  UNL1        0.2990
     25  O         23.2970  -21.0280   -9.7310 O.2     1  UNL1       -0.2590
     26  C         21.4360  -22.4960   -9.5250 C.2     1  UNL1        0.0510
     27  C         21.2380  -23.3080   -8.3990 C.2     1  UNL1        0.0180
     28  C         19.9510  -23.7000   -8.0480 C.2     1  UNL1        0.0020
     29  C         18.8660  -23.2760   -8.8140 C.2     1  UNL1        0.0120
     30  C         19.0440  -22.4420   -9.9310 C.2     1  UNL1       -0.0250
     31  C         17.9320  -22.0130  -10.6740 C.2     1  UNL1        0.0120
     32  C         20.3460  -22.0260  -10.3050 C.2     1  UNL1       -0.0100
     33  C         18.0830  -21.1680  -11.7730 C.2     1  UNL1        0.0010
     34  C         19.3500  -20.7340  -12.1410 C.2     1  UNL1        0.0010
     35  C         20.4670  -21.1540  -11.4150 C.2     1  UNL1        0.0130
@<TRIPOS>BOND
     1    15    14    1
     2     3     2    3
     3     2     1    1
     4    16    14    1
     5    16     9    2
     6    14    13    2
     7     7     6    1
     8     6     9    1
     9     6     5   am
    10     9    10    1
    11     1     5    1
    12     1     4    2
    13    13    11    1
    14     5     8    2
    15     4    17    1
    16    10    11    2
    17    10    12    1
    18    17    18    2
    19    17    22    1
    20    18    19    1
    21    22    21    2
    22    34    33    1
    23    34    35    2
    24    33    31    2
    25    19    20    2
    26    35    32    1
    27    21    20    1
    28    21    23    1
    29    31    30    1
    30    32    30    1
    31    32    26    2
    32    23    24    1
    33    30    29    2
    34    24    25    2
    35    24    26    1
    36    26    27    1
    37    29    28    1
    38    27    28    2
