@<TRIPOS>MOLECULE
24404_out_ligand_01.pdbqt
 35 38 0 0 0
SMALL
GASTEIGER

@<TRIPOS>ATOM
      1  C         19.2630  -21.7790  -10.8340 C.2     1  UNL1        0.1130
      2  C         18.0320  -21.2600  -11.3310 C.1     1  UNL1        0.1050
      3  N         17.0540  -20.8400  -11.7940 N.1     1  UNL1       -0.1910
      4  C         20.4150  -21.4940  -11.4750 C.2     1  UNL1        0.0400
      5  C         19.1820  -22.5800   -9.5740 C.2     1  UNL1        0.2660
      6  N         18.5770  -21.9120   -8.5270 N.am    1  UNL1       -0.3220
      7  H         18.2370  -20.9770   -8.7100 H       1  UNL1        0.1690
      8  O         19.6580  -23.7090   -9.5530 O.2     1  UNL1       -0.2670
      9  C         18.3230  -22.4000   -7.2270 C.2     1  UNL1        0.0350
     10  C         17.8270  -23.7030   -7.1260 C.2     1  UNL1        0.0300
     11  C         17.5520  -24.2650   -5.8770 C.2     1  UNL1        0.0090
     12  C         17.7650  -23.5370   -4.7010 C.2     1  UNL1       -0.0560
     13  C         17.4580  -24.1700   -3.3720 C.3     1  UNL1        0.0490
     14  C         18.2620  -22.2220   -4.7920 C.2     1  UNL1       -0.0540
     15  C         18.5360  -21.6700   -6.0580 C.2     1  UNL1        0.0370
     16  C         18.5090  -21.3910   -3.5620 C.3     1  UNL1        0.0490
     17  C         21.7720  -21.8800  -11.0690 C.2     1  UNL1       -0.0320
     18  C         22.2740  -21.5670   -9.7980 C.2     1  UNL1        0.0110
     19  C         23.5630  -21.9620   -9.4290 C.2     1  UNL1        0.0040
     20  C         24.3650  -22.6550  -10.3330 C.2     1  UNL1        0.0370
     21  C         23.8780  -22.9320  -11.6070 C.2     1  UNL1        0.0800
     22  C         22.5840  -22.5640  -11.9790 C.2     1  UNL1        0.0490
     23  O         24.7130  -23.6700  -12.4600 O.3     1  UNL1       -0.2750
     24  C         25.9950  -23.1850  -12.6550 C.2     1  UNL1        0.2990
     25  O         27.0380  -23.5890  -12.1700 O.2     1  UNL1       -0.2590
     26  C         25.8990  -21.9780  -13.5010 C.2     1  UNL1        0.0510
     27  C         26.2180  -20.7650  -12.8740 C.2     1  UNL1        0.0180
     28  C         26.1230  -19.5740  -13.5820 C.2     1  UNL1        0.0020
     29  C         25.7180  -19.5940  -14.9160 C.2     1  UNL1        0.0120
     30  C         25.4210  -20.8030  -15.5690 C.2     1  UNL1       -0.0250
     31  C         25.0360  -20.7970  -16.9200 C.2     1  UNL1        0.0120
     32  C         25.5170  -22.0290  -14.8670 C.2     1  UNL1       -0.0100
     33  C         24.7600  -21.9850  -17.5940 C.2     1  UNL1        0.0010
     34  C         24.8690  -23.1970  -16.9280 C.2     1  UNL1        0.0010
     35  C         25.2470  -23.2220  -15.5840 C.2     1  UNL1        0.0130
@<TRIPOS>BOND
     1    33    34    1
     2    33    31    2
     3    34    35    2
     4    31    30    1
     5    35    32    1
     6    30    29    2
     7    30    32    1
     8    29    28    1
     9    32    26    2
    10    28    27    2
    11    26    27    1
    12    26    24    1
    13    24    23    1
    14    24    25    2
    15    23    21    1
    16    22    21    1
    17    22    17    2
    18     3     2    3
    19    21    20    2
    20     4    17    1
    21     4     1    2
    22     2     1    1
    23    17    18    1
    24     1     5    1
    25    20    19    1
    26    18    19    2
    27     5     8    2
    28     5     6   am
    29     7     6    1
    30     6     9    1
    31     9    10    2
    32     9    15    1
    33    10    11    1
    34    15    14    2
    35    11    12    2
    36    14    12    1
    37    14    16    1
    38    12    13    1
