@<TRIPOS>MOLECULE
24408_out_ligand_01.pdbqt
 35 38 0 0 0
SMALL
GASTEIGER

@<TRIPOS>ATOM
      1  N         15.0820  -23.1870  -10.0820 N.1     1  UNL1       -0.1910
      2  C         16.2010  -23.1490   -9.7810 C.1     1  UNL1        0.1050
      3  C         17.5890  -23.1290   -9.4680 C.2     1  UNL1        0.1130
      4  C         18.5060  -22.9600  -10.4430 C.2     1  UNL1        0.0390
      5  C         17.9530  -23.2440   -8.0240 C.2     1  UNL1        0.2660
      6  O         18.3760  -24.3090   -7.5910 O.2     1  UNL1       -0.2670
      7  N         17.7730  -22.0700   -7.3180 N.am    1  UNL1       -0.3200
      8  H         17.4400  -21.2670   -7.8540 H       1  UNL1        0.1690
      9  C         17.9520  -21.8330   -5.9300 C.2     1  UNL1        0.0680
     10  C         19.0000  -21.0330   -5.4530 C.2     1  UNL1        0.0320
     11  C         19.1770  -20.8060   -4.0820 C.2     1  UNL1        0.0020
     12  C         18.3110  -21.3740   -3.1540 C.2     1  UNL1        0.0030
     13  C         17.2620  -22.1740   -3.5940 C.2     1  UNL1        0.0380
     14  C         17.0810  -22.4040   -4.9710 C.2     1  UNL1        0.1290
     15  N         15.9590  -23.2690   -5.3660 N.pl3   1  UNL1       -0.1130
     16  O         15.1480  -22.8260   -6.1920 O.2     1  UNL1       -0.5320
     17  O         15.8850  -24.3980   -4.8550 O.2     1  UNL1       -0.5320
     18  C         19.9550  -22.8470  -10.2440 C.2     1  UNL1       -0.0340
     19  C         20.6720  -23.8320   -9.5540 C.2     1  UNL1        0.0140
     20  C         22.0610  -23.7330   -9.4130 C.2     1  UNL1        0.0370
     21  C         22.7440  -22.6450   -9.9570 C.2     1  UNL1        0.0690
     22  C         22.0260  -21.6530  -10.6270 C.2     1  UNL1        0.0370
     23  C         20.6390  -21.7460  -10.7660 C.2     1  UNL1        0.0140
     24  O         24.0940  -22.4340   -9.9070 O.2     1  UNL1       -0.3470
     25  C         24.8570  -22.7950  -11.0610 C.3     1  UNL1        0.2150
     26  C         25.4540  -21.5830  -11.7600 C.2     1  UNL1       -0.0230
     27  C         26.1680  -20.6210  -11.0220 C.2     1  UNL1        0.0100
     28  C         26.7170  -19.5040  -11.6430 C.2     1  UNL1        0.0020
     29  C         26.5590  -19.3250  -13.0130 C.2     1  UNL1        0.0120
     30  C         25.8520  -20.2570  -13.7830 C.2     1  UNL1       -0.0250
     31  C         25.7040  -20.0570  -15.1650 C.2     1  UNL1        0.0120
     32  C         25.2870  -21.4030  -13.1660 C.2     1  UNL1       -0.0180
     33  C         25.0040  -20.9670  -15.9540 C.2     1  UNL1        0.0010
     34  C         24.4420  -22.0920  -15.3680 C.2     1  UNL1        0.0010
     35  C         24.5810  -22.3070  -13.9940 C.2     1  UNL1        0.0130
@<TRIPOS>BOND
     1    33    34    1
     2    33    31    2
     3    34    35    2
     4    31    30    1
     5    35    32    1
     6    30    32    1
     7    30    29    2
     8    32    26    2
     9    29    28    1
    10    26    25    1
    11    26    27    1
    12    28    27    2
    13    25    24    1
    14    23    22    1
    15    23    18    2
    16    22    21    2
    17     4    18    1
    18     4     3    2
    19    18    19    1
    20     1     2    3
    21    21    24    1
    22    21    20    1
    23     2     3    1
    24    19    20    2
    25     3     5    1
    26     5     6    2
    27     5     7   am
    28     8     7    1
    29     7     9    1
    30    16    15    2
    31     9    10    2
    32     9    14    1
    33    10    11    1
    34    15    14    1
    35    15    17    2
    36    14    13    2
    37    11    12    2
    38    13    12    1
