@<TRIPOS>MOLECULE
24418_out_ligand_01.pdbqt
 32 35 0 0 0
SMALL
GASTEIGER

@<TRIPOS>ATOM
      1  C         15.2000  -22.3180   -9.7500 C.3     1  UNL1        0.0500
      2  C         16.6830  -22.4120   -9.9710 C.2     1  UNL1       -0.0390
      3  C         17.2380  -21.7630  -11.0830 C.2     1  UNL1        0.0100
      4  C         18.6170  -21.7840  -11.3280 C.2     1  UNL1        0.0300
      5  C         19.4830  -22.4420  -10.4580 C.2     1  UNL1        0.0360
      6  C         18.9450  -23.0920   -9.3430 C.2     1  UNL1        0.0540
      7  C         17.5600  -23.0820   -9.1020 C.2     1  UNL1        0.0830
      8  N         20.8840  -22.5070  -10.6240 N.am    1  UNL1       -0.3220
      9  C         21.6520  -21.8580  -11.5780 C.2     1  UNL1        0.2760
     10  O         21.2260  -21.0760  -12.4160 O.2     1  UNL1       -0.2660
     11  H         21.3830  -23.0250   -9.9130 H       1  UNL1        0.1690
     12  C         23.0490  -22.1800  -11.4920 C.ar    1  UNL1        0.1500
     13  C         23.8140  -22.4960  -10.3730 C.ar    1  UNL1        0.1610
     14 CL         23.2660  -22.6430   -8.7650 Cl      1  UNL1       -0.0600
     15  N         25.1350  -22.7450  -10.7020 N.ar    1  UNL1       -0.2090
     16  C         25.1640  -22.5380  -11.9850 C.ar    1  UNL1        0.1790
     17  S         26.4000  -22.5840  -13.2020 S.3     1  UNL1       -0.0620
     18  N         23.9610  -22.1790  -12.5130 N.ar    1  UNL1       -0.2930
     19  C         25.1960  -22.0730  -14.3950 C.2     1  UNL1        0.0710
     20  C         23.9720  -21.9070  -13.8660 C.2     1  UNL1        0.1070
     21  S         16.9700  -23.9470   -7.6530 S.O2    1  UNL1        0.2460
     22  O         15.8920  -24.8190   -8.0730 O.2     1  UNL1       -0.2060
     23  O         18.1160  -24.4550   -6.9350 O.2     1  UNL1       -0.2060
     24  N         16.2530  -22.6670   -6.7830 N.pl3   1  UNL1       -0.1800
     25  H         15.3110  -22.9550   -6.5050 H       1  UNL1        0.1460
     26  C         17.0090  -22.2500   -5.6270 C.2     1  UNL1        0.0440
     27  C         18.1280  -21.4320   -5.7930 C.2     1  UNL1        0.0260
     28  C         18.8850  -21.0490   -4.6830 C.2     1  UNL1        0.0020
     29  C         18.5260  -21.4810   -3.4060 C.2     1  UNL1        0.0020
     30  C         17.4080  -22.2980   -3.2330 C.2     1  UNL1        0.0260
     31  C         16.6520  -22.6830   -4.3400 C.2     1  UNL1        0.0560
     32 CL         15.2620  -23.6810   -4.0960 Cl      1  UNL1       -0.0820
@<TRIPOS>BOND
     1    19    20    2
     2    19    17    1
     3    20    18    1
     4    17    16    1
     5    18    16   ar
     6    18    12   ar
     7    10     9    2
     8    16    15   ar
     9     9    12    1
    10     9     8   am
    11    12    13   ar
    12     4     3    1
    13     4     5    2
    14     3     2    2
    15    15    13   ar
    16     8     5    1
    17     8    11    1
    18     5     6    1
    19    13    14    1
    20     2     1    1
    21     2     7    1
    22     6     7    2
    23     7    21    1
    24    22    21    2
    25    21    23    2
    26    21    24    1
    27    24    25    1
    28    24    26    1
    29    27    26    2
    30    27    28    1
    31    26    31    1
    32    28    29    2
    33    31    32    1
    34    31    30    2
    35    29    30    1
