@<TRIPOS>MOLECULE
24438_out_ligand_01.pdbqt
 34 37 0 0 0
SMALL
GASTEIGER

@<TRIPOS>ATOM
      1  N         24.5440  -23.8990  -17.6000 N.1     1  UNL1       -0.1910
      2  C         24.6020  -23.2400  -16.6460 C.1     1  UNL1        0.1050
      3  C         24.7010  -22.4890  -15.4400 C.2     1  UNL1        0.1130
      4  C         24.7190  -23.1280  -14.2520 C.2     1  UNL1        0.0400
      5  C         24.7150  -21.0030  -15.5830 C.2     1  UNL1        0.2660
      6  O         23.7060  -20.3660  -15.3000 O.2     1  UNL1       -0.2670
      7  N         25.9020  -20.4930  -16.0630 N.am    1  UNL1       -0.3200
      8  H         26.6620  -21.1400  -16.2600 H       1  UNL1        0.1690
      9  C         26.2310  -19.1370  -16.2810 C.2     1  UNL1        0.0730
     10  C         26.2400  -18.5160  -17.5310 C.2     1  UNL1        0.0330
     11  C         26.5770  -17.1610  -17.6430 C.2     1  UNL1        0.0020
     12  C         26.9060  -16.4150  -16.5100 C.2     1  UNL1        0.0030
     13  C         26.8990  -17.0250  -15.2590 C.2     1  UNL1        0.0440
     14  C         26.5640  -18.3710  -15.1560 C.2     1  UNL1        0.1430
     15  F         26.5610  -18.9470  -13.9430 F       1  UNL1       -0.2040
     16  C         24.7480  -22.5050  -12.9250 C.2     1  UNL1       -0.0320
     17  C         25.9320  -21.9860  -12.3820 C.2     1  UNL1        0.0110
     18  C         25.9340  -21.4170  -11.1060 C.2     1  UNL1        0.0040
     19  C         24.7560  -21.3620  -10.3650 C.2     1  UNL1        0.0370
     20  C         23.5810  -21.8790  -10.9060 C.2     1  UNL1        0.0800
     21  C         23.5600  -22.4220  -12.1910 C.2     1  UNL1        0.0490
     22  O         22.4240  -21.7560  -10.1180 O.3     1  UNL1       -0.2750
     23  C         21.6320  -22.8780   -9.9320 C.2     1  UNL1        0.2990
     24  O         21.9680  -23.9780   -9.5280 O.2     1  UNL1       -0.2590
     25  C         20.2310  -22.5010  -10.2060 C.2     1  UNL1        0.0510
     26  C         20.0320  -21.6650  -11.3150 C.2     1  UNL1        0.0180
     27  C         18.7470  -21.2730  -11.6670 C.2     1  UNL1        0.0020
     28  C         17.6610  -21.7090  -10.9080 C.2     1  UNL1        0.0120
     29  C         17.8420  -22.5270   -9.7800 C.2     1  UNL1       -0.0250
     30  C         16.7310  -22.9330   -9.0230 C.2     1  UNL1        0.0120
     31  C         19.1450  -22.9350   -9.4000 C.2     1  UNL1       -0.0100
     32  C         16.8860  -23.7270   -7.8870 C.2     1  UNL1        0.0010
     33  C         18.1560  -24.1220   -7.4900 C.2     1  UNL1        0.0010
     34  C         19.2710  -23.7290   -8.2330 C.2     1  UNL1        0.0130
@<TRIPOS>BOND
     1    11    10    1
     2    11    12    2
     3     1     2    3
     4    10     9    2
     5     2     3    1
     6    12    13    1
     7     9     7    1
     8     9    14    1
     9     8     7    1
    10     7     5   am
    11     5     3    1
    12     5     6    2
    13     3     4    2
    14    13    14    2
    15    14    15    1
    16     4    16    1
    17    16    17    2
    18    16    21    1
    19    17    18    1
    20    21    20    2
    21    27    26    1
    22    27    28    2
    23    26    25    2
    24    18    19    2
    25    28    29    1
    26    20    19    1
    27    20    22    1
    28    25    23    1
    29    25    31    1
    30    22    23    1
    31    23    24    2
    32    29    31    2
    33    29    30    1
    34    31    34    1
    35    30    32    2
    36    34    33    2
    37    32    33    1
