@<TRIPOS>MOLECULE
24437_out_ligand_01.pdbqt
 37 42 0 0 0
SMALL
GASTEIGER

@<TRIPOS>ATOM
      1  C         18.9800  -22.7900   -8.3050 C.3     1  UNL1        0.1450
      2  C         18.1640  -22.2260   -9.4440 C.2     1  UNL1       -0.0220
      3  C         16.8020  -21.9690   -9.5180 C.2     1  UNL1        0.0100
      4  C         16.2830  -21.3680  -10.6760 C.2     1  UNL1        0.0020
      5  C         17.1220  -21.0160  -11.7500 C.2     1  UNL1        0.0120
      6  C         18.5020  -21.2690  -11.6760 C.2     1  UNL1       -0.0250
      7  C         19.4690  -20.9800  -12.6550 C.2     1  UNL1        0.0120
      8  C         20.8180  -21.3120  -12.4330 C.2     1  UNL1        0.0020
      9  C         21.2240  -21.9350  -11.2420 C.2     1  UNL1        0.0090
     10  C         20.2720  -22.2050  -10.2670 C.2     1  UNL1       -0.0300
     11  C         18.9620  -21.8760  -10.5050 C.2     1  UNL1       -0.0100
     12  C         20.4160  -22.9300   -8.9490 C.3     1  UNL1        0.1160
     13  S         21.7110  -22.2050   -7.8930 S.3     1  UNL1       -0.0890
     14  C         23.0660  -22.1620   -8.9940 C.ar    1  UNL1        0.1610
     15  N         23.5520  -21.0500   -9.4890 N.ar    1  UNL1       -0.1330
     16  N         24.6410  -21.2830  -10.3020 N.ar    1  UNL1       -0.1220
     17  C         24.9610  -22.5620  -10.3940 C.ar    1  UNL1        0.1950
     18  S         23.8980  -23.5700   -9.4800 S.2     1  UNL1       -0.0220
     19  N         25.9660  -22.9800  -11.2020 N.pl3   1  UNL1       -0.3340
     20  H         26.7910  -23.3100  -10.7130 H       1  UNL1        0.1680
     21  C         26.0620  -23.0910  -12.6000 C.2     1  UNL1        0.0340
     22  C         26.9830  -22.3870  -13.3820 C.2     1  UNL1        0.0290
     23  C         27.0540  -22.5830  -14.7670 C.2     1  UNL1        0.0020
     24  C         26.2090  -23.4950  -15.3900 C.2     1  UNL1        0.0000
     25  C         25.2870  -24.2080  -14.6310 C.2     1  UNL1        0.0020
     26  C         25.2170  -24.0070  -13.2490 C.2     1  UNL1        0.0290
     27  N         18.4960  -24.0880   -7.8350 N.3     1  UNL1       -0.3050
     28  H         18.5360  -24.8910   -8.4610 H       1  UNL1        0.1730
     29  S         17.3270  -24.1760   -6.6510 S.O2    1  UNL1        0.2590
     30  O         16.0760  -23.7000   -7.1960 O.2     1  UNL1       -0.2010
     31  O         17.4400  -25.4970   -6.0720 O.2     1  UNL1       -0.2010
     32  C         17.8890  -23.0030   -5.4440 C.2     1  UNL1        0.0790
     33  C         17.6110  -23.2180   -4.0920 C.2     1  UNL1        0.0250
     34  C         17.9870  -22.2570   -3.1530 C.2     1  UNL1        0.0020
     35  C         18.6350  -21.0920   -3.5640 C.2     1  UNL1        0.0000
     36  C         18.9040  -20.8780   -4.9160 C.2     1  UNL1        0.0020
     37  C         18.5240  -21.8300   -5.8630 C.2     1  UNL1        0.0250
@<TRIPOS>BOND
     1    24    23    2
     2    24    25    1
     3    23    22    1
     4    25    26    2
     5    22    21    2
     6    26    21    1
     7     7     8    2
     8     7     6    1
     9    21    19    1
    10     8     9    1
    11     5     6    2
    12     5     4    1
    13     6    11    1
    14     9    10    2
    15    19    20    1
    16    19    17    1
    17     4     3    2
    18    11    10    1
    19    11     2    2
    20    17    16   ar
    21    17    18   ar
    22    16    15   ar
    23    10    12    1
    24     3     2    1
    25    15    14   ar
    26    18    14   ar
    27     2     1    1
    28    14    13    1
    29    12     1    1
    30    12    13    1
    31    28    27    1
    32     1    27    1
    33    27    29    1
    34    30    29    2
    35    29    31    2
    36    29    32    1
    37    37    32    2
    38    37    36    1
    39    32    33    1
    40    36    35    2
    41    33    34    2
    42    35    34    1
