@<TRIPOS>MOLECULE
24440_out_ligand_01.pdbqt
 37 40 0 0 0
SMALL
GASTEIGER

@<TRIPOS>ATOM
      1  C         24.9020  -22.8750  -10.7210 C.2     1  UNL1        0.1130
      2  C         26.0020  -23.6670  -10.2890 C.1     1  UNL1        0.1050
      3  N         26.8660  -24.3660   -9.9520 N.1     1  UNL1       -0.1910
      4  C         23.6430  -23.3390  -10.5770 C.2     1  UNL1        0.0400
      5  C         25.2330  -21.5270  -11.2760 C.2     1  UNL1        0.2660
      6  N         25.5730  -21.5430  -12.6160 N.am    1  UNL1       -0.3220
      7  H         25.5410  -22.4360  -13.0910 H       1  UNL1        0.1690
      8  O         25.2150  -20.5530  -10.5320 O.2     1  UNL1       -0.2670
      9  C         25.9370  -20.4460  -13.4220 C.2     1  UNL1        0.0350
     10  C         25.4480  -20.4270  -14.7330 C.2     1  UNL1        0.0320
     11  C         25.7740  -19.3770  -15.5970 C.2     1  UNL1        0.0390
     12  C         26.5910  -18.3300  -15.1700 C.2     1  UNL1        0.0680
     13  C         27.0710  -18.3400  -13.8620 C.2     1  UNL1        0.0390
     14  C         26.7460  -19.3920  -12.9940 C.2     1  UNL1        0.0320
     15  O         26.8360  -17.3720  -16.1130 O.2     1  UNL1       -0.3560
     16  C         27.1170  -16.0610  -15.6370 C.3     1  UNL1        0.2100
     17  C         22.3990  -22.6310  -10.8990 C.2     1  UNL1       -0.0320
     18  C         22.2680  -21.8720  -12.0700 C.2     1  UNL1        0.0140
     19  C         21.0700  -21.2070  -12.3640 C.2     1  UNL1        0.0400
     20  C         19.9900  -21.2760  -11.4840 C.2     1  UNL1        0.1020
     21  C         20.1460  -22.0150  -10.3030 C.2     1  UNL1        0.1130
     22  C         21.3280  -22.6970  -10.0060 C.2     1  UNL1        0.0510
     23  O         18.7700  -20.6850  -11.6680 O.2     1  UNL1       -0.3530
     24  C         17.6850  -21.5330  -12.0190 C.3     1  UNL1        0.2100
     25  O         19.0750  -22.1300   -9.4120 O.3     1  UNL1       -0.2720
     26  C         19.3350  -23.0590   -8.4230 C.2     1  UNL1        0.2990
     27  O         19.7140  -24.2110   -8.5550 O.2     1  UNL1       -0.2590
     28  C         19.0670  -22.4120   -7.1180 C.2     1  UNL1        0.0510
     29  C         19.9930  -21.4640   -6.6540 C.2     1  UNL1        0.0180
     30  C         19.7760  -20.8150   -5.4440 C.2     1  UNL1        0.0020
     31  C         18.6350  -21.1080   -4.6980 C.2     1  UNL1        0.0120
     32  C         17.6950  -22.0520   -5.1450 C.2     1  UNL1       -0.0250
     33  C         16.5550  -22.3310   -4.3730 C.2     1  UNL1        0.0120
     34  C         17.8970  -22.7260   -6.3760 C.2     1  UNL1       -0.0100
     35  C         15.6120  -23.2690   -4.7930 C.2     1  UNL1        0.0010
     36  C         15.7980  -23.9410   -5.9930 C.2     1  UNL1        0.0010
     37  C         16.9250  -23.6770   -6.7740 C.2     1  UNL1        0.0130
@<TRIPOS>BOND
     1    15    16    1
     2    15    12    1
     3    11    12    2
     4    11    10    1
     5    12    13    1
     6    10     9    2
     7    13    14    2
     8     9    14    1
     9     9     6    1
    10     7     6    1
    11     6     5   am
    12    19    18    1
    13    19    20    2
    14    18    17    2
    15    24    23    1
    16    23    20    1
    17    20    21    1
    18     5     1    1
    19     5     8    2
    20    17     4    1
    21    17    22    1
    22     1     4    2
    23     1     2    1
    24    21    22    2
    25    21    25    1
    26     2     3    3
    27    25    26    1
    28    27    26    2
    29    26    28    1
    30    28    29    2
    31    28    34    1
    32    37    34    1
    33    37    36    2
    34    29    30    1
    35    34    32    2
    36    36    35    1
    37    30    31    2
    38    32    31    1
    39    32    33    1
    40    35    33    2
