@<TRIPOS>MOLECULE
24453_out_ligand_01.pdbqt
 38 41 0 0 0
SMALL
GASTEIGER

@<TRIPOS>ATOM
      1  C         23.6900  -23.5040  -10.1390 C.2     1  UNL1        0.0400
      2  C         24.9240  -23.0150  -10.3410 C.2     1  UNL1        0.1130
      3  C         26.0780  -23.7890  -10.0440 C.1     1  UNL1        0.1050
      4  N         26.9980  -24.4320   -9.7510 N.1     1  UNL1       -0.1910
      5  C         25.1470  -21.6550  -10.9200 C.2     1  UNL1        0.2660
      6  O         24.8300  -20.6620  -10.2810 O.2     1  UNL1       -0.2670
      7  N         25.6590  -21.7130  -12.1970 N.am    1  UNL1       -0.3200
      8  H         25.8070  -22.6510  -12.5700 H       1  UNL1        0.1690
      9  C         25.9730  -20.6550  -13.0860 C.2     1  UNL1        0.0680
     10  C         26.8360  -19.6160  -12.7110 C.2     1  UNL1        0.0320
     11  C         27.1210  -18.5620  -13.5890 C.2     1  UNL1        0.0020
     12  C         26.5430  -18.5190  -14.8550 C.2     1  UNL1        0.0030
     13  C         25.6950  -19.5410  -15.2630 C.2     1  UNL1        0.0380
     14  C         25.4170  -20.6100  -14.3880 C.2     1  UNL1        0.1290
     15  N         24.5170  -21.6610  -14.8840 N.pl3   1  UNL1       -0.1130
     16  O         25.0090  -22.7580  -15.1530 O.2     1  UNL1       -0.5320
     17  O         23.3130  -21.3990  -15.0060 O.2     1  UNL1       -0.5320
     18  C         22.4560  -22.8040  -10.4950 C.2     1  UNL1       -0.0320
     19  C         22.2520  -22.3340  -11.7930 C.2     1  UNL1        0.0140
     20  C         21.0490  -21.7070  -12.1450 C.2     1  UNL1        0.0400
     21  C         20.0460  -21.5190  -11.1960 C.2     1  UNL1        0.1020
     22  C         20.2860  -21.9550   -9.8920 C.2     1  UNL1        0.1130
     23  C         21.4620  -22.6180   -9.5360 C.2     1  UNL1        0.0510
     24  O         18.8240  -20.9460  -11.4270 O.2     1  UNL1       -0.3530
     25  C         17.8320  -21.7590  -12.0260 C.3     1  UNL1        0.2100
     26  O         19.3300  -21.7650   -8.8980 O.3     1  UNL1       -0.2720
     27  C         19.2510  -22.8510   -8.0500 C.2     1  UNL1        0.2990
     28  O         19.4260  -24.0240   -8.3140 O.2     1  UNL1       -0.2590
     29  C         18.8280  -22.3430   -6.7260 C.2     1  UNL1        0.0510
     30  C         19.6700  -21.4200   -6.0830 C.2     1  UNL1        0.0180
     31  C         19.3070  -20.8900   -4.8520 C.2     1  UNL1        0.0020
     32  C         18.1060  -21.2770   -4.2620 C.2     1  UNL1        0.0120
     33  C         17.2500  -22.2050   -4.8840 C.2     1  UNL1       -0.0250
     34  C         16.0380  -22.5690   -4.2710 C.2     1  UNL1        0.0120
     35  C         17.6060  -22.7680   -6.1350 C.2     1  UNL1       -0.0100
     36  C         15.1770  -23.4880   -4.8680 C.2     1  UNL1        0.0010
     37  C         15.5140  -24.0580   -6.0860 C.2     1  UNL1        0.0010
     38  C         16.7110  -23.7010   -6.7140 C.2     1  UNL1        0.0130
@<TRIPOS>BOND
     1    13    12    2
     2    13    14    1
     3    16    15    2
     4    17    15    2
     5    15    14    1
     6    12    11    1
     7    14     9    2
     8    11    10    2
     9     9    10    1
    10     9     7    1
    11     8     7    1
    12     7     5   am
    13    20    19    1
    14    20    21    2
    15    25    24    1
    16    19    18    2
    17    24    21    1
    18    21    22    1
    19     5     2    1
    20     5     6    2
    21    18     1    1
    22    18    23    1
    23     2     1    2
    24     2     3    1
    25     3     4    3
    26    22    23    2
    27    22    26    1
    28    26    27    1
    29    28    27    2
    30    27    29    1
    31    29    35    2
    32    29    30    1
    33    38    35    1
    34    38    37    2
    35    35    33    1
    36    37    36    1
    37    30    31    2
    38    33    34    1
    39    33    32    2
    40    36    34    2
    41    31    32    1
