@<TRIPOS>MOLECULE
24463_out_ligand_01.pdbqt
 35 38 0 0 0
SMALL
GASTEIGER

@<TRIPOS>ATOM
      1  N         16.8260  -21.1700  -11.1400 N.3     2  UNL2       -0.0960
      2  C         17.4210  -22.0560  -10.1620 C.3     2  UNL2        0.0230
      3  C         17.9730  -22.8450   -9.2620 C.ar    2  UNL2        0.0720
      4  C         19.2470  -23.3900   -9.4020 C.ar    2  UNL2        0.0970
      5  S         19.4780  -24.2980   -8.0230 S.2     2  UNL2       -0.0750
      6  C         18.0040  -24.0170   -7.2280 C.ar    2  UNL2       -0.0070
      7  C         17.3260  -23.2030   -8.0680 C.ar    2  UNL2       -0.0220
      8  C         15.9510  -22.6730   -7.7510 C.3     2  UNL2        0.0410
      9  C         15.7240  -22.5440   -6.2630 C.3     2  UNL2        0.0050
     10  C         17.0200  -22.1450   -5.6050 C.3     2  UNL2        0.0010
     11  C         17.6450  -23.3520   -4.8880 C.3     2  UNL2        0.0050
     12  C         17.6540  -24.5470   -5.8800 C.3     2  UNL2        0.0470
     13  N         20.1190  -23.1540  -10.5450 N.am    2  UNL2       -0.3160
     14  C         21.3460  -22.5000  -10.4670 C.2     2  UNL2        0.2580
     15  O         21.7460  -22.0910   -9.3370 O.2     2  UNL2       -0.2670
     16  H         19.7840  -23.5150  -11.4700 H       2  UNL2        0.1690
     17  C         22.2110  -22.2520  -11.6020 C.2     2  UNL2        0.0550
     18  C         23.4510  -22.7550  -11.8270 C.2     2  UNL2        0.0440
     19  C         24.2100  -22.4610  -12.9040 C.2     2  UNL2        0.0810
     20  C         23.6830  -21.5680  -13.8530 C.2     2  UNL2        0.0270
     21  C         22.4140  -21.0240  -13.6690 C.2     2  UNL2        0.0260
     22  C         21.6870  -21.3490  -12.5840 C.2     2  UNL2        0.0490
     23 CL         20.0560  -20.7670  -12.3690 Cl      2  UNL2       -0.0830
     24  S         25.7380  -23.2350  -13.2210 S.O2    2  UNL2        0.2630
     25  O         25.5010  -23.9240  -14.5980 O.2     2  UNL2       -0.2000
     26  O         25.9430  -24.3940  -12.2530 O.2     2  UNL2       -0.2000
     27  N         27.1210  -22.2600  -13.3230 N.pl3   2  UNL2       -0.2790
     28  H         28.0090  -22.5170  -12.8930 H       2  UNL2        0.1790
     29  C         26.9800  -21.0670  -14.0870 C.2     2  UNL2        0.0640
     30  C         27.0660  -21.1450  -15.5010 C.2     2  UNL2        0.0320
     31  C         26.8870  -20.0510  -16.2960 C.2     2  UNL2        0.0020
     32  C         26.6190  -18.8200  -15.7290 C.2     2  UNL2        0.0020
     33  C         26.5350  -18.7140  -14.3590 C.2     2  UNL2        0.0260
     34  C         26.7160  -19.8550  -13.5330 C.2     2  UNL2        0.0610
     35 CL         26.5930  -19.6470  -11.8070 Cl      2  UNL2       -0.0820
@<TRIPOS>BOND
     1    31    32    2
     2    31    30    1
     3    32    33    1
     4    30    29    2
     5    25    24    2
     6    33    34    2
     7    29    34    1
     8    29    27    1
     9    20    21    2
    10    20    19    1
    11    21    22    1
    12    34    35    1
    13    27    24    1
    14    27    28    1
    15    24    19    1
    16    24    26    2
    17    19    18    2
    18    22    23    1
    19    22    17    2
    20    18    17    1
    21    17    14    1
    22    16    13    1
    23     1     2    1
    24    13    14   am
    25    13     4    1
    26    14    15    2
    27     2     3    1
    28     4     3   ar
    29     4     5   ar
    30     3     7   ar
    31     7     8    1
    32     7     6   ar
    33     5     6   ar
    34     8     9    1
    35     6    12    1
    36     9    10    1
    37    12    11    1
    38    10    11    1
