@<TRIPOS>MOLECULE
24483_out_ligand_01.pdbqt
 32 35 0 0 0
SMALL
GASTEIGER

@<TRIPOS>ATOM
      1  C         20.4020  -23.9510   -8.4960 C.2     1  UNL1        0.1060
      2  C         20.6770  -22.9070   -9.3040 C.2     1  UNL1        0.0590
      3  C         22.1290  -22.5310   -9.4100 C.2     1  UNL1        0.2690
      4  O         22.8400  -22.6370   -8.4130 O.2     1  UNL1       -0.2660
      5  N         22.4960  -22.0410  -10.6680 N.am    1  UNL1       -0.2210
      6  C         21.5980  -21.8040  -11.7140 C.2     1  UNL1        0.2680
      7  O         21.8590  -21.7490  -12.9140 O.2     1  UNL1       -0.2670
      8  C         20.1700  -21.6540  -11.3410 C.2     1  UNL1        0.0440
      9  C         19.2980  -20.9710  -12.2000 C.2     1  UNL1        0.0180
     10  C         17.9700  -20.7690  -11.8300 C.2     1  UNL1        0.0010
     11  C         17.5190  -21.2350  -10.5970 C.2     1  UNL1        0.0010
     12  C         18.3870  -21.9260   -9.7490 C.2     1  UNL1        0.0130
     13  C         19.7130  -22.1780  -10.1310 C.2     1  UNL1       -0.0030
     14  N         19.2210  -24.6290   -8.3080 N.pl3   1  UNL1       -0.3650
     15  H         19.1950  -25.5840   -8.6520 H       1  UNL1        0.1650
     16  C         18.0810  -24.2270   -7.5880 C.2     1  UNL1        0.0330
     17  C         16.7690  -24.4530   -8.0260 C.2     1  UNL1        0.0290
     18  C         15.6660  -24.0320   -7.2730 C.2     1  UNL1        0.0040
     19  C         15.8570  -23.3700   -6.0650 C.2     1  UNL1        0.0250
     20  C         17.1570  -23.1270   -5.6230 C.2     1  UNL1        0.0760
     21  C         18.2610  -23.5570   -6.3690 C.2     1  UNL1        0.0540
     22  S         17.4160  -22.3160   -4.0750 S.O2    1  UNL1        0.2390
     23  O         18.0410  -23.2350   -3.1540 O.2     1  UNL1       -0.2060
     24  O         17.9310  -20.9880   -4.3150 O.2     1  UNL1       -0.2060
     25  N         15.8440  -22.1060   -3.5260 N.3     1  UNL1       -0.2250
     26  H         15.3060  -21.5700   -4.2080 H       1  UNL1        0.1360
     27  H         15.4310  -23.0100   -3.2960 H       1  UNL1        0.1360
     28  C         23.8720  -21.9280  -10.8980 C.2     1  UNL1        0.1820
     29  N         24.6340  -20.9090  -10.5500 N.2     1  UNL1       -0.2360
     30  C         25.9330  -21.0970  -10.9740 C.2     1  UNL1        0.1270
     31  C         26.1630  -22.2600  -11.6700 C.2     1  UNL1        0.0720
     32  S         24.7030  -23.1410  -11.8050 S.3     1  UNL1       -0.0620
@<TRIPOS>BOND
     1     7     6    2
     2     9    10    1
     3     9     8    2
     4    10    11    2
     5    32    31    1
     6    32    28    1
     7     6     8    1
     8     6     5   am
     9    31    30    2
    10     8    13    1
    11    30    29    1
    12    28     5    1
    13    28    29    2
    14     5     3   am
    15    11    12    1
    16    13    12    2
    17    13     2    1
    18     3     2    1
    19     3     4    2
    20     2     1    2
    21    15    14    1
    22     1    14    1
    23    14    16    1
    24    17    16    2
    25    17    18    1
    26    16    21    1
    27    18    19    2
    28    21    20    2
    29    19    20    1
    30    20    22    1
    31    24    22    2
    32    26    25    1
    33    22    25    1
    34    22    23    2
    35    25    27    1
