@<TRIPOS>MOLECULE
24488_out_ligand_01.pdbqt
 37 39 0 0 0
SMALL
GASTEIGER

@<TRIPOS>ATOM
      1  C         18.8640  -21.4610  -11.0490 C.2     1  UNL1        0.0540
      2  C         17.7700  -20.5890  -11.1870 C.2     1  UNL1        0.0190
      3  C         16.4960  -20.9810  -10.7740 C.2     1  UNL1        0.0010
      4  C         16.3030  -22.2420  -10.2180 C.2     1  UNL1        0.0020
      5  C         17.3850  -23.1040  -10.0480 C.2     1  UNL1        0.0250
      6  C         18.6740  -22.7160  -10.4320 C.2     1  UNL1        0.0380
      7  C         20.2230  -21.0410  -11.5140 C.2     1  UNL1        0.2580
      8  N         21.0700  -22.0590  -11.9110 N.am    1  UNL1       -0.3230
      9  H         20.8080  -23.0060  -11.6670 H       1  UNL1        0.1690
     10  O         20.5100  -19.8490  -11.4630 O.2     1  UNL1       -0.2670
     11  C         22.3280  -21.9160  -12.5360 C.2     1  UNL1        0.0360
     12  C         22.5190  -21.2560  -13.7530 C.2     1  UNL1        0.0290
     13  C         23.7880  -21.1870  -14.3400 C.2     1  UNL1        0.0040
     14  C         24.8830  -21.7730  -13.7130 C.2     1  UNL1        0.0250
     15  C         24.6960  -22.4230  -12.4910 C.2     1  UNL1        0.0760
     16  C         23.4260  -22.5100  -11.9080 C.2     1  UNL1        0.0540
     17  S         26.0870  -23.1700  -11.6900 S.O2    1  UNL1        0.2390
     18  O         26.3680  -24.4280  -12.3470 O.2     1  UNL1       -0.2060
     19  O         27.0930  -22.1570  -11.4870 O.2     1  UNL1       -0.2060
     20  N         25.4380  -23.5800  -10.1920 N.3     1  UNL1       -0.2250
     21  H         25.0360  -24.5160  -10.2440 H       1  UNL1        0.1360
     22  H         24.7760  -22.8940   -9.8320 H       1  UNL1        0.1360
     23  N         19.7700  -23.6190  -10.1960 N.pl3   1  UNL1       -0.1800
     24  H         20.4070  -23.7190  -10.9980 H       1  UNL1        0.1460
     25  S         20.7150  -23.3950   -8.8020 S.O2    1  UNL1        0.2460
     26  O         21.4880  -24.5890   -8.5360 O.2     1  UNL1       -0.2060
     27  O         21.3540  -22.1030   -8.9280 O.2     1  UNL1       -0.2060
     28  C         19.4950  -23.2480   -7.5100 C.2     1  UNL1        0.0770
     29  C         18.4680  -24.1930   -7.4050 C.2     1  UNL1        0.0260
     30  C         17.5050  -24.0650   -6.3980 C.2     1  UNL1        0.0280
     31  C         17.5650  -22.9990   -5.4940 C.2     1  UNL1        0.0670
     32 CL         16.3420  -22.8920   -4.2830 Cl      1  UNL1       -0.0820
     33  C         18.6100  -22.0820   -5.6090 C.2     1  UNL1        0.1260
     34  C         19.5930  -22.1970   -6.5960 C.2     1  UNL1        0.0620
     35  N         18.6920  -20.9610   -4.7080 N.pl3   1  UNL1       -0.1140
     36  O         18.9810  -19.8630   -5.2020 O.2     1  UNL1       -0.5320
     37  O         18.5060  -21.1950   -3.5070 O.2     1  UNL1       -0.5320
@<TRIPOS>BOND
     1    13    12    1
     2    13    14    2
     3    12    11    2
     4    14    15    1
     5    11     8    1
     6    11    16    1
     7    15    16    2
     8    15    17    1
     9    18    17    2
    10     8     9    1
    11     8     7   am
    12    17    19    2
    13    17    20    1
    14     7    10    2
    15     7     1    1
    16     2     1    2
    17     2     3    1
    18     1     6    1
    19    24    23    1
    20     3     4    2
    21     6    23    1
    22     6     5    2
    23    21    20    1
    24     4     5    1
    25    23    25    1
    26    20    22    1
    27    27    25    2
    28    25    26    2
    29    25    28    1
    30    28    29    2
    31    28    34    1
    32    29    30    1
    33    34    33    2
    34    30    31    2
    35    33    31    1
    36    33    35    1
    37    31    32    1
    38    36    35    2
    39    35    37    2
