@<TRIPOS>MOLECULE
24497_out_ligand_01.pdbqt
 29 32 0 0 0
SMALL
GASTEIGER

@<TRIPOS>ATOM
      1  C         18.5990  -23.0290   -9.5190 C.2     1  UNL1        0.2420
      2  O         18.3430  -22.9580  -10.7260 O.2     1  UNL1       -0.2710
      3  N         17.5990  -22.9270   -8.5500 N.am    1  UNL1       -0.3160
      4  C         16.2510  -23.3140   -8.9610 C.3     1  UNL1        0.1320
      5  C         15.6960  -24.3400   -7.9910 C.3     1  UNL1        0.0250
      6  C         15.5770  -23.7080   -6.6130 C.3     1  UNL1        0.0430
      7  C         16.7850  -22.8850   -6.2240 C.2     1  UNL1       -0.0150
      8  C         16.9630  -22.4690   -4.8850 C.2     1  UNL1        0.0400
      9  C         18.0790  -21.7190   -4.5040 C.2     1  UNL1        0.0180
     10  C         19.0000  -21.3170   -5.4610 C.2     1  UNL1        0.0030
     11  C         18.8250  -21.6960   -6.7930 C.2     1  UNL1        0.0300
     12  C         17.7560  -22.5160   -7.1880 C.2     1  UNL1        0.0440
     13  C         20.0340  -23.3190   -9.0620 C.3     1  UNL1        0.2360
     14  N         20.9580  -22.8780  -10.0970 N.am    1  UNL1       -0.2990
     15  C         22.2840  -23.3140  -10.0150 C.2     1  UNL1        0.2640
     16  C         23.0930  -22.8270  -11.0950 C.2     1  UNL1        0.0990
     17  O         22.7220  -24.0370   -9.1250 O.2     1  UNL1       -0.2670
     18  C         24.4390  -22.9440  -11.4530 C.2     1  UNL1        0.1600
     19  C         22.5130  -22.0540  -12.0700 C.2     1  UNL1        0.1640
     20  N         24.7150  -22.2850  -12.5870 N.2     1  UNL1       -0.1820
     21  N         23.5180  -21.7540  -12.9480 N.pl3   1  UNL1       -0.2560
     22  C         23.4240  -20.9740  -14.1550 C.3     1  UNL1        0.1820
     23  N         21.2160  -21.6760  -12.1580 N.2     1  UNL1       -0.2240
     24  C         20.4960  -22.1200  -11.1700 C.2     1  UNL1        0.2150
     25  C         16.0060  -22.7950   -3.8010 C.2     1  UNL1        0.2490
     26  N         16.2040  -23.9820   -3.1530 N.am    1  UNL1       -0.3660
     27  H         15.4730  -24.2740   -2.5150 H       1  UNL1        0.1590
     28  H         16.8270  -24.6890   -3.5160 H       1  UNL1        0.1590
     29  O         15.0510  -22.0730   -3.5530 O.2     1  UNL1       -0.2680
@<TRIPOS>BOND
     1    22    21    1
     2    21    20    1
     3    21    19    1
     4    20    18    2
     5    23    19    1
     6    23    24    2
     7    19    16    2
     8    18    16    1
     9    24    14    1
    10    16    15    1
    11     2     1    2
    12    14    15   am
    13    14    13    1
    14    15    17    2
    15     1    13    1
    16     1     3   am
    17     4     3    1
    18     4     5    1
    19     3    12    1
    20     5     6    1
    21    12    11    1
    22    12     7    2
    23    11    10    2
    24     6     7    1
    25     7     8    1
    26    10     9    1
    27     8     9    2
    28     8    25    1
    29    25    29    2
    30    25    26   am
    31    28    26    1
    32    26    27    1
