@<TRIPOS>MOLECULE
24494_out_ligand_01.pdbqt
 37 40 0 0 0
SMALL
GASTEIGER

@<TRIPOS>ATOM
      1  C         23.7470  -23.2660  -10.3300 C.2     1  UNL1        0.0400
      2  C         24.9880  -22.8770  -10.6900 C.2     1  UNL1        0.1130
      3  C         26.1150  -23.6530  -10.2940 C.1     1  UNL1        0.1050
      4  N         27.0000  -24.3030   -9.9190 N.1     1  UNL1       -0.1910
      5  C         25.2720  -21.6840  -11.5450 C.2     1  UNL1        0.2660
      6  O         25.3720  -20.5830  -11.0190 O.2     1  UNL1       -0.2670
      7  N         25.3700  -21.9760  -12.8910 N.am    1  UNL1       -0.3220
      8  H         25.2600  -22.9460  -13.1650 H       1  UNL1        0.1690
      9  C         25.6670  -21.0880  -13.9460 C.2     1  UNL1        0.0350
     10  C         25.3670  -21.5180  -15.2420 C.2     1  UNL1        0.0300
     11  C         25.6330  -20.7010  -16.3430 C.2     1  UNL1        0.0090
     12  C         26.2050  -19.4340  -16.1740 C.2     1  UNL1       -0.0560
     13  C         26.4770  -18.5790  -17.3800 C.3     1  UNL1        0.0490
     14  C         26.5080  -18.9900  -14.8730 C.2     1  UNL1       -0.0540
     15  C         27.1200  -17.6370  -14.6300 C.3     1  UNL1        0.0490
     16  C         26.2340  -19.8250  -13.7730 C.2     1  UNL1        0.0370
     17  C         22.4800  -22.6290  -10.7090 C.2     1  UNL1       -0.0320
     18  C         22.2620  -22.1350  -12.0020 C.2     1  UNL1        0.0140
     19  C         21.0510  -21.5130  -12.3400 C.2     1  UNL1        0.0400
     20  C         20.0330  -21.3940  -11.3940 C.2     1  UNL1        0.1020
     21  C         20.2520  -21.9240  -10.1160 C.2     1  UNL1        0.1130
     22  C         21.4600  -22.5290   -9.7600 C.2     1  UNL1        0.0510
     23  O         18.8220  -20.7880  -11.5960 O.2     1  UNL1       -0.3530
     24  C         17.7010  -21.6430  -11.7920 C.3     1  UNL1        0.2100
     25  O         19.2640  -21.7990   -9.1350 O.3     1  UNL1       -0.2720
     26  C         19.2330  -22.8980   -8.2960 C.2     1  UNL1        0.2990
     27  O         19.5540  -24.0480   -8.5490 O.2     1  UNL1       -0.2590
     28  C         18.7800  -22.4240   -6.9680 C.2     1  UNL1        0.0510
     29  C         19.6030  -21.5080   -6.2920 C.2     1  UNL1        0.0180
     30  C         19.2260  -21.0190   -5.0480 C.2     1  UNL1        0.0020
     31  C         18.0280  -21.4400   -4.4750 C.2     1  UNL1        0.0120
     32  C         17.1860  -22.3510   -5.1360 C.2     1  UNL1       -0.0250
     33  C         15.9840  -22.7590   -4.5340 C.2     1  UNL1        0.0120
     34  C         17.5500  -22.8610   -6.4080 C.2     1  UNL1       -0.0100
     35  C         15.1330  -23.6650   -5.1680 C.2     1  UNL1        0.0010
     36  C         15.4740  -24.1740   -6.4130 C.2     1  UNL1        0.0010
     37  C         16.6660  -23.7800   -7.0250 C.2     1  UNL1        0.0130
@<TRIPOS>BOND
     1    13    12    1
     2    11    12    2
     3    11    10    1
     4    12    14    1
     5    10     9    2
     6    14    15    1
     7    14    16    2
     8     9    16    1
     9     9     7    1
    10     8     7    1
    11     7     5   am
    12    19    18    1
    13    19    20    2
    14    18    17    2
    15    24    23    1
    16    23    20    1
    17     5     6    2
    18     5     2    1
    19    20    21    1
    20    17     1    1
    21    17    22    1
    22     2     1    2
    23     2     3    1
    24     3     4    3
    25    21    22    2
    26    21    25    1
    27    25    26    1
    28    27    26    2
    29    26    28    1
    30    37    36    2
    31    37    34    1
    32    28    34    2
    33    28    29    1
    34    36    35    1
    35    34    32    1
    36    29    30    2
    37    35    33    2
    38    32    33    1
    39    32    31    2
    40    30    31    1
