@<TRIPOS>MOLECULE
244_out_ligand_01.pdbqt
 29 31 0 0 0
SMALL
GASTEIGER

@<TRIPOS>ATOM
      1  C         19.8780  -22.6360  -10.3040 C.2     1  UNL1        0.0320
      2  C         20.2440  -23.4330   -9.2110 C.2     1  UNL1        0.0180
      3  C         19.2720  -23.9160   -8.3330 C.2     1  UNL1        0.0260
      4  C         17.9290  -23.6010   -8.5560 C.2     1  UNL1        0.0790
      5  C         17.5550  -22.7740   -9.6220 C.2     1  UNL1        0.0260
      6  C         18.5320  -22.2920  -10.4970 C.2     1  UNL1        0.0180
      7  S         16.6890  -24.2100   -7.4320 S.O2    1  UNL1        0.2630
      8  O         17.3370  -25.1070   -6.5000 O.2     1  UNL1       -0.2000
      9  O         15.5570  -24.6400   -8.2260 O.2     1  UNL1       -0.2000
     10  N         16.1940  -22.8150   -6.6140 N.pl3   1  UNL1       -0.2790
     11  H         15.8490  -22.1100   -7.2680 H       1  UNL1        0.1790
     12  C         16.9980  -22.3250   -5.5340 C.2     1  UNL1        0.0640
     13  C         18.1080  -21.5210   -5.8020 C.2     1  UNL1        0.0320
     14  C         18.8770  -21.0170   -4.7510 C.2     1  UNL1        0.0020
     15  C         18.5430  -21.3120   -3.4300 C.2     1  UNL1        0.0020
     16  C         17.4370  -22.1190   -3.1540 C.2     1  UNL1        0.0260
     17  C         16.6670  -22.6250   -4.2040 C.2     1  UNL1        0.0610
     18 CL         15.3070  -23.6200   -3.8260 Cl      1  UNL1       -0.0820
     19  C         20.9530  -22.1430  -11.2130 C.2     1  UNL1        0.2560
     20  O         20.6230  -21.6300  -12.2750 O.2     1  UNL1       -0.2670
     21  N         22.2410  -22.2850  -10.7260 N.am    1  UNL1       -0.3230
     22  H         22.3390  -22.6070   -9.7720 H       1  UNL1        0.1690
     23  C         23.4440  -21.9460  -11.3790 C.2     1  UNL1        0.0350
     24  C         24.5110  -21.5200  -10.5720 C.2     1  UNL1        0.0320
     25  C         25.7380  -21.1710  -11.1420 C.2     1  UNL1        0.0440
     26  C         25.8990  -21.2480  -12.5180 C.2     1  UNL1        0.1160
     27  F         27.0750  -20.9130  -13.0650 F       1  UNL1       -0.2060
     28  C         24.8580  -21.6700  -13.3330 C.2     1  UNL1        0.0440
     29  C         23.6290  -22.0200  -12.7620 C.2     1  UNL1        0.0320
@<TRIPOS>BOND
     1    28    29    1
     2    28    26    2
     3    27    26    1
     4    29    23    2
     5    26    25    1
     6    20    19    2
     7    23    21    1
     8    23    24    1
     9    19    21   am
    10    19     1    1
    11    25    24    2
    12    21    22    1
    13     6     1    2
    14     6     5    1
    15     1     2    1
    16     5     4    2
    17     2     3    2
    18     4     3    1
    19     4     7    1
    20     9     7    2
    21     7    10    1
    22     7     8    2
    23    11    10    1
    24    10    12    1
    25    13    12    2
    26    13    14    1
    27    12    17    1
    28    14    15    2
    29    17    18    1
    30    17    16    2
    31    15    16    1
