@<TRIPOS>MOLECULE
24507_out_ligand_01.pdbqt
 39 42 0 0 0
SMALL
GASTEIGER

@<TRIPOS>ATOM
      1  C         24.8590  -23.6240   -9.7600 C.2     1  UNL1        0.1130
      2  C         26.1230  -24.0770   -9.2790 C.1     1  UNL1        0.1050
      3  N         27.1170  -24.4480   -8.8080 N.1     1  UNL1       -0.1910
      4  C         23.7360  -24.0010   -9.1160 C.2     1  UNL1        0.0390
      5  C         24.8920  -22.7770  -10.9890 C.2     1  UNL1        0.2660
      6  N         24.6810  -23.4740  -12.1560 N.am    1  UNL1       -0.3200
      7  H         24.5900  -24.4890  -12.1070 H       1  UNL1        0.1690
      8  O         25.0920  -21.5720  -10.8880 O.2     1  UNL1       -0.2670
      9  C         24.7390  -22.9950  -13.4820 C.2     1  UNL1        0.0680
     10  C         24.0270  -21.8810  -13.9390 C.2     1  UNL1        0.0350
     11  C         24.1560  -21.4610  -15.2660 C.2     1  UNL1        0.0380
     12  C         25.0070  -22.1580  -16.1330 C.2     1  UNL1        0.1050
     13  C         25.7220  -23.2820  -15.6930 C.2     1  UNL1        0.0750
     14  C         25.5880  -23.6990  -14.3670 C.2     1  UNL1        0.0970
     15  N         25.1430  -21.7130  -17.5240 N.pl3   1  UNL1       -0.1160
     16  O         26.1710  -22.0410  -18.1320 O.2     1  UNL1       -0.5320
     17  O         24.2170  -21.0480  -18.0090 O.2     1  UNL1       -0.5320
     18  O         26.2300  -24.7880  -13.8180 O.2     1  UNL1       -0.3540
     19  C         27.1210  -25.5090  -14.6660 C.3     1  UNL1        0.2100
     20  C         22.3320  -23.7070   -9.4500 C.2     1  UNL1       -0.0330
     21  C         21.3300  -24.4830   -8.8460 C.2     1  UNL1        0.0140
     22  C         19.9840  -24.2770   -9.1560 C.2     1  UNL1        0.0390
     23  C         19.6330  -23.2790  -10.0670 C.2     1  UNL1        0.0970
     24  C         20.6190  -22.5070  -10.6840 C.2     1  UNL1        0.0450
     25 BR         20.1740  -21.1510  -11.9300 Br      1  UNL1       -0.0480
     26  C         21.9670  -22.7290  -10.3860 C.2     1  UNL1        0.0330
     27  O         18.2950  -23.1300  -10.4560 O.3     1  UNL1       -0.2740
     28  C         17.5620  -22.2050   -9.7390 C.2     1  UNL1        0.2990
     29  O         17.3080  -21.0480  -10.0270 O.2     1  UNL1       -0.2590
     30  C         17.0590  -22.8840   -8.5340 C.2     1  UNL1        0.0510
     31  C         16.0620  -23.8500   -8.7250 C.2     1  UNL1        0.0180
     32  C         15.5570  -24.5400   -7.6280 C.2     1  UNL1        0.0020
     33  C         16.0390  -24.2570   -6.3500 C.2     1  UNL1        0.0120
     34  C         17.0210  -23.2730   -6.1410 C.2     1  UNL1       -0.0250
     35  C         17.4800  -22.9940   -4.8430 C.2     1  UNL1        0.0120
     36  C         17.5490  -22.5590   -7.2430 C.2     1  UNL1       -0.0100
     37  C         18.4440  -22.0120   -4.6170 C.2     1  UNL1        0.0010
     38  C         18.9630  -21.2940   -5.6860 C.2     1  UNL1        0.0010
     39  C         18.5220  -21.5630   -6.9840 C.2     1  UNL1        0.0130
@<TRIPOS>BOND
     1    16    15    2
     2    17    15    2
     3    15    12    1
     4    12    13    2
     5    12    11    1
     6    13    14    1
     7    11    10    2
     8    19    18    1
     9    14    18    1
    10    14     9    2
    11    10     9    1
    12     9     6    1
    13     6     7    1
    14     6     5   am
    15    25    24    1
    16     5     8    2
    17     5     1    1
    18    24    26    1
    19    24    23    2
    20    27    23    1
    21    27    28    1
    22    26    20    2
    23    23    22    1
    24    29    28    2
    25     1     2    1
    26     1     4    2
    27    28    30    1
    28    20     4    1
    29    20    21    1
    30     2     3    3
    31    22    21    2
    32    31    30    2
    33    31    32    1
    34    30    36    1
    35    32    33    2
    36    36    39    1
    37    36    34    2
    38    39    38    2
    39    33    34    1
    40    34    35    1
    41    38    37    1
    42    35    37    2
