@<TRIPOS>MOLECULE
24511_out_ligand_01.pdbqt
 39 42 0 0 0
SMALL
GASTEIGER

@<TRIPOS>ATOM
      1  C         23.7570  -21.5760  -10.4070 C.2     1  UNL1        0.2830
      2  O         24.7370  -20.8380  -10.4370 O.2     1  UNL1       -0.2630
      3  O         23.4670  -22.4080   -9.3690 O.3     1  UNL1       -0.3100
      4  C         22.7110  -21.8120   -8.3170 C.3     1  UNL1        0.2810
      5  C         21.3850  -22.4770   -7.9260 C.2     1  UNL1        0.2460
      6  N         20.5220  -21.6470   -7.2300 N.am    1  UNL1       -0.3250
      7  H         20.8250  -20.6900   -7.0720 H       1  UNL1        0.1690
      8  O         21.2060  -23.6690   -8.1680 O.2     1  UNL1       -0.2710
      9  C         19.2560  -21.9850   -6.7010 C.2     1  UNL1        0.0340
     10  C         18.2340  -22.5940   -7.4390 C.2     1  UNL1        0.0310
     11  C         17.0030  -22.9040   -6.8440 C.2     1  UNL1        0.0270
     12  C         16.8000  -22.6130   -5.4950 C.2     1  UNL1        0.0740
     13  C         17.8020  -21.9930   -4.7460 C.2     1  UNL1        0.0270
     14  C         19.0220  -21.6830   -5.3530 C.2     1  UNL1        0.0310
     15  S         15.2570  -23.0060   -4.7190 S.O2    1  UNL1        0.2390
     16  O         15.3220  -24.3540   -4.2040 O.2     1  UNL1       -0.2060
     17  O         14.1880  -22.5510   -5.5770 O.2     1  UNL1       -0.2060
     18  N         15.3020  -22.0070   -3.3610 N.3     1  UNL1       -0.2250
     19  H         14.3430  -21.7660   -3.1050 H       1  UNL1        0.1360
     20  H         15.8090  -22.4160   -2.5770 H       1  UNL1        0.1360
     21  C         22.7680  -21.7220  -11.5660 C.3     1  UNL1        0.2000
     22  C         21.6710  -22.7770  -11.3430 C.3     1  UNL1        0.0740
     23  C         20.2760  -22.1960  -11.3190 C.2     1  UNL1       -0.0560
     24  C         19.1950  -22.9800  -10.8940 C.2     1  UNL1        0.0070
     25  C         17.9020  -22.4570  -10.8790 C.2     1  UNL1        0.0010
     26  C         17.6760  -21.1470  -11.2890 C.2     1  UNL1        0.0000
     27  C         18.7420  -20.3580  -11.7110 C.2     1  UNL1        0.0010
     28  C         20.0370  -20.8780  -11.7250 C.2     1  UNL1        0.0070
     29  N         23.5820  -21.9690  -12.7510 N.am    1  UNL1       -0.2650
     30  C         24.5910  -22.8920  -12.8030 C.2     1  UNL1        0.2620
     31  O         24.9650  -23.6430  -11.9190 O.2     1  UNL1       -0.2670
     32  C         25.1890  -22.7820  -14.1310 C.2     1  UNL1        0.0480
     33  C         26.2360  -23.4760  -14.7040 C.2     1  UNL1        0.0180
     34  C         24.5150  -21.7780  -14.8070 C.2     1  UNL1        0.0480
     35  C         26.5920  -23.1250  -16.0110 C.2     1  UNL1        0.0010
     36  C         25.9030  -22.1040  -16.7020 C.2     1  UNL1        0.0010
     37  C         24.8470  -21.4150  -16.0970 C.2     1  UNL1        0.0180
     38  C         23.4890  -21.2480  -13.9080 C.2     1  UNL1        0.2620
     39  O         22.7260  -20.3440  -14.1850 O.2     1  UNL1       -0.2670
@<TRIPOS>BOND
     1    36    37    2
     2    36    35    1
     3    37    34    1
     4    35    33    2
     5    34    32    2
     6    34    38    1
     7    33    32    1
     8    39    38    2
     9    32    30    1
    10    38    29   am
    11    30    29   am
    12    30    31    2
    13    29    21    1
    14    28    27    1
    15    28    23    2
    16    27    26    2
    17    21    22    1
    18    21     1    1
    19    22    23    1
    20    23    24    1
    21    26    25    1
    22    24    25    2
    23     2     1    2
    24     1     3    1
    25     3     4    1
    26     4     5    1
    27     8     5    2
    28     5     6   am
    29    10    11    1
    30    10     9    2
    31     6     7    1
    32     6     9    1
    33    11    12    2
    34     9    14    1
    35    17    15    2
    36    12    13    1
    37    12    15    1
    38    14    13    2
    39    15    16    2
    40    15    18    1
    41    18    19    1
    42    18    20    1
