@<TRIPOS>MOLECULE
24512_out_ligand_01.pdbqt
 33 36 0 0 0
SMALL
GASTEIGER

@<TRIPOS>ATOM
      1  C         19.7410  -22.0610  -10.7100 C.2     1  UNL1        0.2580
      2  O         18.9390  -21.6740  -11.5570 O.2     1  UNL1       -0.2670
      3  N         19.4550  -22.4140   -9.3790 N.am    1  UNL1       -0.3130
      4  C         20.5120  -22.4110   -8.3580 C.3     1  UNL1        0.1330
      5  C         20.0400  -21.8020   -7.0580 C.3     1  UNL1        0.0250
      6  C         18.8910  -22.6220   -6.5080 C.3     1  UNL1        0.0430
      7  C         17.8320  -22.8920   -7.5520 C.2     1  UNL1       -0.0150
      8  C         16.5460  -23.3340   -7.1550 C.2     1  UNL1        0.0400
      9  C         15.5480  -23.5900   -8.1020 C.2     1  UNL1        0.0180
     10  C         15.8250  -23.4370   -9.4510 C.2     1  UNL1        0.0030
     11  C         17.1000  -23.0400   -9.8580 C.2     1  UNL1        0.0300
     12  C         18.1240  -22.7620   -8.9340 C.2     1  UNL1        0.0440
     13  C         21.1450  -22.1530  -11.1710 C.2     1  UNL1        0.0350
     14  C         22.1060  -22.7110  -10.3240 C.2     1  UNL1        0.0180
     15  C         23.4380  -22.8040  -10.7430 C.2     1  UNL1        0.0220
     16  C         23.8360  -22.3310  -12.0050 C.2     1  UNL1        0.0410
     17  C         22.8580  -21.7250  -12.8190 C.2     1  UNL1        0.1210
     18  C         21.5170  -21.6310  -12.4110 C.2     1  UNL1        0.0540
     19  S         25.5540  -22.5910  -12.4450 S.3     1  UNL1       -0.0480
     20  C         26.1410  -20.9980  -12.1200 C.2     1  UNL1        0.1950
     21  N         26.0850  -20.3600  -10.9730 N.2     1  UNL1       -0.1230
     22  N         26.6890  -19.1350  -11.1470 N.2     1  UNL1       -0.1430
     23  C         27.0990  -19.0680  -12.3930 C.2     1  UNL1        0.2350
     24  N         26.7730  -20.2200  -13.0450 N.pl3   1  UNL1       -0.3220
     25  C         27.0800  -20.5330  -14.4150 C.3     1  UNL1        0.1590
     26  N         23.1870  -21.1630  -14.1230 N.pl3   1  UNL1       -0.1140
     27  O         23.2700  -21.9380  -15.0860 O.2     1  UNL1       -0.5320
     28  O         23.4150  -19.9460  -14.1710 O.2     1  UNL1       -0.5320
     29  C         16.1920  -23.5580   -5.7280 C.2     1  UNL1        0.2490
     30  N         15.4140  -22.5900   -5.1560 N.am    1  UNL1       -0.3660
     31  H         15.0820  -22.7650   -4.2150 H       1  UNL1        0.1590
     32  H         14.9660  -21.8650   -5.6970 H       1  UNL1        0.1590
     33  O         16.5540  -24.5400   -5.0980 O.2     1  UNL1       -0.2680
@<TRIPOS>BOND
     1    27    26    2
     2    25    24    1
     3    28    26    2
     4    26    17    1
     5    24    23    1
     6    24    20    1
     7    17    18    1
     8    17    16    2
     9    19    20    1
    10    19    16    1
    11    18    13    2
    12    23    22    2
    13    20    21    2
    14    16    15    1
    15     2     1    2
    16    13     1    1
    17    13    14    1
    18    22    21    1
    19    15    14    2
    20     1     3   am
    21    11    10    2
    22    11    12    1
    23    10     9    1
    24     3    12    1
    25     3     4    1
    26    12     7    2
    27     4     5    1
    28     9     8    2
    29     7     8    1
    30     7     6    1
    31     8    29    1
    32     5     6    1
    33    29    30   am
    34    29    33    2
    35    32    30    1
    36    30    31    1
