@<TRIPOS>MOLECULE
2451_out_ligand_01.pdbqt
 37 41 0 0 0
SMALL
GASTEIGER

@<TRIPOS>ATOM
      1  C         21.7000  -22.6180   -9.3350 C.2     1  UNL1        0.1480
      2  C         21.2660  -22.5770   -7.9820 C.2     1  UNL1        0.0890
      3  C         19.8980  -22.5500   -8.0470 C.2     1  UNL1        0.1230
      4  N         19.5810  -22.4850   -9.3780 N.pl3   1  UNL1       -0.2400
      5  N         20.6490  -22.6030  -10.1880 N.2     1  UNL1       -0.1650
      6  C         18.2200  -22.5000   -9.8910 C.3     1  UNL1        0.2210
      7  C         17.2000  -22.2230   -8.7680 C.3     1  UNL1        0.0660
      8  C         17.5830  -22.9730   -7.4860 C.3     1  UNL1        0.1180
      9  N         18.9360  -22.5770   -7.0960 N.pl3   1  UNL1       -0.3660
     10  H         19.1880  -22.8360   -6.1420 H       1  UNL1        0.1610
     11  C         23.0900  -22.7020   -9.8120 C.2     1  UNL1        0.2760
     12  N         23.3280  -21.8540  -10.8740 N.am    1  UNL1       -0.3190
     13  H         22.5390  -21.2880  -11.1750 H       1  UNL1        0.1690
     14  O         23.9070  -23.4580   -9.2970 O.2     1  UNL1       -0.2660
     15  C         24.5250  -21.7430  -11.5440 C.2     1  UNL1        0.0710
     16  C         24.8190  -22.4030  -12.7160 C.2     1  UNL1        0.1430
     17  N         26.1010  -22.0490  -13.0400 N.pl3   1  UNL1       -0.2750
     18  N         26.6510  -21.1830  -12.1680 N.2     1  UNL1       -0.1830
     19  C         25.6900  -21.0050  -11.2530 C.2     1  UNL1        0.1690
     20  C         26.8610  -22.4800  -14.2090 C.3     1  UNL1        0.1890
     21  C         26.0510  -22.4230  -15.4890 C.2     1  UNL1       -0.0320
     22  C         25.9390  -21.2000  -16.1770 C.2     1  UNL1        0.0090
     23  C         25.1920  -21.0930  -17.3490 C.2     1  UNL1        0.0010
     24  C         24.5290  -22.2060  -17.8530 C.2     1  UNL1        0.0010
     25  C         24.6030  -23.4200  -17.1740 C.2     1  UNL1        0.0070
     26  C         25.3480  -23.5400  -15.9840 C.2     1  UNL1       -0.0540
     27  C         25.3710  -24.8750  -15.2890 C.3     1  UNL1        0.0490
     28  C         18.0360  -21.4930  -11.0050 C.3     1  UNL1        0.4090
     29  F         18.1470  -22.1190  -12.2070 F       1  UNL1       -0.1690
     30  F         18.9700  -20.5150  -11.0030 F       1  UNL1       -0.1690
     31  F         16.8150  -20.9100  -10.9810 F       1  UNL1       -0.1690
     32  C         16.6090  -22.6890   -6.3620 C.2     1  UNL1       -0.0350
     33  C         15.2550  -22.4170   -6.6130 C.2     1  UNL1        0.0090
     34  C         14.3680  -22.1790   -5.5630 C.2     1  UNL1        0.0010
     35  C         14.8200  -22.2090   -4.2460 C.2     1  UNL1        0.0000
     36  C         16.1600  -22.4770   -3.9810 C.2     1  UNL1        0.0010
     37  C         17.0490  -22.7160   -5.0300 C.2     1  UNL1        0.0090
@<TRIPOS>BOND
     1    24    23    2
     2    24    25    1
     3    23    22    1
     4    25    26    2
     5    22    21    2
     6    26    21    1
     7    26    27    1
     8    21    20    1
     9    20    17    1
    10    17    16    1
    11    17    18    1
    12    16    15    2
    13    29    28    1
    14    18    19    2
    15    15    19    1
    16    15    12    1
    17    13    12    1
    18    28    30    1
    19    28    31    1
    20    28     6    1
    21    12    11   am
    22     5     4    1
    23     5     1    2
    24     6     4    1
    25     6     7    1
    26    11     1    1
    27    11    14    2
    28     4     3    1
    29     1     2    1
    30     7     8    1
    31     3     2    2
    32     3     9    1
    33     8     9    1
    34     8    32    1
    35     9    10    1
    36    33    32    2
    37    33    34    1
    38    32    37    1
    39    34    35    2
    40    37    36    2
    41    35    36    1
