@<TRIPOS>MOLECULE
24533_out_ligand_01.pdbqt
 40 43 0 0 0
SMALL
GASTEIGER

@<TRIPOS>ATOM
      1  N         21.0440  -22.7890   -9.8990 N.am    1  UNL1       -0.3230
      2  C         21.2030  -22.4040   -8.5810 C.2     1  UNL1        0.2560
      3  O         22.1500  -21.8000   -8.0990 O.2     1  UNL1       -0.2670
      4  H         20.2430  -23.3700  -10.1100 H       1  UNL1        0.1690
      5  C         21.9290  -22.5630  -10.9740 C.2     1  UNL1        0.0350
      6  C         21.6380  -21.7410  -12.0660 C.2     1  UNL1        0.0310
      7  C         22.5810  -21.5490  -13.0830 C.2     1  UNL1        0.0270
      8  C         23.8080  -22.2140  -13.0260 C.2     1  UNL1        0.0800
      9  C         24.1160  -23.0320  -11.9380 C.2     1  UNL1        0.0270
     10  C         23.1770  -23.2020  -10.9170 C.2     1  UNL1        0.0310
     11  S         25.0160  -21.9570  -14.3070 S.O2    1  UNL1        0.2630
     12  O         26.2260  -21.4640  -13.6850 O.2     1  UNL1       -0.2000
     13  O         25.0350  -23.1540  -15.1290 O.2     1  UNL1       -0.2000
     14  N         24.3240  -20.7590  -15.2720 N.pl3   1  UNL1       -0.2800
     15  H         23.4510  -20.4080  -14.8850 H       1  UNL1        0.1790
     16  C         25.1530  -19.8550  -16.0010 C.2     1  UNL1        0.0490
     17  C         25.3900  -20.0500  -17.3720 C.2     1  UNL1       -0.0350
     18  C         26.1890  -19.1200  -18.0580 C.2     1  UNL1        0.0090
     19  C         24.8040  -21.2120  -18.1250 C.3     1  UNL1        0.0500
     20  C         26.7550  -18.0310  -17.3910 C.2     1  UNL1        0.0070
     21  C         26.5410  -17.8520  -16.0210 C.2     1  UNL1       -0.0600
     22  C         27.1210  -16.6700  -15.3060 C.3     1  UNL1        0.0480
     23  C         25.7270  -18.7650  -15.3380 C.2     1  UNL1        0.0370
     24  C         20.1030  -22.8260   -7.6720 C.2     1  UNL1        0.0320
     25  C         19.7120  -21.9500   -6.6520 C.2     1  UNL1        0.0190
     26  C         18.7130  -22.3270   -5.7510 C.2     1  UNL1        0.0250
     27  C         18.0920  -23.5710   -5.8760 C.2     1  UNL1        0.0250
     28  C         18.4630  -24.4350   -6.9080 C.2     1  UNL1        0.0250
     29  C         19.4640  -24.0640   -7.8110 C.2     1  UNL1        0.0190
     30  N         17.1180  -23.9350   -4.8810 N.pl3   1  UNL1       -0.1760
     31  C         17.5120  -23.6360   -3.4860 C.3     1  UNL1        0.1360
     32  S         15.5270  -23.4300   -5.3050 S.O2    1  UNL1        0.2470
     33  O         15.3220  -22.0690   -4.8580 O.2     1  UNL1       -0.2050
     34  O         14.6120  -24.4900   -4.9230 O.2     1  UNL1       -0.2050
     35  C         15.6030  -23.3810   -7.0790 C.2     1  UNL1        0.0750
     36  C         15.3920  -24.5630   -7.7950 C.2     1  UNL1        0.0250
     37  C         15.4610  -24.5440   -9.1870 C.2     1  UNL1        0.0020
     38  C         15.7490  -23.3530   -9.8560 C.2     1  UNL1        0.0000
     39  C         15.9690  -22.1790   -9.1340 C.2     1  UNL1        0.0020
     40  C         15.9010  -22.1880   -7.7420 C.2     1  UNL1        0.0250
@<TRIPOS>BOND
     1    19    17    1
     2    18    20    2
     3    18    17    1
     4    20    21    1
     5    17    16    2
     6    21    23    2
     7    21    22    1
     8    16    23    1
     9    16    14    1
    10    14    15    1
    11    14    11    1
    12    13    11    2
    13    11    12    2
    14    11     8    1
    15     7     8    2
    16     7     6    1
    17     8     9    1
    18     6     5    2
    19     9    10    2
    20     5    10    1
    21     5     1    1
    22     4     1    1
    23     1     2   am
    24    38    37    2
    25    38    39    1
    26    37    36    1
    27    39    40    2
    28     2     3    2
    29     2    24    1
    30    29    24    2
    31    29    28    1
    32    36    35    2
    33    40    35    1
    34    24    25    1
    35    35    32    1
    36    28    27    2
    37    25    26    2
    38    27    26    1
    39    27    30    1
    40    32    34    2
    41    32    30    1
    42    32    33    2
    43    30    31    1
