@<TRIPOS>MOLECULE
2453_out_ligand_01.pdbqt
 38 43 0 0 0
SMALL
GASTEIGER

@<TRIPOS>ATOM
      1  C         21.6160  -22.1100   -9.4080 C.2     1  UNL1        0.1490
      2  C         21.4770  -22.3440   -8.0250 C.2     1  UNL1        0.0910
      3  C         20.1310  -22.5090   -7.8100 C.2     1  UNL1        0.1540
      4  N         19.4360  -22.7580   -6.6700 N.2     1  UNL1       -0.2280
      5  C         18.1420  -22.8420   -6.7690 C.2     1  UNL1        0.0780
      6  C         17.3670  -22.7020   -8.0660 C.2     1  UNL1        0.0060
      7  C         18.1200  -22.4880   -9.1730 C.2     1  UNL1        0.1520
      8  N         19.5070  -22.3730   -9.0500 N.pl3   1  UNL1       -0.2090
      9  N         20.4210  -22.1230  -10.0290 N.2     1  UNL1       -0.1600
     10  C         15.8700  -22.8300   -7.9940 C.3     1  UNL1        0.0480
     11  C         15.2920  -22.2440   -6.7100 C.3     1  UNL1        0.0440
     12  C         15.9670  -22.8290   -5.5050 C.2     1  UNL1       -0.0450
     13  C         15.2460  -23.0470   -4.3220 C.2     1  UNL1        0.0080
     14  C         15.8860  -23.5480   -3.1880 C.2     1  UNL1        0.0010
     15  C         17.2520  -23.8220   -3.2200 C.2     1  UNL1        0.0010
     16  C         17.9800  -23.5940   -4.3880 C.2     1  UNL1        0.0140
     17  C         17.3430  -23.1000   -5.5330 C.2     1  UNL1       -0.0000
     18  C         22.8700  -21.8720  -10.1450 C.2     1  UNL1        0.2760
     19  O         23.6980  -21.0540   -9.7590 O.2     1  UNL1       -0.2660
     20  N         22.9620  -22.6690  -11.2690 N.am    1  UNL1       -0.3190
     21  H         22.1760  -23.2950  -11.4250 H       1  UNL1        0.1690
     22  C         24.0020  -22.6850  -12.1730 C.2     1  UNL1        0.0710
     23  C         25.2510  -23.3250  -12.0210 C.2     1  UNL1        0.1690
     24  N         26.0530  -23.1510  -13.0750 N.2     1  UNL1       -0.1830
     25  N         25.3010  -22.4100  -13.9190 N.pl3   1  UNL1       -0.2750
     26  C         24.0720  -22.0940  -13.4090 C.2     1  UNL1        0.1430
     27  C         25.8420  -21.9870  -15.2030 C.3     1  UNL1        0.1890
     28  C         26.1780  -20.5150  -15.2070 C.2     1  UNL1       -0.0380
     29  C         26.7130  -19.9070  -14.0580 C.2     1  UNL1        0.0120
     30  C         27.0310  -18.5480  -14.0600 C.2     1  UNL1        0.0430
     31  C         26.8160  -17.7960  -15.2080 C.2     1  UNL1        0.1160
     32  F         27.1210  -16.4920  -15.2080 F       1  UNL1       -0.2060
     33  C         26.2920  -18.3780  -16.3560 C.2     1  UNL1        0.0430
     34  C         25.9730  -19.7370  -16.3580 C.2     1  UNL1        0.0120
     35  C         17.6320  -22.3770  -10.5760 C.3     1  UNL1        0.4350
     36  F         16.3210  -22.0250  -10.6520 F       1  UNL1       -0.1650
     37  F         18.2920  -21.4340  -11.3020 F       1  UNL1       -0.1650
     38  F         17.7780  -23.5400  -11.2620 F       1  UNL1       -0.1650
@<TRIPOS>BOND
     1    34    33    1
     2    34    28    2
     3    33    31    2
     4    32    31    1
     5    31    30    1
     6    28    27    1
     7    28    29    1
     8    27    25    1
     9    30    29    2
    10    25    26    1
    11    25    24    1
    12    26    22    2
    13    24    23    2
    14    22    23    1
    15    22    20    1
    16    21    20    1
    17    37    35    1
    18    20    18   am
    19    38    35    1
    20    36    35    1
    21    35     7    1
    22    18    19    2
    23    18     1    1
    24     9     1    2
    25     9     8    1
    26     1     2    1
    27     7     8    1
    28     7     6    2
    29     8     3    1
    30     6    10    1
    31     6     5    1
    32     2     3    2
    33    10    11    1
    34     3     4    1
    35     5     4    2
    36     5    17    1
    37    11    12    1
    38    17    12    2
    39    17    16    1
    40    12    13    1
    41    16    15    2
    42    13    14    2
    43    15    14    1
