@<TRIPOS>MOLECULE
24539_out_ligand_01.pdbqt
 34 37 0 0 0
SMALL
GASTEIGER

@<TRIPOS>ATOM
      1  C         22.5010  -23.7610   -9.1910 C.3     1  UNL1        0.1840
      2  C         21.1830  -24.1720   -8.5540 C.2     1  UNL1        0.2310
      3  N         20.5500  -23.1470   -7.8720 N.am    1  UNL1       -0.3270
      4  H         21.0920  -22.2880   -7.7710 H       1  UNL1        0.1690
      5  O         20.7460  -25.3080   -8.7130 O.2     1  UNL1       -0.2720
      6  C         19.2960  -23.1790   -7.2290 C.2     1  UNL1        0.0340
      7  C         18.3190  -24.1500   -7.4710 C.2     1  UNL1        0.0310
      8  C         17.0900  -24.1090   -6.8010 C.2     1  UNL1        0.0270
      9  C         16.8360  -23.0840   -5.8910 C.2     1  UNL1        0.0740
     10  C         17.8060  -22.1140   -5.6280 C.2     1  UNL1        0.0270
     11  C         19.0310  -22.1650   -6.3010 C.2     1  UNL1        0.0310
     12  S         15.2800  -23.0200   -5.0420 S.O2    1  UNL1        0.2390
     13  O         14.9440  -24.3530   -4.6000 O.2     1  UNL1       -0.2060
     14  O         14.3700  -22.2010   -5.8070 O.2     1  UNL1       -0.2060
     15  N         15.6810  -22.1070   -3.6840 N.3     1  UNL1       -0.2250
     16  H         14.9210  -22.0400   -3.0070 H       1  UNL1        0.1360
     17  H         16.5290  -22.4950   -3.2670 H       1  UNL1        0.1360
     18  S         22.7120  -21.9520   -9.1980 S.3     1  UNL1       -0.1000
     19  C         23.8610  -21.8080  -10.5330 C.2     1  UNL1        0.1090
     20  N         25.1770  -21.8910  -10.2240 N.2     1  UNL1       -0.2340
     21  C         26.0580  -21.7810  -11.2320 C.2     1  UNL1        0.2350
     22  N         25.7920  -21.5800  -12.5240 N.2     1  UNL1       -0.2340
     23  C         24.4750  -21.4990  -12.7810 C.2     1  UNL1        0.1120
     24  S         23.9410  -21.2320  -14.3760 S.3     1  UNL1       -0.0800
     25  C         23.4390  -21.6040  -11.8600 C.2     1  UNL1        0.0470
     26  C         22.3060  -21.2500  -13.8920 C.2     1  UNL1        0.0650
     27  C         22.1650  -21.4590  -12.5310 C.2     1  UNL1       -0.0030
     28  C         20.8300  -21.4990  -11.9580 C.2     1  UNL1       -0.0240
     29  C         20.0730  -20.3250  -11.8620 C.2     1  UNL1        0.0140
     30  C         18.7880  -20.3660  -11.3160 C.2     1  UNL1        0.0240
     31  C         18.2640  -21.5770  -10.8680 C.2     1  UNL1        0.0340
     32 CL         16.6810  -21.6260  -10.1960 Cl      1  UNL1       -0.0840
     33  C         19.0130  -22.7490  -10.9580 C.2     1  UNL1        0.0240
     34  C         20.3000  -22.7120  -11.5020 C.2     1  UNL1        0.0140
@<TRIPOS>BOND
     1    24    26    1
     2    24    23    1
     3    26    27    2
     4    23    22    2
     5    23    25    1
     6    27    28    1
     7    27    25    1
     8    22    21    1
     9    28    29    2
    10    28    34    1
    11    29    30    1
    12    25    19    2
    13    34    33    2
    14    30    31    2
    15    21    20    2
    16    33    31    1
    17    31    32    1
    18    19    20    1
    19    19    18    1
    20    18     1    1
    21     1     2    1
    22     5     2    2
    23     2     3   am
    24     3     4    1
    25     3     6    1
    26     7     6    2
    27     7     8    1
    28     6    11    1
    29     8     9    2
    30    11    10    2
    31     9    10    1
    32     9    12    1
    33    14    12    2
    34    12    13    2
    35    12    15    1
    36    15    17    1
    37    15    16    1
