@<TRIPOS>MOLECULE
24557_out_ligand_01.pdbqt
 37 39 0 0 0
SMALL
GASTEIGER

@<TRIPOS>ATOM
      1  C         17.3170  -23.2840   -8.8030 C.2     1  UNL1        0.0800
      2  C         16.4410  -22.5250   -9.5840 C.2     1  UNL1        0.0260
      3  C         16.9490  -21.6690  -10.5630 C.2     1  UNL1        0.0090
      4  C         18.3360  -21.5640  -10.7760 C.2     1  UNL1       -0.0460
      5  C         18.8410  -20.6580  -11.8660 C.3     1  UNL1        0.0490
      6  C         19.2040  -22.3070   -9.9520 C.2     1  UNL1        0.0390
      7  C         18.6980  -23.1710   -8.9720 C.2     1  UNL1        0.0420
      8  C         20.6790  -22.2420  -10.0940 C.2     1  UNL1        0.2560
      9  O         21.3550  -22.2270   -9.0750 O.2     1  UNL1       -0.2670
     10  N         21.1180  -22.1630  -11.4000 N.am    1  UNL1       -0.3230
     11  H         20.4010  -22.0800  -12.1130 H       1  UNL1        0.1690
     12  C         22.4570  -22.1490  -11.8500 C.2     1  UNL1        0.0360
     13  C         23.4050  -22.8080  -11.0580 C.2     1  UNL1        0.0450
     14  C         24.7640  -22.8230  -11.4100 C.2     1  UNL1        0.0500
     15  C         25.1630  -22.1810  -12.5890 C.2     1  UNL1        0.0320
     16  C         24.2280  -21.5230  -13.4030 C.2     1  UNL1        0.0500
     17  C         22.8800  -21.5060  -13.0150 C.2     1  UNL1        0.0450
     18  C         25.7620  -23.5400  -10.5330 C.3     1  UNL1        0.4170
     19  F         26.7570  -22.7140  -10.1010 F       1  UNL1       -0.1660
     20  F         25.1910  -24.0590   -9.4120 F       1  UNL1       -0.1660
     21  F         26.3830  -24.5760  -11.1570 F       1  UNL1       -0.1660
     22  C         24.6680  -20.8060  -14.6550 C.3     1  UNL1        0.4170
     23  F         23.7040  -20.7890  -15.6180 F       1  UNL1       -0.1660
     24  F         25.0050  -19.5050  -14.4460 F       1  UNL1       -0.1660
     25  F         25.7530  -21.3940  -15.2270 F       1  UNL1       -0.1660
     26  S         16.6580  -24.3360   -7.5320 S.O2    1  UNL1        0.2630
     27  O         15.5050  -25.0350   -8.0530 O.2     1  UNL1       -0.2000
     28  O         17.7860  -25.0650   -6.9890 O.2     1  UNL1       -0.2000
     29  N         16.1880  -23.2660   -6.3420 N.pl3   1  UNL1       -0.2810
     30  H         15.1840  -23.0780   -6.3300 H       1  UNL1        0.1790
     31  C         17.0390  -22.5370   -5.4650 C.2     1  UNL1        0.0430
     32  C         16.7830  -22.6640   -4.0950 C.2     1  UNL1        0.0300
     33  C         17.5630  -21.9900   -3.1530 C.2     1  UNL1        0.0030
     34  C         18.6190  -21.1880   -3.5730 C.2     1  UNL1        0.0070
     35  C         18.9020  -21.0590   -4.9360 C.2     1  UNL1       -0.0600
     36  C         20.0300  -20.1850   -5.4030 C.3     1  UNL1        0.0480
     37  C         18.0980  -21.7290   -5.8770 C.2     1  UNL1        0.0370
@<TRIPOS>BOND
     1    23    22    1
     2    25    22    1
     3    22    24    1
     4    22    16    1
     5    16    17    1
     6    16    15    2
     7    17    12    2
     8    15    14    1
     9    11    10    1
    10     5     4    1
    11    12    10    1
    12    12    13    1
    13    14    13    2
    14    14    18    1
    15    10     8   am
    16    21    18    1
    17     4     3    2
    18     4     6    1
    19     3     2    1
    20    18    19    1
    21    18    20    1
    22     8     6    1
    23     8     9    2
    24     6     7    2
    25     2     1    2
    26     7     1    1
    27     1    26    1
    28    27    26    2
    29    26    28    2
    30    26    29    1
    31    29    30    1
    32    29    31    1
    33    37    31    2
    34    37    35    1
    35    31    32    1
    36    36    35    1
    37    35    34    2
    38    32    33    2
    39    34    33    1
