@<TRIPOS>MOLECULE
24556_out_ligand_01.pdbqt
 30 33 0 0 0
SMALL
GASTEIGER

@<TRIPOS>ATOM
      1  C         22.2430  -22.1030  -11.6720 C.2     1  UNL1        0.0400
      2  C         21.5880  -21.2450  -12.5650 C.2     1  UNL1        0.0180
      3  C         20.2260  -21.0260  -12.4360 C.2     1  UNL1        0.0030
      4  C         19.5110  -21.6660  -11.4220 C.2     1  UNL1        0.0300
      5  C         20.1360  -22.5260  -10.5010 C.2     1  UNL1        0.0440
      6  C         21.5300  -22.7450  -10.6290 C.2     1  UNL1       -0.0150
      7  C         22.2600  -23.6660   -9.6800 C.3     1  UNL1        0.0430
      8  C         21.4790  -23.9050   -8.4030 C.3     1  UNL1        0.0250
      9  C         20.0570  -24.2840   -8.7580 C.3     1  UNL1        0.1320
     10  N         19.3780  -23.2100   -9.4840 N.am    1  UNL1       -0.3170
     11  C         18.0490  -22.8750   -9.1760 C.2     1  UNL1        0.2290
     12  O         17.5220  -21.7900   -9.3960 O.2     1  UNL1       -0.2730
     13  C         17.2240  -23.9190   -8.4840 C.3     1  UNL1        0.0870
     14  C         15.8580  -23.5910   -7.9340 C.3     1  UNL1        0.0250
     15  C         16.9850  -23.8700   -6.9750 C.3     1  UNL1        0.0330
     16  C         17.6380  -22.7890   -6.1290 C.2     1  UNL1       -0.0380
     17  C         18.8340  -22.1610   -6.5350 C.2     1  UNL1        0.0080
     18  C         19.4580  -21.1780   -5.7640 C.2     1  UNL1        0.0010
     19  C         18.8930  -20.7790   -4.5620 C.2     1  UNL1        0.0010
     20  C         17.7000  -21.3580   -4.1390 C.2     1  UNL1        0.0170
     21  C         17.0630  -22.3570   -4.9060 C.2     1  UNL1        0.0540
     22  C         15.7250  -22.8830   -4.4290 C.3     1  UNL1        0.4180
     23  F         15.4600  -22.4740   -3.1530 F       1  UNL1       -0.1660
     24  F         14.6470  -22.4920   -5.1600 F       1  UNL1       -0.1660
     25  F         15.6640  -24.2470   -4.3870 F       1  UNL1       -0.1660
     26  C         23.6980  -22.3370  -11.8800 C.2     1  UNL1        0.2490
     27  N         24.5440  -21.4510  -11.2700 N.am    1  UNL1       -0.3660
     28  H         24.2240  -20.8130  -10.5560 H       1  UNL1        0.1590
     29  H         25.5310  -21.6650  -11.3120 H       1  UNL1        0.1590
     30  O         24.1240  -23.2750  -12.5400 O.2     1  UNL1       -0.2680
@<TRIPOS>BOND
     1     2     3    1
     2     2     1    2
     3    30    26    2
     4     3     4    2
     5    26     1    1
     6    26    27   am
     7     1     6    1
     8     4     5    1
     9    29    27    1
    10    27    28    1
    11     6     5    2
    12     6     7    1
    13     5    10    1
    14     7     8    1
    15    10    11   am
    16    10     9    1
    17    12    11    2
    18    11    13    1
    19     9     8    1
    20    13    14    1
    21    13    15    1
    22    14    15    1
    23    15    16    1
    24    17    16    2
    25    17    18    1
    26    16    21    1
    27    18    19    2
    28    24    22    1
    29    21    22    1
    30    21    20    2
    31    19    20    1
    32    22    25    1
    33    22    23    1
