@<TRIPOS>MOLECULE
24555_out_ligand_01.pdbqt
 33 37 0 0 0
SMALL
GASTEIGER

@<TRIPOS>ATOM
      1  C         20.2260  -21.7450  -10.9020 C.2     1  UNL1        0.0330
      2  C         19.2390  -20.9320  -11.4740 C.2     1  UNL1        0.0170
      3  C         17.8940  -21.1350  -11.1550 C.2     1  UNL1        0.0090
      4  C         17.5160  -22.1490  -10.2620 C.2     1  UNL1       -0.0480
      5  C         18.5110  -22.9470   -9.6810 C.2     1  UNL1        0.0090
      6  C         19.8570  -22.7440   -9.9950 C.2     1  UNL1        0.0170
      7  C         21.6700  -21.5680  -11.2110 C.2     1  UNL1        0.2700
      8  N         22.0090  -21.6740  -12.5540 N.am    1  UNL1       -0.2620
      9  H         21.3620  -22.0790  -13.2220 H       1  UNL1        0.1900
     10  O         22.4660  -21.3530  -10.3020 O.2     1  UNL1       -0.2660
     11  N         23.3590  -21.8090  -12.9100 N.pl3   1  UNL1       -0.2680
     12  C         24.0640  -23.0730  -12.6300 C.2     1  UNL1        0.1900
     13  C         25.1200  -23.0740  -13.7010 C.2     1  UNL1       -0.0240
     14  C         26.1520  -23.9750  -13.9120 C.2     1  UNL1        0.0100
     15  C         24.9480  -21.9930  -14.5730 C.2     1  UNL1        0.0190
     16  C         26.9990  -23.7650  -15.0060 C.2     1  UNL1        0.0010
     17  C         26.8090  -22.6720  -15.8740 C.2     1  UNL1        0.0010
     18  C         25.7670  -21.7680  -15.6620 C.2     1  UNL1        0.0160
     19  C         23.7880  -21.2350  -14.0950 C.2     1  UNL1        0.1480
     20  N         23.3090  -20.2170  -14.7210 N.pl3   1  UNL1       -0.2820
     21  H         22.5000  -19.8790  -14.1980 H       1  UNL1        0.1880
     22  C         16.0620  -22.3570   -9.9040 C.3     1  UNL1        0.1210
     23  S         15.7600  -23.9880   -9.1630 S.3     1  UNL1       -0.0870
     24  C         15.9460  -23.6310   -7.4880 C.ar    1  UNL1        0.1670
     25  N         15.2060  -22.8410   -6.7490 N.ar    1  UNL1       -0.2230
     26  C         15.7760  -22.9010   -5.4980 C.ar    1  UNL1        0.0860
     27  C         15.3970  -22.2610   -4.3090 C.2     1  UNL1        0.0340
     28  C         16.8870  -23.7410   -5.4930 C.ar    1  UNL1        0.0630
     29  C         16.1530  -22.4920   -3.1530 C.2     1  UNL1        0.0020
     30  C         17.2630  -23.3420   -3.1800 C.2     1  UNL1        0.0020
     31  C         17.6580  -23.9890   -4.3560 C.2     1  UNL1        0.0320
     32  N         16.9720  -24.1890   -6.7870 N.ar    1  UNL1       -0.3330
     33  H         17.6580  -24.8240   -7.1650 H       1  UNL1        0.1680
@<TRIPOS>BOND
     1    17    18    2
     2    17    16    1
     3    18    15    1
     4    16    14    2
     5    20    21    1
     6    20    19    1
     7    15    19    2
     8    15    13    1
     9    19    11    1
    10    14    13    1
    11    13    12    2
    12     9     8    1
    13    11    12    1
    14    11     8    1
    15     8     7   am
    16     2     3    1
    17     2     1    2
    18     7     1    1
    19     7    10    2
    20     3     4    2
    21     1     6    1
    22     4    22    1
    23     4     5    1
    24     6     5    2
    25    22    23    1
    26    23    24    1
    27    24    32   ar
    28    24    25   ar
    29    33    32    1
    30    32    28   ar
    31    25    26   ar
    32    26    28   ar
    33    26    27    1
    34    28    31    1
    35    31    30    2
    36    27    29    2
    37    30    29    1
