@<TRIPOS>MOLECULE
24560_out_ligand_01.pdbqt
 42 46 0 0 0
SMALL
GASTEIGER

@<TRIPOS>ATOM
      1  C         19.3600  -21.9830  -10.0790 C.2     1  UNL1        0.1030
      2  C         20.5960  -22.6130   -9.8900 C.2     1  UNL1        0.0510
      3  C         20.7160  -23.6980   -9.0120 C.2     1  UNL1       -0.0320
      4  C         19.5970  -24.1340   -8.3010 C.2     1  UNL1        0.0390
      5  C         18.3550  -23.5070   -8.4780 C.2     1  UNL1        0.1120
      6  C         18.2280  -22.4500   -9.3840 C.2     1  UNL1        0.1240
      7  C         21.9980  -24.3730   -8.7950 C.2     1  UNL1        0.0170
      8  C         23.2320  -23.9370   -9.0960 C.2     1  UNL1        0.0750
      9  C         23.6980  -22.6730   -9.7350 C.2     1  UNL1        0.2460
     10  O         23.1380  -21.6270   -9.4230 O.2     1  UNL1       -0.2680
     11  N         24.7960  -22.7950  -10.5510 N.am    1  UNL1       -0.3080
     12  H         25.3430  -23.6420  -10.4720 H       1  UNL1        0.1700
     13  C         25.3980  -21.7290  -11.2050 C.3     1  UNL1        0.1340
     14  C         26.1810  -20.7730  -10.5890 C.3     1  UNL1        0.0790
     15  C         26.3610  -19.7610  -11.5470 C.3     1  UNL1        0.0550
     16  C         27.0440  -18.4550  -11.3810 C.3     1  UNL1        0.0720
     17  N         25.7850  -20.0740  -12.7100 N.3     1  UNL1       -0.1710
     18  N         25.3500  -21.3630  -12.5560 N.pl3   1  UNL1       -0.2140
     19  C         25.0910  -22.1140  -13.7350 C.2     1  UNL1        0.0990
     20  C         24.3390  -21.5240  -14.7690 C.2     1  UNL1        0.0380
     21  C         24.0790  -22.2320  -15.9450 C.2     1  UNL1        0.0450
     22  C         24.5870  -23.5160  -16.0970 C.2     1  UNL1        0.1190
     23  F         24.3540  -24.1890  -17.2300 F       1  UNL1       -0.2060
     24  C         25.3590  -24.1020  -15.1020 C.2     1  UNL1        0.0870
     25  C         25.6150  -23.3940  -13.9300 C.2     1  UNL1        0.1480
     26  F         26.4400  -23.9620  -13.0400 F       1  UNL1       -0.2030
     27  O         19.1720  -20.8820  -10.8760 O.2     1  UNL1       -0.3530
     28  C         19.9670  -20.7830  -12.0500 C.3     1  UNL1        0.2100
     29  S         16.9600  -24.1720   -7.5880 S.O2    1  UNL1        0.2510
     30  O         15.8780  -24.4300   -8.5170 O.2     1  UNL1       -0.2050
     31  O         17.4900  -25.2700   -6.7990 O.2     1  UNL1       -0.2050
     32  N         16.5340  -22.8960   -6.5450 N.pl3   1  UNL1       -0.1710
     33  C         15.5250  -23.2190   -5.4790 C.3     1  UNL1        0.1180
     34  C         15.7600  -22.2010   -4.3520 C.3     1  UNL1        0.0560
     35  C         17.1720  -21.7860   -4.6060 C.2     1  UNL1       -0.0350
     36  C         17.9900  -21.0320   -3.7780 C.2     1  UNL1        0.0090
     37  C         17.5960  -22.2000   -5.8690 C.2     1  UNL1        0.0310
     38  C         19.2560  -20.6790   -4.2460 C.2     1  UNL1        0.0010
     39  C         19.6710  -21.0580   -5.5300 C.2     1  UNL1        0.0020
     40  C         18.8320  -21.8120   -6.3580 C.2     1  UNL1        0.0250
     41  O         17.0270  -21.8020   -9.5150 O.2     1  UNL1       -0.3520
     42  C         16.3970  -22.1140  -10.7600 C.3     1  UNL1        0.2100
@<TRIPOS>BOND
     1    23    22    1
     2    22    21    2
     3    22    24    1
     4    21    20    1
     5    24    25    2
     6    20    19    2
     7    25    19    1
     8    25    26    1
     9    19    18    1
    10    17    18    1
    11    17    15    1
    12    18    13    1
    13    28    27    1
    14    15    16    1
    15    15    14    1
    16    13    14    1
    17    13    11    1
    18    27     1    1
    19    42    41    1
    20    11    12    1
    21    11     9   am
    22     1     2    2
    23     1     6    1
    24     2     3    1
    25     9    10    2
    26     9     8    1
    27    41     6    1
    28     6     5    2
    29     8     7    2
    30     3     7    1
    31     3     4    2
    32    30    29    2
    33     5     4    1
    34     5    29    1
    35    29    31    2
    36    29    32    1
    37    32    37    1
    38    32    33    1
    39    40    37    1
    40    40    39    2
    41    37    35    2
    42    39    38    1
    43    33    34    1
    44    35    34    1
    45    35    36    1
    46    38    36    2
