@<TRIPOS>MOLECULE
24588_out_ligand_01.pdbqt
 34 37 0 0 0
SMALL
GASTEIGER

@<TRIPOS>ATOM
      1  C         24.4300  -21.8390  -10.8600 C.2     1  UNL1        0.2420
      2  O         24.9600  -20.7420  -10.6440 O.2     1  UNL1       -0.2710
      3  N         23.4580  -22.3600  -10.0260 N.am    1  UNL1       -0.3470
      4  C         22.9880  -21.5580   -8.8960 C.3     1  UNL1        0.1560
      5  C         21.4890  -21.7840   -8.6380 C.3     1  UNL1        0.2930
      6  N         21.1340  -23.1870   -8.3100 N.3     1  UNL1        0.1050
      7  C         22.0870  -24.1370   -8.9340 C.3     1  UNL1        0.2930
      8  C         22.7730  -23.6390  -10.2190 C.3     1  UNL1        0.1560
      9  C         24.8590  -22.6550  -12.0920 C.3     1  UNL1        0.1810
     10  C         25.9480  -23.6420  -11.6960 C.3     1  UNL1        0.0430
     11  N         25.4250  -21.6990  -13.0750 N.3     1  UNL1       -0.3020
     12  H         26.1710  -21.1050  -12.6890 H       1  UNL1        0.1730
     13  S         24.3790  -20.8500  -14.0770 S.O2    1  UNL1        0.2590
     14  O         23.0350  -21.1390  -13.6210 O.2     1  UNL1       -0.2010
     15  O         24.8790  -19.4940  -14.1690 O.2     1  UNL1       -0.2010
     16  C         24.5930  -21.6130  -15.6680 C.2     1  UNL1        0.0790
     17  C         24.3850  -22.9880  -15.8020 C.2     1  UNL1        0.0250
     18  C         24.5530  -23.5890  -17.0480 C.2     1  UNL1        0.0020
     19  C         24.9080  -22.8170  -18.1530 C.2     1  UNL1        0.0000
     20  C         25.0950  -21.4390  -18.0200 C.2     1  UNL1        0.0020
     21  C         24.9380  -20.8320  -16.7760 C.2     1  UNL1        0.0250
     22  C         19.7110  -23.4910   -8.6450 C.3     1  UNL1        0.2890
     23  C         19.1470  -22.6200   -9.7770 C.2     1  UNL1       -0.0210
     24  C         19.9620  -22.1630  -10.8260 C.2     1  UNL1        0.0100
     25  C         19.4360  -21.3580  -11.8380 C.2     1  UNL1        0.0010
     26  C         18.0920  -20.9900  -11.8080 C.2     1  UNL1        0.0000
     27  C         17.2710  -21.4300  -10.7740 C.2     1  UNL1        0.0010
     28  C         17.7920  -22.2400   -9.7650 C.2     1  UNL1        0.0100
     29  C         18.7690  -23.4160   -7.4330 C.2     1  UNL1       -0.0210
     30  C         18.8260  -22.3080   -6.5700 C.2     1  UNL1        0.0100
     31  C         17.9850  -22.2240   -5.4590 C.2     1  UNL1        0.0010
     32  C         17.0790  -23.2480   -5.1900 C.2     1  UNL1        0.0000
     33  C         17.0180  -24.3590   -6.0270 C.2     1  UNL1        0.0010
     34  C         17.8610  -24.4470   -7.1350 C.2     1  UNL1        0.0100
@<TRIPOS>BOND
     1    19    20    2
     2    19    18    1
     3    20    21    1
     4    18    17    2
     5    21    16    2
     6    17    16    1
     7    16    13    1
     8    15    13    2
     9    13    14    2
    10    13    11    1
    11    11    12    1
    12    11     9    1
    13     9    10    1
    14     9     1    1
    15    25    26    2
    16    25    24    1
    17    26    27    1
    18     1     2    2
    19     1     3   am
    20    24    23    2
    21    27    28    2
    22     8     3    1
    23     8     7    1
    24     3     4    1
    25    23    28    1
    26    23    22    1
    27     7     6    1
    28     4     5    1
    29    22     6    1
    30    22    29    1
    31     5     6    1
    32    29    34    2
    33    29    30    1
    34    34    33    1
    35    30    31    2
    36    33    32    2
    37    31    32    1
