@<TRIPOS>MOLECULE
2458_out_ligand_01.pdbqt
 32 36 0 0 0
SMALL
GASTEIGER

@<TRIPOS>ATOM
      1  C         22.9360  -22.0460  -12.6740 C.2     1  UNL1        0.0350
      2  C         23.6570  -22.7250  -11.6880 C.2     1  UNL1        0.0310
      3  C         23.0720  -23.0110  -10.4490 C.2     1  UNL1        0.0270
      4  C         21.7630  -22.6020  -10.1890 C.2     1  UNL1        0.0790
      5  C         21.0240  -21.9400  -11.1680 C.2     1  UNL1        0.0270
      6  C         21.6150  -21.6600  -12.4040 C.2     1  UNL1        0.0310
      7  S         21.0340  -22.9790   -8.6170 S.O2    1  UNL1        0.2590
      8  O         21.6770  -22.1260   -7.6400 O.2     1  UNL1       -0.2010
      9  O         21.0060  -24.4130   -8.4510 O.2     1  UNL1       -0.2010
     10  N         19.4720  -22.4100   -8.7520 N.3     1  UNL1       -0.3050
     11  H         19.3170  -21.8640   -9.5990 H       1  UNL1        0.1730
     12  C         18.3120  -22.7360   -7.9090 C.3     1  UNL1        0.0410
     13  C         18.3660  -24.2650   -7.6460 C.3     1  UNL1        0.0360
     14  C         17.2260  -24.7020   -6.7110 C.3     1  UNL1       -0.0120
     15  C         15.8790  -24.3490   -7.3610 C.3     1  UNL1        0.0090
     16  C         17.3580  -23.9520   -5.3750 C.3     1  UNL1        0.0090
     17  C         15.8000  -22.8360   -7.6120 C.3     1  UNL1       -0.0120
     18  C         15.9370  -22.0910   -6.2730 C.3     1  UNL1        0.0090
     19  C         16.9480  -22.4120   -8.5470 C.3     1  UNL1        0.0360
     20  C         17.2840  -22.4360   -5.6140 C.3     1  UNL1       -0.0120
     21  C         18.4280  -22.0110   -6.5510 C.3     1  UNL1        0.0360
     22  N         23.4500  -21.7150  -13.9460 N.am    1  UNL1       -0.3220
     23  C         24.5920  -22.2010  -14.5590 C.2     1  UNL1        0.2740
     24  O         25.3340  -23.0440  -14.0690 O.2     1  UNL1       -0.2660
     25  H         22.8900  -21.0720  -14.4860 H       1  UNL1        0.1690
     26  C         24.8460  -21.6270  -15.8700 C.2     1  UNL1        0.1220
     27  C         25.3090  -20.3690  -16.2350 C.2     1  UNL1        0.0580
     28  C         25.3800  -20.3790  -17.6370 C.2     1  UNL1        0.1410
     29  N         24.9970  -21.5440  -18.1490 N.2     1  UNL1       -0.1840
     30  N         24.6880  -22.2940  -17.0690 N.pl3   1  UNL1       -0.2650
     31  C         24.2080  -23.6470  -17.2950 C.3     1  UNL1        0.1470
     32  C         22.9470  -23.6780  -18.1410 C.3     1  UNL1        0.0280
@<TRIPOS>BOND
     1    29    28    2
     2    29    30    1
     3    32    31    1
     4    28    27    1
     5    31    30    1
     6    30    26    1
     7    27    26    2
     8    26    23    1
     9    23    24    2
    10    23    22   am
    11    25    22    1
    12    22     1    1
    13     1     6    2
    14     1     2    1
    15     6     5    1
    16     2     3    2
    17     5     4    2
    18     3     4    1
    19     4     7    1
    20    11    10    1
    21    10     7    1
    22    10    12    1
    23     7     9    2
    24     7     8    2
    25    19    12    1
    26    19    17    1
    27    12    13    1
    28    12    21    1
    29    13    14    1
    30    17    15    1
    31    17    18    1
    32    15    14    1
    33    14    16    1
    34    21    20    1
    35    18    20    1
    36    20    16    1
