@<TRIPOS>MOLECULE
24598_out_ligand_01.pdbqt
 34 37 0 0 0
SMALL
GASTEIGER

@<TRIPOS>ATOM
      1  C         20.8560  -22.5330  -10.6850 C.2     1  UNL1        0.0340
      2  C         19.7850  -21.7720  -11.1640 C.2     1  UNL1        0.0310
      3  C         18.4970  -21.9630  -10.6540 C.2     1  UNL1        0.0270
      4  C         18.2850  -22.9050   -9.6450 C.2     1  UNL1        0.0800
      5  C         19.3350  -23.7010   -9.1870 C.2     1  UNL1        0.0270
      6  C         20.6180  -23.5100   -9.7060 C.2     1  UNL1        0.0310
      7  S         16.6580  -23.1090   -8.9570 S.O2    1  UNL1        0.2630
      8  O         15.8860  -23.8960   -9.8970 O.2     1  UNL1       -0.2000
      9  O         16.1920  -21.8140   -8.5070 O.2     1  UNL1       -0.2000
     10  N         16.9140  -24.1130   -7.6210 N.pl3   1  UNL1       -0.2800
     11  H         17.7340  -24.7020   -7.7270 H       1  UNL1        0.1790
     12  C         16.6090  -23.6180   -6.3140 C.2     1  UNL1        0.0530
     13  C         15.4310  -24.0610   -5.7060 C.2     1  UNL1        0.0310
     14  C         15.0610  -23.5690   -4.4590 C.2     1  UNL1        0.0030
     15  C         15.8610  -22.6230   -3.8220 C.2     1  UNL1        0.0120
     16  C         17.0430  -22.1560   -4.4170 C.2     1  UNL1       -0.0240
     17  C         17.8280  -21.1900   -3.7640 C.2     1  UNL1        0.0120
     18  C         17.4430  -22.6550   -5.6820 C.2     1  UNL1        0.0010
     19  C         19.0030  -20.7100   -4.3400 C.2     1  UNL1        0.0010
     20  C         19.4130  -21.1910   -5.5760 C.2     1  UNL1        0.0010
     21  C         18.6450  -22.1520   -6.2390 C.2     1  UNL1        0.0140
     22  N         22.1830  -22.3800  -11.1220 N.am    1  UNL1       -0.3250
     23  C         23.2230  -21.7290  -10.4830 C.2     1  UNL1        0.2460
     24  O         23.1630  -21.1080   -9.4250 O.2     1  UNL1       -0.2710
     25  H         22.4490  -22.8820  -11.9640 H       1  UNL1        0.1690
     26  C         24.5460  -21.8330  -11.2540 C.3     1  UNL1        0.2780
     27  O         24.4580  -21.5240  -12.6400 O.2     1  UNL1       -0.3420
     28  C         24.7780  -22.5010  -13.5490 C.2     1  UNL1        0.0750
     29  C         25.0720  -23.8300  -13.2260 C.2     1  UNL1        0.0370
     30  C         25.3470  -24.7580  -14.2360 C.2     1  UNL1        0.0030
     31  C         25.3250  -24.3670  -15.5720 C.2     1  UNL1        0.0010
     32  C         25.0270  -23.0460  -15.9020 C.2     1  UNL1        0.0090
     33  C         24.7550  -22.1040  -14.8990 C.2     1  UNL1       -0.0290
     34  C         24.4190  -20.6880  -15.2830 C.3     1  UNL1        0.0510
@<TRIPOS>BOND
     1    32    31    2
     2    32    33    1
     3    31    30    1
     4    34    33    1
     5    33    28    2
     6    30    29    2
     7    28    29    1
     8    28    27    1
     9    27    26    1
    10    25    22    1
    11    26    23    1
    12     2     1    2
    13     2     3    1
    14    22     1    1
    15    22    23   am
    16     1     6    1
    17     3     4    2
    18    23    24    2
    19     8     7    2
    20     6     5    2
    21     4     5    1
    22     4     7    1
    23     7     9    2
    24     7    10    1
    25    11    10    1
    26    10    12    1
    27    12    13    2
    28    12    18    1
    29    21    18    1
    30    21    20    2
    31    13    14    1
    32    18    16    2
    33    20    19    1
    34    14    15    2
    35    16    15    1
    36    16    17    1
    37    19    17    2
