@<TRIPOS>MOLECULE
24613_out_ligand_01.pdbqt
 35 38 0 0 0
SMALL
GASTEIGER

@<TRIPOS>ATOM
      1  C         19.0080  -22.4090   -9.5340 C.2     1  UNL1        0.0830
      2  C         20.3740  -22.4220   -9.8880 C.2     1  UNL1        0.0540
      3  C         20.8160  -21.9210  -11.1160 C.2     1  UNL1        0.0330
      4  C         19.8550  -21.4050  -11.9900 C.2     1  UNL1        0.0300
      5  C         18.4960  -21.3990  -11.6540 C.2     1  UNL1        0.0100
      6  C         18.0460  -21.9000  -10.4230 C.2     1  UNL1       -0.0390
      7  C         16.5700  -21.8770  -10.1510 C.3     1  UNL1        0.0500
      8  N         22.1710  -21.8760  -11.4900 N.pl3   1  UNL1       -0.3650
      9  H         22.8280  -22.0710  -10.7420 H       1  UNL1        0.1650
     10  C         22.7030  -21.6480  -12.7370 C.2     1  UNL1        0.1060
     11  C         23.8740  -22.0540  -13.2690 C.2     1  UNL1        0.0660
     12  C         24.0410  -21.8000  -14.7200 C.2     1  UNL1        0.3030
     13  C         24.9410  -22.7670  -12.5760 C.2     1  UNL1       -0.0020
     14  O         23.4750  -20.8710  -15.2890 O.2     1  UNL1       -0.2590
     15  O         24.7980  -22.6840  -15.4100 O.3     1  UNL1       -0.2370
     16  C         25.5180  -23.6610  -14.8140 C.2     1  UNL1        0.3010
     17  O         26.0340  -24.5620  -15.4660 O.2     1  UNL1       -0.2590
     18  C         25.7520  -23.5820  -13.3600 C.2     1  UNL1        0.0510
     19  C         26.8030  -24.3150  -12.7890 C.2     1  UNL1        0.0180
     20  C         27.0660  -24.2040  -11.4250 C.2     1  UNL1        0.0010
     21  C         26.2910  -23.3540  -10.6400 C.2     1  UNL1        0.0010
     22  C         25.2440  -22.6280  -11.2140 C.2     1  UNL1        0.0130
     23  S         18.6170  -23.1130   -7.9320 S.O2    1  UNL1        0.2460
     24  O         17.6790  -24.2020   -8.0890 O.2     1  UNL1       -0.2060
     25  O         19.8790  -23.3330   -7.2580 O.2     1  UNL1       -0.2060
     26  N         17.8560  -21.8350   -7.1180 N.pl3   1  UNL1       -0.1790
     27  H         17.5750  -21.1110   -7.7830 H       1  UNL1        0.1460
     28  C         16.8220  -22.1640   -6.1840 C.2     1  UNL1        0.0560
     29  C         15.5340  -22.4450   -6.6430 C.2     1  UNL1        0.0270
     30  C         14.5180  -22.7250   -5.7310 C.2     1  UNL1        0.0020
     31  C         14.7910  -22.7270   -4.3630 C.2     1  UNL1        0.0030
     32  C         16.0830  -22.4490   -3.9010 C.2     1  UNL1        0.0380
     33  C         17.1070  -22.1630   -4.8070 C.2     1  UNL1        0.0900
     34  O         18.4100  -21.8890   -4.4710 O.2     1  UNL1       -0.3540
     35  C         18.6410  -21.4030   -3.1540 C.3     1  UNL1        0.2100
@<TRIPOS>BOND
     1    17    16    2
     2    15    16    1
     3    15    12    1
     4    14    12    2
     5    16    18    1
     6    12    11    1
     7    18    19    1
     8    18    13    2
     9    11    10    2
    10    11    13    1
    11    19    20    2
    12    10     8    1
    13    13    22    1
    14     4     5    2
    15     4     3    1
    16     5     6    1
    17     8     3    1
    18     8     9    1
    19    20    21    1
    20    22    21    2
    21     3     2    2
    22     6     7    1
    23     6     1    2
    24     2     1    1
    25     1    23    1
    26    24    23    2
    27    23    25    2
    28    23    26    1
    29    27    26    1
    30    26    28    1
    31    29    28    2
    32    29    30    1
    33    28    33    1
    34    30    31    2
    35    33    34    1
    36    33    32    2
    37    34    35    1
    38    31    32    1
