@<TRIPOS>MOLECULE
24620_out_ligand_01.pdbqt
 36 39 0 0 0
SMALL
GASTEIGER

@<TRIPOS>ATOM
      1  C         16.9690  -21.1680  -11.0190 C.3     1  UNL1        0.0500
      2  C         18.4230  -21.5360  -10.9900 C.2     1  UNL1       -0.0390
      3  C         19.2550  -21.0170  -11.9950 C.2     1  UNL1        0.0100
      4  C         20.6220  -21.3130  -12.0340 C.2     1  UNL1        0.0300
      5  C         21.2010  -22.1260  -11.0580 C.2     1  UNL1        0.0360
      6  C         20.3930  -22.6390  -10.0480 C.2     1  UNL1        0.0540
      7  C         19.0070  -22.3760  -10.0270 C.2     1  UNL1        0.0830
      8  N         22.5820  -22.3710  -11.1620 N.am    1  UNL1       -0.3260
      9  C         23.6000  -21.8110  -10.4100 C.2     1  UNL1        0.2400
     10  O         23.4620  -21.0820   -9.4270 O.2     1  UNL1       -0.2710
     11  H         22.8690  -23.0810  -11.8310 H       1  UNL1        0.1690
     12  C         24.9990  -22.2800  -10.8310 C.3     1  UNL1        0.2350
     13  N         25.4590  -21.7280  -12.1260 N.am    1  UNL1       -0.3060
     14  C         25.8580  -20.3990  -12.0600 C.2     1  UNL1        0.2260
     15  O         26.0920  -19.8520  -10.9750 O.2     1  UNL1       -0.2730
     16  C         26.0270  -19.6070  -13.3100 C.3     1  UNL1        0.1300
     17  C         27.1210  -20.2530  -14.0970 C.3     1  UNL1        0.1850
     18  O         26.5320  -21.1160  -15.0450 O.2     1  UNL1       -0.3480
     19  C         25.9580  -22.2670  -14.5830 C.2     1  UNL1        0.0950
     20  C         25.8690  -23.1920  -15.6460 C.2     1  UNL1        0.0390
     21  C         25.4860  -22.5990  -13.2940 C.2     1  UNL1        0.0710
     22  C         25.3650  -24.4730  -15.4670 C.2     1  UNL1        0.0030
     23  C         24.9450  -24.8470  -14.2090 C.2     1  UNL1        0.0020
     24  C         25.0060  -23.9280  -13.1520 C.2     1  UNL1        0.0330
     25  S         18.0870  -23.1960   -8.7250 S.O2    1  UNL1        0.2460
     26  O         18.9690  -24.0510   -7.9610 O.2     1  UNL1       -0.2060
     27  O         16.8800  -23.7240   -9.3250 O.2     1  UNL1       -0.2060
     28  N         17.6150  -21.9010   -7.7290 N.pl3   1  UNL1       -0.1780
     29  H         18.4020  -21.2690   -7.5620 H       1  UNL1        0.1460
     30  C         16.8220  -22.1990   -6.5730 C.2     1  UNL1        0.0610
     31  C         15.4440  -22.3920   -6.6740 C.2     1  UNL1        0.0270
     32  C         14.7000  -22.7110   -5.5380 C.2     1  UNL1        0.0020
     33  C         15.3280  -22.8360   -4.2960 C.2     1  UNL1        0.0030
     34  C         16.7030  -22.6330   -4.1880 C.2     1  UNL1        0.0440
     35  C         17.4380  -22.3150   -5.3240 C.2     1  UNL1        0.1380
     36  F         18.7610  -22.1180   -5.2140 F       1  UNL1       -0.2040
@<TRIPOS>BOND
     1    20    22    1
     2    20    19    2
     3    22    23    2
     4    18    19    1
     5    18    17    1
     6    19    21    1
     7    23    24    1
     8    17    16    1
     9    16    14    1
    10    21    24    2
    11    21    13    1
    12    13    14   am
    13    13    12    1
    14    14    15    2
    15     4     3    1
    16     4     5    2
    17     3     2    2
    18    11     8    1
    19     8     5    1
    20     8     9   am
    21     5     6    1
    22     1     2    1
    23     2     7    1
    24    12     9    1
    25     9    10    2
    26     6     7    2
    27     7    25    1
    28    27    25    2
    29    25    26    2
    30    25    28    1
    31    28    29    1
    32    28    30    1
    33    31    30    2
    34    31    32    1
    35    30    35    1
    36    32    33    2
    37    35    36    1
    38    35    34    2
    39    33    34    1
