@<TRIPOS>MOLECULE
24627_out_ligand_01.pdbqt
 33 36 0 0 0
SMALL
GASTEIGER

@<TRIPOS>ATOM
      1  N         16.2460  -21.9240   -7.6320 N.pl3   1  UNL1       -0.1800
      2  H         16.9900  -21.2220   -7.7720 H       1  UNL1        0.1460
      3  C         16.2510  -22.5030   -6.3180 C.2     1  UNL1        0.0380
      4  C         15.0390  -22.9340   -5.7730 C.2     1  UNL1        0.0250
      5  C         15.0170  -23.5720   -4.5320 C.2     1  UNL1        0.0020
      6  C         16.2050  -23.7840   -3.8300 C.2     1  UNL1        0.0010
      7  C         17.4220  -23.3650   -4.3700 C.2     1  UNL1        0.0190
      8  C         17.4510  -22.7360   -5.6230 C.2     1  UNL1        0.0540
      9  C         18.7400  -22.2640   -6.1960 C.2     1  UNL1        0.2580
     10  O         19.1060  -21.1290   -5.9090 O.2     1  UNL1       -0.2670
     11  N         19.3670  -23.1630   -7.0360 N.am    1  UNL1       -0.3230
     12  H         18.8390  -23.9830   -7.3050 H       1  UNL1        0.1690
     13  C         20.6150  -23.0050   -7.6770 C.2     1  UNL1        0.0350
     14  C         21.4020  -21.8580   -7.5760 C.2     1  UNL1        0.0290
     15  C         22.6340  -21.7840   -8.2370 C.2     1  UNL1        0.0020
     16  C         23.0870  -22.8570   -9.0000 C.2     1  UNL1        0.0000
     17  C         22.3100  -24.0080   -9.1030 C.2     1  UNL1        0.0020
     18  C         21.0800  -24.0810   -8.4430 C.2     1  UNL1        0.0290
     19  S         16.3090  -23.0200   -8.9270 S.O2    1  UNL1        0.2460
     20  O         16.9940  -24.2020   -8.4540 O.2     1  UNL1       -0.2060
     21  O         15.0050  -23.0970   -9.5540 O.2     1  UNL1       -0.2060
     22  C         17.4250  -22.2020  -10.0470 C.2     1  UNL1        0.0770
     23  C         17.0220  -21.0050  -10.6870 C.2     1  UNL1        0.0270
     24  C         17.8830  -20.3470  -11.5720 C.2     1  UNL1        0.0330
     25  C         19.1140  -20.9270  -11.7800 C.ar    1  UNL1        0.0630
     26  N         20.1630  -20.5110  -12.5900 N.ar    1  UNL1       -0.3070
     27  C         19.5000  -22.1120  -11.1520 C.ar    1  UNL1        0.0640
     28  C         21.2130  -21.4350  -12.4780 C.ar    1  UNL1        0.3250
     29  H         20.1970  -19.6970  -13.1820 H       1  UNL1        0.1700
     30  O         22.2870  -21.3860  -13.0500 O.2     1  UNL1       -0.2470
     31  N         20.7850  -22.4230  -11.5790 N.ar    1  UNL1       -0.3060
     32  H         21.3430  -23.2190  -11.3170 H       1  UNL1        0.1700
     33  C         18.6790  -22.7830  -10.2800 C.2     1  UNL1        0.0560
@<TRIPOS>BOND
     1    29    26    1
     2    30    28    2
     3    26    28   ar
     4    26    25   ar
     5    28    31   ar
     6    25    24    2
     7    25    27   ar
     8    31    32    1
     9    31    27   ar
    10    24    23    1
    11    27    33    2
    12    23    22    2
    13    33    22    1
    14    22    19    1
    15    21    19    2
    16    17    16    2
    17    17    18    1
    18    16    15    1
    19    19    20    2
    20    19     1    1
    21    18    13    2
    22    15    14    2
    23     2     1    1
    24    13    14    1
    25    13    11    1
    26     1     3    1
    27    12    11    1
    28    11     9   am
    29     3     4    2
    30     3     8    1
    31     9    10    2
    32     9     8    1
    33     4     5    1
    34     8     7    2
    35     5     6    2
    36     7     6    1
