@<TRIPOS>MOLECULE
24624_out_ligand_01.pdbqt
 35 38 0 0 0
SMALL
GASTEIGER

@<TRIPOS>ATOM
      1  C         17.4670  -22.5500   -5.5450 C.2     1  UNL1        0.0540
      2  C         17.3930  -23.0160   -4.2250 C.2     1  UNL1        0.0190
      3  C         16.1600  -23.3880   -3.6870 C.2     1  UNL1        0.0010
      4  C         15.0030  -23.3010   -4.4620 C.2     1  UNL1        0.0020
      5  C         15.0730  -22.8480   -5.7810 C.2     1  UNL1        0.0250
      6  C         16.3040  -22.4830   -6.3330 C.2     1  UNL1        0.0380
      7  N         16.3270  -21.9410   -7.6610 N.pl3   1  UNL1       -0.1800
      8  H         15.5360  -21.3090   -7.8600 H       1  UNL1        0.1460
      9  S         16.4230  -23.0740   -8.9240 S.O2    1  UNL1        0.2460
     10  O         17.0850  -24.2690   -8.4430 O.2     1  UNL1       -0.2060
     11  O         15.1210  -23.1260   -9.5520 O.2     1  UNL1       -0.2060
     12  C         17.5050  -22.2520  -10.0720 C.2     1  UNL1        0.0770
     13  C         17.0720  -21.0660  -10.7160 C.2     1  UNL1        0.0270
     14  C         17.9080  -20.4030  -11.6220 C.2     1  UNL1        0.0330
     15  C         19.1470  -20.9580  -11.8370 C.ar    1  UNL1        0.0630
     16  N         20.1770  -20.5340  -12.6680 N.ar    1  UNL1       -0.3070
     17  C         19.5700  -22.1210  -11.1920 C.ar    1  UNL1        0.0640
     18  C         21.2530  -21.4260  -12.5470 C.ar    1  UNL1        0.3250
     19  H         20.1910  -19.7220  -13.2630 H       1  UNL1        0.1700
     20  O         22.3190  -21.3610  -13.1300 O.2     1  UNL1       -0.2470
     21  N         20.8590  -22.4080  -11.6270 N.ar    1  UNL1       -0.3060
     22  H         21.4450  -23.1770  -11.3450 H       1  UNL1        0.1700
     23  C         18.7780  -22.7960  -10.2960 C.2     1  UNL1        0.0560
     24  C         18.7770  -22.1710   -6.1360 C.2     1  UNL1        0.2580
     25  N         19.3560  -23.1350   -6.9370 N.am    1  UNL1       -0.3230
     26  H         18.9250  -24.0520   -6.9300 H       1  UNL1        0.1690
     27  O         19.2390  -21.0750   -5.8360 O.2     1  UNL1       -0.2670
     28  C         20.5660  -23.0340   -7.6540 C.2     1  UNL1        0.0350
     29  C         21.3640  -21.8910   -7.6790 C.2     1  UNL1        0.0320
     30  C         22.5470  -21.8720   -8.4270 C.2     1  UNL1        0.0390
     31  C         22.9470  -22.9870   -9.1650 C.2     1  UNL1        0.0680
     32  C         22.1520  -24.1300   -9.1450 C.2     1  UNL1        0.0390
     33  C         20.9680  -24.1500   -8.3950 C.2     1  UNL1        0.0320
     34  O         24.1190  -22.8320   -9.8500 O.2     1  UNL1       -0.3560
     35  C         24.3880  -21.5430  -10.3850 C.3     1  UNL1        0.2100
@<TRIPOS>BOND
     1    19    16    1
     2    20    18    2
     3    16    18   ar
     4    16    15   ar
     5    18    21   ar
     6    15    14    2
     7    15    17   ar
     8    21    22    1
     9    21    17   ar
    10    14    13    1
    11    17    23    2
    12    13    12    2
    13    35    34    1
    14    23    12    1
    15    12     9    1
    16    34    31    1
    17    11     9    2
    18    31    32    2
    19    31    30    1
    20    32    33    1
    21     9    10    2
    22     9     7    1
    23    30    29    2
    24    33    28    2
    25     8     7    1
    26    29    28    1
    27     7     6    1
    28    28    25    1
    29    25    26    1
    30    25    24   am
    31     6     5    1
    32     6     1    2
    33    24    27    2
    34    24     1    1
    35     5     4    2
    36     1     2    1
    37     4     3    1
    38     2     3    2
