@<TRIPOS>MOLECULE
2462_out_ligand_01.pdbqt
 32 36 0 0 0
SMALL
GASTEIGER

@<TRIPOS>ATOM
      1  C         22.9210  -21.8000  -13.0860 C.2     1  UNL1        0.0350
      2  C         21.6410  -21.4060  -12.6850 C.2     1  UNL1        0.0310
      3  C         21.1560  -21.7500  -11.4180 C.2     1  UNL1        0.0270
      4  C         21.9630  -22.4780  -10.5430 C.2     1  UNL1        0.0790
      5  C         23.2360  -22.8960  -10.9380 C.2     1  UNL1        0.0270
      6  C         23.7100  -22.5530  -12.2050 C.2     1  UNL1        0.0310
      7  S         21.3640  -22.9290   -8.9360 S.O2    1  UNL1        0.2590
      8  O         21.9670  -22.0140   -7.9900 O.2     1  UNL1       -0.2010
      9  O         21.4900  -24.3590   -8.7720 O.2     1  UNL1       -0.2010
     10  N         19.7480  -22.5190   -8.9830 N.3     1  UNL1       -0.3050
     11  H         19.4700  -22.0810   -9.8600 H       1  UNL1        0.1730
     12  C         18.7020  -22.8380   -7.9990 C.3     1  UNL1        0.0410
     13  C         18.7210  -24.3480   -7.6780 C.3     1  UNL1        0.0360
     14  C         17.5570  -24.7150   -6.7420 C.3     1  UNL1       -0.0120
     15  C         16.2250  -24.3710   -7.4280 C.3     1  UNL1        0.0090
     16  C         17.6800  -23.9050   -5.4400 C.3     1  UNL1        0.0090
     17  C         16.1690  -22.8680   -7.7450 C.3     1  UNL1       -0.0120
     18  C         16.2940  -22.0680   -6.4390 C.3     1  UNL1        0.0090
     19  C         17.3410  -22.5070   -8.6700 C.3     1  UNL1        0.0360
     20  C         17.6270  -22.3980   -5.7490 C.3     1  UNL1       -0.0120
     21  C         18.7920  -22.0330   -6.6890 C.3     1  UNL1        0.0360
     22  N         23.4770  -21.4940  -14.3380 N.am    1  UNL1       -0.3220
     23  C         24.5840  -20.7140  -14.6280 C.2     1  UNL1        0.2780
     24  O         25.3000  -20.1480  -13.8120 O.2     1  UNL1       -0.2650
     25  H         23.0340  -21.8810  -15.1680 H       1  UNL1        0.1690
     26  C         24.8250  -20.6410  -16.0830 C.2     1  UNL1        0.1670
     27  N         24.2230  -21.5160  -16.9270 N.2     1  UNL1       -0.1680
     28  N         24.6660  -21.1520  -18.1430 N.pl3   1  UNL1       -0.2870
     29  C         25.5220  -20.0950  -18.1210 C.2     1  UNL1        0.1350
     30  H         24.3400  -21.6730  -18.9520 H       1  UNL1        0.1880
     31  C         25.6490  -19.7370  -16.8020 C.2     1  UNL1        0.0870
     32 CL         26.5980  -18.4710  -16.1960 Cl      1  UNL1       -0.0800
@<TRIPOS>BOND
     1    30    28    1
     2    28    29    1
     3    28    27    1
     4    29    31    2
     5    27    26    2
     6    31    32    1
     7    31    26    1
     8    26    23    1
     9    25    22    1
    10    23    22   am
    11    23    24    2
    12    22     1    1
    13     1     2    2
    14     1     6    1
    15     2     3    1
    16     6     5    2
    17     3     4    2
    18     5     4    1
    19     4     7    1
    20    11    10    1
    21    10     7    1
    22    10    12    1
    23     7     9    2
    24     7     8    2
    25    19    12    1
    26    19    17    1
    27    12    13    1
    28    12    21    1
    29    17    15    1
    30    17    18    1
    31    13    14    1
    32    15    14    1
    33    14    16    1
    34    21    20    1
    35    18    20    1
    36    20    16    1
