@<TRIPOS>MOLECULE
24629_out_ligand_01.pdbqt
 35 38 0 0 0
SMALL
GASTEIGER

@<TRIPOS>ATOM
      1  C         16.9950  -20.9640  -11.0150 C.3     1  UNL1        0.0500
      2  C         18.2890  -21.6670  -10.7140 C.2     1  UNL1       -0.0390
      3  C         19.4200  -21.3060  -11.4720 C.2     1  UNL1        0.0100
      4  C         20.6460  -21.9510  -11.2980 C.2     1  UNL1        0.0310
      5  C         20.7600  -22.9790  -10.3700 C.2     1  UNL1        0.0440
      6  C         19.6630  -23.3520   -9.6010 C.2     1  UNL1        0.0550
      7  C         18.4310  -22.6900   -9.7570 C.2     1  UNL1        0.0830
      8  N         21.9990  -23.6560  -10.2370 N.pl3   1  UNL1       -0.2810
      9  H         21.9780  -24.6480  -10.0010 H       1  UNL1        0.1790
     10  S         23.2740  -22.8620   -9.4670 S.O2    1  UNL1        0.2630
     11  O         24.0320  -23.8830   -8.7760 O.2     1  UNL1       -0.2000
     12  O         22.7630  -21.7050   -8.7650 O.2     1  UNL1       -0.2000
     13  C         24.2620  -22.3180  -10.8400 C.2     1  UNL1        0.0820
     14  C         25.2090  -21.2840  -10.6540 C.2     1  UNL1        0.0280
     15  C         25.9960  -20.8470  -11.7240 C.2     1  UNL1        0.0340
     16  C         25.7970  -21.4740  -12.9320 C.ar    1  UNL1        0.0710
     17  N         26.3950  -21.2800  -14.1410 N.ar    1  UNL1       -0.3000
     18  C         24.8800  -22.4900  -13.1150 C.ar    1  UNL1        0.1090
     19  C         25.8410  -22.1700  -15.0330 C.ar    1  UNL1        0.3700
     20  H         27.1190  -20.6240  -14.3840 H       1  UNL1        0.1710
     21  O         26.1510  -22.2600  -16.2120 O.2     1  UNL1       -0.2380
     22  O         24.8640  -22.9630  -14.4170 O.2     1  UNL1       -0.2590
     23  C         24.0920  -22.9450  -12.0820 C.2     1  UNL1        0.0650
     24  S         17.0920  -23.2890   -8.7290 S.O2    1  UNL1        0.2460
     25  O         15.9530  -23.6120   -9.5600 O.2     1  UNL1       -0.2060
     26  O         17.6620  -24.2920   -7.8520 O.2     1  UNL1       -0.2060
     27  N         16.7330  -21.9530   -7.7470 N.pl3   1  UNL1       -0.1800
     28  H         15.9700  -21.4050   -8.1540 H       1  UNL1        0.1460
     29  C         16.6280  -22.1560   -6.3320 C.2     1  UNL1        0.0440
     30  C         15.3980  -22.5380   -5.7910 C.2     1  UNL1        0.0260
     31  C         15.2590  -22.7250   -4.4140 C.2     1  UNL1        0.0020
     32  C         16.3520  -22.5330   -3.5690 C.2     1  UNL1        0.0020
     33  C         17.5860  -22.1570   -4.1010 C.2     1  UNL1        0.0260
     34  C         17.7240  -21.9710   -5.4780 C.2     1  UNL1        0.0560
     35 CL         19.2730  -21.5260   -6.0960 Cl      1  UNL1       -0.0820
@<TRIPOS>BOND
     1    21    19    2
     2    19    22   ar
     3    19    17   ar
     4    22    18   ar
     5    20    17    1
     6    17    16   ar
     7    18    16   ar
     8    18    23    1
     9    16    15    1
    10    23    13    2
    11    15    14    2
    12     3     4    1
    13     3     2    2
    14     4     5    2
    15     1     2    1
    16    13    14    1
    17    13    10    1
    18     2     7    1
    19     5     8    1
    20     5     6    1
    21     8     9    1
    22     8    10    1
    23     7     6    2
    24     7    24    1
    25    25    24    2
    26    10    11    2
    27    10    12    2
    28    24    26    2
    29    24    27    1
    30    28    27    1
    31    27    29    1
    32    29    30    2
    33    29    34    1
    34    35    34    1
    35    30    31    1
    36    34    33    2
    37    31    32    2
    38    33    32    1
