@<TRIPOS>MOLECULE
24626_out_ligand_01.pdbqt
 30 32 0 0 0
SMALL
GASTEIGER

@<TRIPOS>ATOM
      1  C         22.9660  -22.4460  -11.5210 C.2     1  UNL1       -0.0190
      2  C         22.3680  -21.7520  -12.5900 C.2     1  UNL1        0.0100
      3  C         21.0350  -21.3470  -12.5300 C.2     1  UNL1        0.0030
      4  C         20.2690  -21.6360  -11.4030 C.2     1  UNL1        0.0290
      5  C         20.8250  -22.3360  -10.3290 C.2     1  UNL1        0.0350
      6  C         22.1670  -22.7300  -10.3960 C.2     1  UNL1        0.0390
      7  N         19.9860  -22.5880   -9.2220 N.am    1  UNL1       -0.3230
      8  C         20.2690  -22.3690   -7.8860 C.2     1  UNL1        0.2560
      9  O         21.3300  -21.9910   -7.4080 O.2     1  UNL1       -0.2670
     10  H         19.1110  -23.0500   -9.4360 H       1  UNL1        0.1690
     11  C         19.1490  -22.6780   -6.9530 C.2     1  UNL1        0.0320
     12  C         18.8530  -21.7560   -5.9390 C.2     1  UNL1        0.0180
     13  C         17.8090  -22.0060   -5.0470 C.2     1  UNL1        0.0240
     14  C         17.0480  -23.1700   -5.1900 C.2     1  UNL1        0.0580
     15  C         17.3330  -24.0950   -6.2000 C.2     1  UNL1        0.0240
     16  C         18.3810  -23.8430   -7.0880 C.2     1  UNL1        0.0180
     17  S         15.7270  -23.4970   -4.0440 S.O2    1  UNL1        0.1710
     18  C         14.4430  -24.1550   -5.0750 C.3     1  UNL1        0.1670
     19  O         15.2850  -22.2180   -3.5210 O.2     1  UNL1       -0.2230
     20  O         16.1760  -24.5490   -3.1530 O.2     1  UNL1       -0.2230
     21  C         24.4260  -22.8830  -11.6100 C.3     1  UNL1        0.1390
     22  C         25.1200  -23.2510  -10.2930 C.3     1  UNL1        0.0540
     23  N         24.5650  -23.9850  -12.5460 N.am    1  UNL1       -0.3210
     24  C         25.3960  -23.6860  -13.5960 C.2     1  UNL1        0.3240
     25  H         24.0450  -24.8500  -12.5070 H       1  UNL1        0.1650
     26  O         25.6320  -24.4250  -14.5350 O.2     1  UNL1       -0.2470
     27  N         25.8730  -22.4320  -13.4280 N.am    1  UNL1       -0.2770
     28  C         25.3190  -21.8430  -12.3310 C.2     1  UNL1        0.2580
     29  H         26.4690  -21.9640  -14.0890 H       1  UNL1        0.1730
     30  O         25.5220  -20.6870  -11.9920 O.2     1  UNL1       -0.2700
@<TRIPOS>BOND
     1    26    24    2
     2    29    27    1
     3    24    27   am
     4    24    23   am
     5    27    28   am
     6     2     3    1
     7     2     1    2
     8    23    25    1
     9    23    21    1
    10     3     4    2
    11    28    30    2
    12    28    21    1
    13    21     1    1
    14    21    22    1
    15     1     6    1
    16     4     5    1
    17     6     5    2
    18     5     7    1
    19    10     7    1
    20     7     8   am
    21     8     9    2
    22     8    11    1
    23    16    11    2
    24    16    15    1
    25    11    12    1
    26    15    14    2
    27    12    13    2
    28    14    13    1
    29    14    17    1
    30    18    17    1
    31    17    19    2
    32    17    20    2
