@<TRIPOS>MOLECULE
24634_out_ligand_01.pdbqt
 34 37 0 0 0
SMALL
GASTEIGER

@<TRIPOS>ATOM
      1  C         17.4080  -22.5660   -5.5740 C.2     1  UNL1        0.0540
      2  C         17.3270  -23.0530   -4.2610 C.2     1  UNL1        0.0190
      3  C         16.0890  -23.4230   -3.7310 C.2     1  UNL1        0.0010
      4  C         14.9360  -23.3150   -4.5070 C.2     1  UNL1        0.0020
      5  C         15.0120  -22.8420   -5.8190 C.2     1  UNL1        0.0250
      6  C         16.2470  -22.4800   -6.3620 C.2     1  UNL1        0.0380
      7  N         16.2790  -21.9250   -7.6850 N.pl3   1  UNL1       -0.1800
      8  H         15.4970  -21.2820   -7.8800 H       1  UNL1        0.1460
      9  S         16.3680  -23.0440   -8.9590 S.O2    1  UNL1        0.2460
     10  O         15.0670  -23.0820   -9.5900 O.2     1  UNL1       -0.2060
     11  O         17.0220  -24.2490   -8.4930 O.2     1  UNL1       -0.2060
     12  C         17.4570  -22.2180  -10.0980 C.2     1  UNL1        0.0770
     13  C         17.0370  -21.0240  -10.7300 C.2     1  UNL1        0.0270
     14  C         17.8880  -20.3600  -11.6170 C.2     1  UNL1        0.0340
     15  C         19.1250  -20.9240  -11.8250 C.ar    1  UNL1        0.0710
     16  N         20.1630  -20.5220  -12.6140 N.ar    1  UNL1       -0.3000
     17  C         19.5410  -22.0860  -11.2060 C.ar    1  UNL1        0.1090
     18  C         21.1830  -21.4330  -12.4650 C.ar    1  UNL1        0.3700
     19  H         20.2220  -19.7100  -13.2060 H       1  UNL1        0.1710
     20  O         22.2620  -21.3700  -13.0350 O.2     1  UNL1       -0.2380
     21  O         20.8260  -22.4530  -11.5740 O.2     1  UNL1       -0.2590
     22  C         18.7280  -22.7640  -10.3270 C.2     1  UNL1        0.0640
     23  C         18.7230  -22.1860   -6.1530 C.2     1  UNL1        0.2580
     24  N         19.3030  -23.1450   -6.9600 N.am    1  UNL1       -0.3230
     25  H         18.8610  -24.0570   -6.9740 H       1  UNL1        0.1690
     26  O         19.1870  -21.0940   -5.8400 O.2     1  UNL1       -0.2670
     27  C         20.5220  -23.0460   -7.6630 C.2     1  UNL1        0.0350
     28  C         21.3380  -21.9170   -7.6530 C.2     1  UNL1        0.0320
     29  C         22.5310  -21.9030   -8.3850 C.2     1  UNL1        0.0390
     30  C         22.9250  -23.0100   -9.1380 C.2     1  UNL1        0.0680
     31  C         22.1110  -24.1400   -9.1520 C.2     1  UNL1        0.0390
     32  C         20.9160  -24.1550   -8.4200 C.2     1  UNL1        0.0320
     33  O         24.1120  -22.8620   -9.7990 O.2     1  UNL1       -0.3560
     34  C         24.3900  -21.5770  -10.3410 C.3     1  UNL1        0.2100
@<TRIPOS>BOND
     1    19    16    1
     2    20    18    2
     3    16    18   ar
     4    16    15   ar
     5    18    21   ar
     6    15    14    2
     7    15    17   ar
     8    14    13    1
     9    21    17   ar
    10    17    22    2
    11    13    12    2
    12    34    33    1
    13    22    12    1
    14    12     9    1
    15    33    30    1
    16    10     9    2
    17    31    30    2
    18    31    32    1
    19    30    29    1
    20     9    11    2
    21     9     7    1
    22    32    27    2
    23    29    28    2
    24     8     7    1
    25     7     6    1
    26    27    28    1
    27    27    24    1
    28    25    24    1
    29    24    23   am
    30     6     5    1
    31     6     1    2
    32    23    26    2
    33    23     1    1
    34     5     4    2
    35     1     2    1
    36     4     3    1
    37     2     3    2
