@<TRIPOS>MOLECULE
24635_out_ligand_01.pdbqt
 34 37 0 0 0
SMALL
GASTEIGER

@<TRIPOS>ATOM
      1  C         17.0490  -22.4680   -5.0780 C.2     1  UNL1        0.0540
      2  C         16.8020  -23.0050   -3.8060 C.2     1  UNL1        0.0190
      3  C         15.6540  -23.7670   -3.5780 C.2     1  UNL1        0.0010
      4  C         14.7560  -24.0050   -4.6180 C.2     1  UNL1        0.0020
      5  C         15.0030  -23.4860   -5.8910 C.2     1  UNL1        0.0250
      6  C         16.1530  -22.7300   -6.1300 C.2     1  UNL1        0.0380
      7  N         16.3450  -22.1680   -7.4390 N.pl3   1  UNL1       -0.1800
      8  H         15.6360  -21.4580   -7.6850 H       1  UNL1        0.1460
      9  S         16.4520  -23.2700   -8.7280 S.O2    1  UNL1        0.2460
     10  O         15.1330  -23.3650   -9.3190 O.2     1  UNL1       -0.2060
     11  O         17.1760  -24.4480   -8.2930 O.2     1  UNL1       -0.2060
     12  C         17.4640  -22.3810   -9.8900 C.2     1  UNL1        0.0770
     13  C         16.9370  -21.2120  -10.4980 C.2     1  UNL1        0.0270
     14  C         17.7050  -20.4730  -11.4060 C.2     1  UNL1        0.0330
     15  C         18.9700  -20.9470  -11.6700 C.ar    1  UNL1        0.0630
     16  N         19.9520  -20.4330  -12.5090 N.ar    1  UNL1       -0.3070
     17  C         19.4760  -22.1050  -11.0740 C.ar    1  UNL1        0.0640
     18  C         21.0800  -21.2650  -12.4440 C.ar    1  UNL1        0.3250
     19  H         19.8990  -19.6020  -13.0760 H       1  UNL1        0.1700
     20  O         22.1280  -21.1170  -13.0430 O.2     1  UNL1       -0.2470
     21  N         20.7670  -22.3000  -11.5490 N.ar    1  UNL1       -0.3060
     22  H         21.4000  -23.0480  -11.3150 H       1  UNL1        0.1700
     23  C         18.7500  -22.8540  -10.1810 C.2     1  UNL1        0.0560
     24  C         18.2850  -21.6840   -5.3380 C.2     1  UNL1        0.2530
     25  O         18.5610  -20.7370   -4.6080 O.2     1  UNL1       -0.2680
     26  N         19.0600  -22.0970   -6.3960 N.am    1  UNL1       -0.3530
     27  H         18.8260  -22.9360   -6.9050 H       1  UNL1        0.1630
     28  C         20.2600  -21.3960   -6.7950 C.3     1  UNL1        0.1610
     29  C         21.1130  -22.2830   -7.6650 C.2     1  UNL1       -0.0410
     30  C         22.3570  -21.8460   -8.1420 C.2     1  UNL1        0.0090
     31  C         23.1480  -22.6860   -8.9300 C.2     1  UNL1        0.0010
     32  C         22.7060  -23.9710   -9.2450 C.2     1  UNL1        0.0000
     33  C         21.4720  -24.4200   -8.7700 C.2     1  UNL1        0.0010
     34  C         20.6800  -23.5810   -7.9830 C.2     1  UNL1        0.0090
@<TRIPOS>BOND
     1    19    16    1
     2    20    18    2
     3    16    18   ar
     4    16    15   ar
     5    18    21   ar
     6    15    14    2
     7    15    17   ar
     8    21    22    1
     9    21    17   ar
    10    14    13    1
    11    17    23    2
    12    13    12    2
    13    23    12    1
    14    12     9    1
    15    10     9    2
    16    32    31    2
    17    32    33    1
    18    31    30    1
    19    33    34    2
    20     9    11    2
    21     9     7    1
    22    30    29    2
    23    34    29    1
    24     8     7    1
    25    29    28    1
    26     7     6    1
    27    27    26    1
    28    28    26    1
    29    26    24   am
    30     6     5    1
    31     6     1    2
    32     5     4    2
    33    24     1    1
    34    24    25    2
    35     1     2    1
    36     4     3    1
    37     2     3    2
