@<TRIPOS>MOLECULE
24646_out_ligand_01.pdbqt
 40 43 0 0 0
SMALL
GASTEIGER

@<TRIPOS>ATOM
      1  O         23.0130  -21.0220   -9.5250 O.2     1  UNL1       -0.2670
      2  C         23.0870  -22.0850  -10.1350 C.2     1  UNL1        0.2580
      3  N         22.0260  -22.7830  -10.6850 N.am    1  UNL1       -0.3230
      4  H         22.2010  -23.7350  -10.9830 H       1  UNL1        0.1690
      5  C         24.4220  -22.7510  -10.2400 C.2     1  UNL1        0.0540
      6  C         24.7410  -23.8290   -9.3960 C.2     1  UNL1        0.0190
      7  C         26.0030  -24.4230   -9.4560 C.2     1  UNL1        0.0010
      8  C         26.9540  -23.9460  -10.3530 C.2     1  UNL1        0.0020
      9  C         26.6360  -22.8970  -11.2170 C.2     1  UNL1        0.0250
     10  C         25.3630  -22.3180  -11.2010 C.2     1  UNL1        0.0380
     11  N         25.0480  -21.2650  -12.1290 N.pl3   1  UNL1       -0.1800
     12  H         24.4950  -20.4980  -11.7200 H       1  UNL1        0.1460
     13  S         24.3440  -21.6720  -13.6210 S.O2    1  UNL1        0.2450
     14  O         24.7950  -23.0070  -13.9460 O.2     1  UNL1       -0.2060
     15  O         22.9310  -21.3530  -13.5870 O.2     1  UNL1       -0.2060
     16  C         25.1290  -20.5510  -14.7620 C.2     1  UNL1        0.0750
     17  C         25.1330  -20.8390  -16.1320 C.2     1  UNL1        0.0280
     18  C         25.7590  -19.9580  -17.0150 C.2     1  UNL1        0.0440
     19  C         26.3790  -18.8140  -16.5210 C.2     1  UNL1        0.1160
     20  F         26.9760  -17.9700  -17.3730 F       1  UNL1       -0.2060
     21  C         26.3920  -18.5330  -15.1570 C.2     1  UNL1        0.0440
     22  C         25.7700  -19.4090  -14.2680 C.2     1  UNL1        0.0280
     23  C         20.6840  -22.3550  -10.7830 C.2     1  UNL1        0.0360
     24  C         20.2220  -21.4370  -11.7300 C.2     1  UNL1        0.0290
     25  C         18.8700  -21.0750  -11.7760 C.2     1  UNL1        0.0040
     26  C         17.9640  -21.6260  -10.8750 C.2     1  UNL1        0.0250
     27  C         18.4250  -22.5380   -9.9240 C.2     1  UNL1        0.0770
     28  C         19.7720  -22.9140   -9.8800 C.2     1  UNL1        0.0540
     29  S         17.2800  -23.2410   -8.7670 S.O2    1  UNL1        0.2460
     30  O         17.9840  -24.2140   -7.9590 O.2     1  UNL1       -0.2060
     31  O         16.0920  -23.5990   -9.5130 O.2     1  UNL1       -0.2060
     32  N         16.8600  -21.9040   -7.8100 N.pl3   1  UNL1       -0.1800
     33  H         16.1310  -21.3740   -8.2930 H       1  UNL1        0.1460
     34  C         16.6100  -22.1620   -6.4220 C.2     1  UNL1        0.0440
     35  C         15.3260  -22.5400   -6.0230 C.2     1  UNL1        0.0260
     36  C         15.0440  -22.7350   -4.6690 C.2     1  UNL1        0.0020
     37  C         16.0410  -22.5450   -3.7110 C.2     1  UNL1        0.0020
     38  C         17.3250  -22.1630   -4.1040 C.2     1  UNL1        0.0260
     39  C         17.6090  -21.9690   -5.4570 C.2     1  UNL1        0.0560
     40 CL         19.2130  -21.5150   -5.9110 Cl      1  UNL1       -0.0820
@<TRIPOS>BOND
     1    20    19    1
     2    18    19    2
     3    18    17    1
     4    19    21    1
     5    17    16    2
     6    21    22    2
     7    16    22    1
     8    16    13    1
     9    14    13    2
    10    13    15    2
    11    13    11    1
    12    11    12    1
    13    11    10    1
    14    25    24    1
    15    25    26    2
    16    24    23    2
    17     9    10    1
    18     9     8    2
    19    10     5    2
    20     4     3    1
    21    26    27    1
    22    23     3    1
    23    23    28    1
    24     3     2   am
    25     8     7    1
    26     5     2    1
    27     5     6    1
    28     2     1    2
    29    27    28    2
    30    27    29    1
    31    31    29    2
    32     7     6    2
    33    29    30    2
    34    29    32    1
    35    33    32    1
    36    32    34    1
    37    34    35    2
    38    34    39    1
    39    35    36    1
    40    40    39    1
    41    39    38    2
    42    36    37    2
    43    38    37    1
