@<TRIPOS>MOLECULE
24645_out_ligand_01.pdbqt
 41 44 0 0 0
SMALL
GASTEIGER

@<TRIPOS>ATOM
      1  C         19.8000  -21.1610  -11.4660 C.2     1  UNL1        0.2580
      2  O         19.6830  -19.9820  -11.7820 O.2     1  UNL1       -0.2670
      3  N         20.8770  -21.9860  -11.7350 N.am    1  UNL1       -0.3230
      4  H         20.7570  -22.9740  -11.5510 H       1  UNL1        0.1690
      5  C         18.6560  -21.8070  -10.7580 C.2     1  UNL1        0.0540
      6  C         17.4090  -21.1630  -10.6860 C.2     1  UNL1        0.0190
      7  C         16.3360  -21.7780  -10.0390 C.2     1  UNL1        0.0010
      8  C         16.4940  -23.0430   -9.4760 C.2     1  UNL1        0.0020
      9  C         17.7230  -23.7000   -9.5620 C.2     1  UNL1        0.0250
     10  C         18.8070  -23.0910  -10.2010 C.2     1  UNL1        0.0380
     11  N         20.0580  -23.7930  -10.2410 N.pl3   1  UNL1       -0.1800
     12  H         20.7740  -23.3270  -10.8190 H       1  UNL1        0.1460
     13  S         20.7300  -24.3220   -8.7740 S.O2    1  UNL1        0.2460
     14  O         20.1000  -25.5670   -8.3910 O.2     1  UNL1       -0.2060
     15  O         22.1680  -24.2490   -8.9250 O.2     1  UNL1       -0.2060
     16  C         20.2570  -23.0260   -7.6240 C.2     1  UNL1        0.0810
     17  C         21.0210  -21.8650   -7.3960 C.2     1  UNL1       -0.0390
     18  C         20.5280  -20.9210   -6.4740 C.2     1  UNL1        0.0090
     19  C         22.3120  -21.5500   -8.0960 C.3     1  UNL1        0.0500
     20  C         19.3120  -21.1150   -5.8130 C.2     1  UNL1        0.0070
     21  C         18.5520  -22.2600   -6.0500 C.2     1  UNL1       -0.0600
     22  C         17.2190  -22.4390   -5.3820 C.3     1  UNL1        0.0480
     23  C         19.0250  -23.2060   -6.9650 C.2     1  UNL1        0.0320
     24  C         22.0850  -21.6340  -12.3710 C.2     1  UNL1        0.0350
     25  C         22.1570  -21.0440  -13.6370 C.2     1  UNL1        0.0310
     26  C         23.3960  -20.7360  -14.2100 C.2     1  UNL1        0.0270
     27  C         24.5700  -21.0120  -13.5070 C.2     1  UNL1        0.0800
     28  C         24.5160  -21.5790  -12.2330 C.2     1  UNL1        0.0270
     29  C         23.2750  -21.8920  -11.6730 C.2     1  UNL1        0.0310
     30  S         26.1450  -20.6240  -14.2240 S.O2    1  UNL1        0.2640
     31  O         27.1210  -20.6780  -13.1520 O.2     1  UNL1       -0.2000
     32  O         26.0200  -19.4470  -15.0570 O.2     1  UNL1       -0.2000
     33  N         26.4530  -21.9610  -15.1880 N.pl3   1  UNL1       -0.2580
     34  H         27.4410  -22.1600  -15.3210 H       1  UNL1        0.1810
     35  C         25.5050  -22.2420  -16.2440 C.ar    1  UNL1        0.1900
     36  O         25.1360  -21.3700  -17.2210 O.2     1  UNL1       -0.1940
     37  N         24.1680  -21.9450  -18.0200 N.ar    1  UNL1       -0.1310
     38  C         23.9620  -23.1680  -17.5160 C.ar    1  UNL1        0.0680
     39  C         22.9720  -24.0690  -18.1520 C.3     1  UNL1        0.0730
     40  C         24.7860  -23.4110  -16.3800 C.ar    1  UNL1        0.0180
     41  C         24.8590  -24.6330  -15.5470 C.3     1  UNL1        0.0550
@<TRIPOS>BOND
     1    39    38    1
     2    37    38   ar
     3    37    36   ar
     4    38    40   ar
     5    36    35   ar
     6    40    35   ar
     7    40    41    1
     8    35    33    1
     9    34    33    1
    10    33    30    1
    11    32    30    2
    12    30    27    1
    13    30    31    2
    14    26    25    1
    15    26    27    2
    16    25    24    2
    17    27    28    1
    18    24     3    1
    19    24    29    1
    20    28    29    2
    21     2     1    2
    22     3     4    1
    23     3     1   am
    24     1     5    1
    25    12    11    1
    26     5     6    2
    27     5    10    1
    28     6     7    1
    29    11    10    1
    30    11    13    1
    31    10     9    2
    32     7     8    2
    33     9     8    1
    34    15    13    2
    35    13    14    2
    36    13    16    1
    37    19    17    1
    38    16    17    2
    39    16    23    1
    40    17    18    1
    41    23    21    2
    42    18    20    2
    43    21    20    1
    44    21    22    1
