@<TRIPOS>MOLECULE
24643_out_ligand_01.pdbqt
 32 35 0 0 0
SMALL
GASTEIGER

@<TRIPOS>ATOM
      1  C         20.1520  -21.8750  -10.6220 C.2     1  UNL1        0.2590
      2  O         20.1940  -20.8220  -11.2500 O.2     1  UNL1       -0.2670
      3  N         21.2120  -22.7490  -10.4630 N.am    1  UNL1       -0.3230
      4  H         21.0460  -23.5540   -9.8760 H       1  UNL1        0.1690
      5  C         18.9190  -22.2580   -9.9370 C.2     1  UNL1        0.0760
      6  C         17.7100  -22.5580  -10.6070 C.2     1  UNL1        0.1580
      7  N         16.7250  -22.9140   -9.7880 N.2     1  UNL1       -0.1780
      8  N         17.2420  -22.7580   -8.5450 N.pl3   1  UNL1       -0.2360
      9  C         18.6110  -22.5020   -8.6040 C.2     1  UNL1        0.0580
     10  C         16.4120  -22.9700   -7.4080 C.2     1  UNL1        0.0640
     11  C         15.4880  -21.9520   -7.0990 C.2     1  UNL1        0.0320
     12  C         14.5800  -22.1070   -6.0530 C.2     1  UNL1        0.0020
     13  C         14.5960  -23.2730   -5.2910 C.2     1  UNL1        0.0010
     14  C         15.5470  -24.2610   -5.5500 C.2     1  UNL1        0.0090
     15  C         16.4900  -24.1160   -6.5870 C.2     1  UNL1       -0.0330
     16  C         17.5800  -25.1510   -6.6500 C.3     1  UNL1        0.0500
     17  C         19.6210  -22.6120   -7.4150 C.3     1  UNL1        0.0390
     18  C         20.5420  -21.4470   -7.1230 C.3     1  UNL1        0.0110
     19  C         19.4080  -21.7520   -6.1890 C.3     1  UNL1        0.0110
     20  C         22.5120  -22.6390  -11.0000 C.2     1  UNL1        0.0360
     21  C         23.6640  -23.1110  -10.3730 C.2     1  UNL1        0.0300
     22  C         24.9180  -22.9640  -10.9780 C.2     1  UNL1        0.0100
     23  C         25.0560  -22.3390  -12.2280 C.2     1  UNL1       -0.0390
     24  C         26.4390  -22.1850  -12.7960 C.3     1  UNL1        0.0500
     25  C         23.8920  -21.8490  -12.8510 C.2     1  UNL1        0.0820
     26  C         22.6330  -22.0080  -12.2430 C.2     1  UNL1        0.0540
     27  S         23.9490  -20.9500  -14.3850 S.O2    1  UNL1        0.2390
     28  O         23.9240  -21.8840  -15.4880 O.2     1  UNL1       -0.2060
     29  O         24.9440  -19.9030  -14.2890 O.2     1  UNL1       -0.2060
     30  N         22.4710  -20.1490  -14.3960 N.3     1  UNL1       -0.2250
     31  H         22.2230  -19.8990  -15.3550 H       1  UNL1        0.1360
     32  H         22.4990  -19.3490  -13.7540 H       1  UNL1        0.1360
@<TRIPOS>BOND
     1    28    27    2
     2    31    30    1
     3    30    27    1
     4    30    32    1
     5    27    29    2
     6    27    25    1
     7    25    26    1
     8    25    23    2
     9    24    23    1
    10    26    20    2
    11    23    22    1
    12     2     1    2
    13    20     3    1
    14    20    21    1
    15    22    21    2
    16     1     3   am
    17     1     5    1
    18     6     5    1
    19     6     7    2
    20     3     4    1
    21     5     9    2
    22     7     8    1
    23     9     8    1
    24     9    17    1
    25     8    10    1
    26    17    18    1
    27    17    19    1
    28    10    11    2
    29    10    15    1
    30    18    19    1
    31    11    12    1
    32    16    15    1
    33    15    14    2
    34    12    13    2
    35    14    13    1
