@<TRIPOS>MOLECULE
24640_out_ligand_01.pdbqt
 31 33 0 0 0
SMALL
GASTEIGER

@<TRIPOS>ATOM
      1  C         22.9640  -22.3460  -11.7300 C.2     1  UNL1       -0.0190
      2  C         22.4870  -21.6130  -12.8270 C.2     1  UNL1        0.0100
      3  C         21.1650  -21.1690  -12.8680 C.2     1  UNL1        0.0030
      4  C         20.2900  -21.4460  -11.8170 C.2     1  UNL1        0.0290
      5  C         20.7270  -22.1750  -10.7150 C.2     1  UNL1        0.0350
      6  C         22.0580  -22.6190  -10.6830 C.2     1  UNL1        0.0390
      7  N         19.9180  -22.4880   -9.6020 N.am    1  UNL1       -0.3230
      8  C         20.2980  -22.5210   -8.2730 C.2     1  UNL1        0.2560
      9  O         21.3860  -22.2030   -7.8100 O.2     1  UNL1       -0.2670
     10  H         18.9410  -22.6500   -9.8060 H       1  UNL1        0.1690
     11  C         19.2310  -22.9550   -7.3270 C.2     1  UNL1        0.0320
     12  C         18.8990  -22.1130   -6.2590 C.2     1  UNL1        0.0200
     13  C         17.9040  -22.4810   -5.3450 C.2     1  UNL1        0.0380
     14  C         17.2400  -23.7000   -5.4840 C.2     1  UNL1        0.0780
     15  C         17.5880  -24.5490   -6.5420 C.2     1  UNL1        0.0380
     16  C         18.5810  -24.1870   -7.4580 C.2     1  UNL1        0.0200
     17  O         16.2570  -24.1870   -4.6730 O.2     1  UNL1       -0.2550
     18  C         14.9470  -23.6670   -4.8330 C.3     1  UNL1        0.5300
     19  F         14.7460  -22.7090   -3.9020 F       1  UNL1       -0.1440
     20  F         14.7910  -23.1080   -6.0520 F       1  UNL1       -0.1440
     21  F         14.0170  -24.6280   -4.6540 F       1  UNL1       -0.1440
     22  C         24.3970  -22.8640  -11.6540 C.3     1  UNL1        0.1390
     23  C         24.8540  -23.0920  -10.2130 C.3     1  UNL1        0.0540
     24  N         24.6130  -24.0680  -12.4370 N.am    1  UNL1       -0.3210
     25  C         25.5400  -23.9010  -13.4310 C.2     1  UNL1        0.3240
     26  H         24.2040  -24.9730  -12.2510 H       1  UNL1        0.1650
     27  O         25.9220  -24.7800  -14.1820 O.2     1  UNL1       -0.2470
     28  N         25.9680  -22.6210  -13.4160 N.am    1  UNL1       -0.2770
     29  C         25.4030  -21.9370  -12.3850 C.2     1  UNL1        0.2580
     30  H         26.6780  -22.2580  -14.0280 H       1  UNL1        0.1730
     31  O         25.6790  -20.7810  -12.0900 O.2     1  UNL1       -0.2700
@<TRIPOS>BOND
     1    27    25    2
     2    30    28    1
     3    25    28   am
     4    25    24   am
     5    28    29   am
     6     3     2    1
     7     3     4    2
     8     2     1    2
     9    24    26    1
    10    24    22    1
    11    29    31    2
    12    29    22    1
    13     4     5    1
    14     1    22    1
    15     1     6    1
    16    22    23    1
    17     5     6    2
    18     5     7    1
    19    10     7    1
    20     7     8   am
    21     8     9    2
    22     8    11    1
    23    16    11    2
    24    16    15    1
    25    11    12    1
    26    15    14    2
    27    12    13    2
    28    20    18    1
    29    14    13    1
    30    14    17    1
    31    18    17    1
    32    18    21    1
    33    18    19    1
