@<TRIPOS>MOLECULE
24658_out_ligand_01.pdbqt
 43 46 0 0 0
SMALL
GASTEIGER

@<TRIPOS>ATOM
      1  N         21.3540  -22.2960  -10.5510 N.am    1  UNL1       -0.3230
      2  C         20.3210  -23.0610  -10.0410 C.2     1  UNL1        0.2580
      3  O         20.4190  -24.1400   -9.4650 O.2     1  UNL1       -0.2670
      4  H         21.1150  -21.3750  -10.8970 H       1  UNL1        0.1690
      5  C         22.7280  -22.6160  -10.5790 C.2     1  UNL1        0.0360
      6  C         23.3300  -22.7180  -11.8360 C.2     1  UNL1        0.0540
      7  C         24.6870  -23.0660  -11.9590 C.2     1  UNL1        0.0830
      8  C         25.4820  -23.2720  -10.8180 C.2     1  UNL1       -0.0390
      9  C         24.8610  -23.1680   -9.5640 C.2     1  UNL1        0.0100
     10  C         26.9410  -23.6260  -10.8670 C.3     1  UNL1        0.0500
     11  C         23.5010  -22.8510   -9.4460 C.2     1  UNL1        0.0300
     12  S         25.3290  -23.2790  -13.6140 S.O2    1  UNL1        0.2460
     13  O         26.6510  -22.6870  -13.6510 O.2     1  UNL1       -0.2060
     14  O         25.1000  -24.6520  -14.0050 O.2     1  UNL1       -0.2060
     15  N         24.3180  -22.2230  -14.4970 N.pl3   1  UNL1       -0.1810
     16  H         23.5560  -21.9340  -13.8850 H       1  UNL1        0.1460
     17  C         24.9990  -21.0970  -15.0690 C.2     1  UNL1        0.0230
     18  C         25.3640  -20.0220  -14.2590 C.2     1  UNL1        0.0270
     19  C         26.0630  -18.9460  -14.8130 C.2     1  UNL1        0.0380
     20  C         26.4070  -18.9400  -16.1690 C.2     1  UNL1        0.0680
     21  C         26.0410  -20.0210  -16.9710 C.2     1  UNL1        0.0380
     22  C         25.3410  -21.1000  -16.4190 C.2     1  UNL1        0.0270
     23  O         27.1040  -17.8370  -16.5730 O.2     1  UNL1       -0.3560
     24  C         26.3490  -16.6570  -16.8250 C.3     1  UNL1        0.2100
     25  C         18.9560  -22.4850  -10.2180 C.2     1  UNL1        0.0540
     26  C         18.7160  -21.5090  -11.1990 C.2     1  UNL1        0.0190
     27  C         17.4330  -20.9860  -11.3700 C.2     1  UNL1        0.0010
     28  C         16.3810  -21.4420  -10.5800 C.2     1  UNL1        0.0020
     29  C         16.6050  -22.4320   -9.6210 C.2     1  UNL1        0.0250
     30  C         17.8840  -22.9660   -9.4430 C.2     1  UNL1        0.0380
     31  N         18.0840  -23.9380   -8.4080 N.pl3   1  UNL1       -0.1800
     32  H         19.0580  -24.0010   -8.0770 H       1  UNL1        0.1460
     33  S         17.0670  -23.8280   -7.0520 S.O2    1  UNL1        0.2460
     34  O         15.8040  -23.2880   -7.5050 O.2     1  UNL1       -0.2060
     35  O         17.1230  -25.0870   -6.3330 O.2     1  UNL1       -0.2060
     36  C         17.8640  -22.5670   -6.0650 C.2     1  UNL1        0.0810
     37  C         19.0910  -22.0630   -6.5270 C.2     1  UNL1        0.0320
     38  C         19.7730  -21.0730   -5.8130 C.2     1  UNL1       -0.0600
     39  C         21.0970  -20.5620   -6.2960 C.3     1  UNL1        0.0480
     40  C         19.2300  -20.6140   -4.6110 C.2     1  UNL1        0.0070
     41  C         18.0160  -21.1210   -4.1410 C.2     1  UNL1        0.0090
     42  C         17.3050  -22.0960   -4.8620 C.2     1  UNL1       -0.0390
     43  C         16.0260  -22.6200   -4.2720 C.3     1  UNL1        0.0500
@<TRIPOS>BOND
     1    21    22    1
     2    21    20    2
     3    24    23    1
     4    23    20    1
     5    22    17    2
     6    20    19    1
     7    17    15    1
     8    17    18    1
     9    19    18    2
    10    15    16    1
    11    15    12    1
    12    14    12    2
    13    13    12    2
    14    12     7    1
    15     7     6    1
    16     7     8    2
    17     6     5    2
    18    27    26    1
    19    27    28    2
    20    26    25    2
    21     4     1    1
    22    10     8    1
    23     8     9    1
    24    28    29    1
    25     5     1    1
    26     5    11    1
    27     1     2   am
    28    25     2    1
    29    25    30    1
    30     2     3    2
    31    29    30    2
    32     9    11    2
    33    30    31    1
    34    31    32    1
    35    31    33    1
    36    34    33    2
    37    33    35    2
    38    33    36    1
    39    37    36    2
    40    37    38    1
    41    39    38    1
    42    36    42    1
    43    38    40    2
    44    42    43    1
    45    42    41    2
    46    40    41    1
