@<TRIPOS>MOLECULE
24653_out_ligand_01.pdbqt
 38 41 0 0 0
SMALL
GASTEIGER

@<TRIPOS>ATOM
      1  C         23.5990  -22.4550  -10.8910 C.2     1  UNL1        0.0820
      2  C         23.8340  -21.4890   -9.9120 C.2     1  UNL1        0.0270
      3  C         22.9880  -21.4280   -8.8040 C.2     1  UNL1        0.0280
      4  C         21.9150  -22.3230   -8.6760 C.2     1  UNL1        0.0620
      5 CL         20.9800  -22.1840   -7.2220 Cl      1  UNL1       -0.0820
      6  C         21.6720  -23.3070   -9.6620 C.2     1  UNL1        0.0730
      7  C         22.5450  -23.3670  -10.7630 C.2     1  UNL1        0.0580
      8  N         20.6140  -24.2500   -9.6160 N.pl3   1  UNL1       -0.2760
      9  H         20.5260  -24.8180  -10.4630 H       1  UNL1        0.1890
     10  N         19.4590  -23.8570   -9.0080 N.2     1  UNL1       -0.1650
     11  C         18.7740  -22.9350   -9.5960 C.2     1  UNL1        0.1500
     12  S         19.0570  -22.0930  -11.0710 S.3     1  UNL1       -0.0270
     13  C         17.4490  -22.4170   -9.1130 C.3     1  UNL1        0.1100
     14  C         17.4630  -21.4500  -11.0350 C.2     1  UNL1        0.1880
     15  N         16.7430  -21.6760   -9.9160 N.2     1  UNL1       -0.2190
     16  N         16.9510  -20.7640  -11.9870 N.pl3   1  UNL1       -0.2760
     17  H         15.9400  -20.7680  -11.8170 H       1  UNL1        0.1890
     18  C         16.9440  -22.7740   -7.7760 C.2     1  UNL1        0.0370
     19  C         17.4450  -22.1080   -6.6550 C.2     1  UNL1        0.0590
     20  C         16.9820  -22.4670   -5.3920 C.2     1  UNL1        0.1170
     21  F         17.4600  -21.8340   -4.3130 F       1  UNL1       -0.2060
     22  C         16.0370  -23.4800   -5.2270 C.2     1  UNL1        0.0450
     23  C         15.5530  -24.1550   -6.3460 C.2     1  UNL1        0.0460
     24  C         16.0150  -23.8030   -7.6160 C.2     1  UNL1        0.1290
     25  F         15.5920  -24.5160   -8.6690 F       1  UNL1       -0.2050
     26  S         24.6610  -22.5530  -12.3100 S.O2    1  UNL1        0.2630
     27  O         25.9690  -22.0490  -11.9540 O.2     1  UNL1       -0.2000
     28  O         24.4970  -23.8730  -12.8800 O.2     1  UNL1       -0.2000
     29  N         23.9220  -21.4830  -13.3930 N.pl3   1  UNL1       -0.2810
     30  H         22.9860  -21.8090  -13.6360 H       1  UNL1        0.1790
     31  C         24.7180  -20.9410  -14.4390 C.2     1  UNL1        0.0440
     32  C         24.8290  -21.6380  -15.6400 C.2     1  UNL1        0.0310
     33  C         25.5860  -21.1050  -16.6880 C.2     1  UNL1        0.0110
     34  C         26.2330  -19.8660  -16.5450 C.2     1  UNL1       -0.0400
     35  C         27.0370  -19.3130  -17.6920 C.3     1  UNL1        0.0500
     36  C         26.1010  -19.1740  -15.3290 C.2     1  UNL1        0.0420
     37  C         25.3480  -19.7100  -14.2780 C.2     1  UNL1        0.0540
     38 CL         26.8580  -17.6390  -15.0790 Cl      1  UNL1       -0.0840
@<TRIPOS>BOND
     1    35    34    1
     2    33    34    2
     3    33    32    1
     4    34    36    1
     5    32    31    2
     6    36    38    1
     7    36    37    2
     8    31    37    1
     9    31    29    1
    10    30    29    1
    11    29    26    1
    12    28    26    2
    13    26    27    2
    14    26     1    1
    15    16    17    1
    16    16    14    1
    17    12    14    1
    18    12    11    1
    19    14    15    2
    20     1     7    2
    21     1     2    1
    22     7     6    1
    23     9     8    1
    24    15    13    1
    25     2     3    2
    26     6     8    1
    27     6     4    2
    28     8    10    1
    29    11    13    1
    30    11    10    2
    31    13    18    1
    32     3     4    1
    33     4     5    1
    34    25    24    1
    35    18    24    2
    36    18    19    1
    37    24    23    1
    38    19    20    2
    39    23    22    2
    40    20    22    1
    41    20    21    1
