@<TRIPOS>MOLECULE
2465_out_ligand_01.pdbqt
 37 41 0 0 0
SMALL
GASTEIGER

@<TRIPOS>ATOM
      1  C         21.7260  -22.1240   -9.7260 C.2     1  UNL1        0.1490
      2  C         21.5130  -22.5430   -8.3960 C.2     1  UNL1        0.0910
      3  C         20.1500  -22.5890   -8.2340 C.2     1  UNL1        0.1540
      4  N         19.3850  -22.9280   -7.1570 N.2     1  UNL1       -0.2290
      5  C         18.0920  -22.8890   -7.3110 C.2     1  UNL1        0.0710
      6  C         17.4120  -22.4680   -8.5790 C.2     1  UNL1        0.0690
      7  C         18.2140  -22.1410   -9.6110 C.2     1  UNL1        0.1460
      8  N         19.5940  -22.2020   -9.4570 N.pl3   1  UNL1       -0.2100
      9  N         20.5600  -21.9170  -10.3690 N.2     1  UNL1       -0.1600
     10  C         23.0260  -21.9200  -10.3920 C.2     1  UNL1        0.2760
     11  O         23.8960  -21.2100   -9.9000 O.2     1  UNL1       -0.2660
     12  N         23.1020  -22.6080  -11.5860 N.am    1  UNL1       -0.3190
     13  H         22.2740  -23.1440  -11.8340 H       1  UNL1        0.1690
     14  C         24.1790  -22.6290  -12.4460 C.2     1  UNL1        0.0710
     15  C         25.4000  -23.3130  -12.2610 C.2     1  UNL1        0.1690
     16  N         26.2480  -23.1410  -13.2790 N.2     1  UNL1       -0.1830
     17  N         25.5690  -22.3250  -14.1160 N.pl3   1  UNL1       -0.2750
     18  C         24.3200  -22.0060  -13.6610 C.2     1  UNL1        0.1430
     19  C         26.1700  -21.9090  -15.3760 C.3     1  UNL1        0.1900
     20  C         26.4070  -20.4180  -15.4080 C.2     1  UNL1       -0.0170
     21  C         26.9000  -19.7880  -14.2480 C.2     1  UNL1        0.0120
     22  C         27.1210  -18.4090  -14.2170 C.2     1  UNL1        0.0240
     23  C         26.8480  -17.6440  -15.3460 C.2     1  UNL1        0.0350
     24 CL         27.1200  -15.9450  -15.3100 Cl      1  UNL1       -0.0840
     25  C         26.3540  -18.2410  -16.5020 C.2     1  UNL1        0.0480
     26  C         26.1320  -19.6220  -16.5320 C.2     1  UNL1        0.0430
     27 CL         25.5170  -20.2910  -18.0000 Cl      1  UNL1       -0.0840
     28  C         17.7170  -21.6980  -10.9320 C.3     1  UNL1        0.4340
     29  F         16.3580  -21.6050  -10.9490 F       1  UNL1       -0.1650
     30  F         18.0430  -22.5560  -11.9300 F       1  UNL1       -0.1650
     31  F         18.1770  -20.4710  -11.2810 F       1  UNL1       -0.1650
     32  C         17.2110  -23.2580   -6.1650 C.2     1  UNL1       -0.0070
     33  C         17.6850  -23.3030   -4.8480 C.2     1  UNL1        0.0140
     34  C         16.8220  -23.6510   -3.8060 C.2     1  UNL1        0.0010
     35  C         15.4850  -23.9460   -4.0730 C.2     1  UNL1        0.0000
     36  C         15.0040  -23.8850   -5.3790 C.2     1  UNL1        0.0010
     37  C         15.8630  -23.5370   -6.4230 C.2     1  UNL1        0.0140
@<TRIPOS>BOND
     1    27    26    1
     2    26    25    1
     3    26    20    2
     4    25    23    2
     5    20    19    1
     6    20    21    1
     7    19    17    1
     8    23    24    1
     9    23    22    1
    10    21    22    2
    11    17    18    1
    12    17    16    1
    13    18    14    2
    14    16    15    2
    15    14    15    1
    16    14    12    1
    17    30    28    1
    18    13    12    1
    19    12    10   am
    20    31    28    1
    21    29    28    1
    22    28     7    1
    23    10    11    2
    24    10     1    1
    25     9     1    2
    26     9     8    1
    27     1     2    1
    28     7     8    1
    29     7     6    2
    30     8     3    1
    31     6     5    1
    32     2     3    2
    33     3     4    1
    34     5     4    2
    35     5    32    1
    36    37    32    2
    37    37    36    1
    38    32    33    1
    39    36    35    2
    40    33    34    2
    41    35    34    1
