@<TRIPOS>MOLECULE
24659_out_ligand_01.pdbqt
 32 36 0 0 0
SMALL
GASTEIGER

@<TRIPOS>ATOM
      1  C         22.4490  -23.4260   -9.0660 C.2     1  UNL1        0.0340
      2  C         21.4270  -24.3710   -9.1410 C.2     1  UNL1        0.0300
      3  C         20.2130  -24.1520   -8.4770 C.2     1  UNL1        0.0170
      4  C         19.9960  -22.9930   -7.7170 C.2     1  UNL1        0.0100
      5  C         21.0290  -22.0470   -7.6430 C.2     1  UNL1        0.0170
      6  C         22.2400  -22.2610   -8.3180 C.2     1  UNL1        0.0300
      7  N         23.6800  -23.5460   -9.7370 N.am    1  UNL1       -0.3270
      8  C         24.1600  -22.7690  -10.7770 C.2     1  UNL1        0.2310
      9  O         23.5390  -21.8900  -11.3660 O.2     1  UNL1       -0.2720
     10  H         24.2290  -24.3750   -9.5060 H       1  UNL1        0.1690
     11  C         25.5960  -23.0920  -11.1550 C.3     1  UNL1        0.1850
     12  S         26.0410  -22.3540  -12.7520 S.3     1  UNL1       -0.0800
     13  C         26.0970  -23.7440  -13.7720 C.ar    1  UNL1        0.1980
     14  N         26.7060  -24.8770  -13.5090 N.ar    1  UNL1       -0.1350
     15  N         26.5500  -25.6560  -14.6280 N.ar    1  UNL1        0.0180
     16  N         25.8540  -25.0180  -15.5570 N.ar    1  UNL1       -0.0020
     17  N         25.5450  -23.8180  -15.0210 N.ar    1  UNL1       -0.2490
     18  C         24.8260  -22.8190  -15.7860 C.3     1  UNL1        0.1080
     19  C         23.8100  -23.4020  -16.7880 C.3     1  UNL1        0.0270
     20  C         24.4690  -23.2270  -18.1530 C.3     1  UNL1        0.0020
     21  C         25.1710  -21.8880  -18.0170 C.3     1  UNL1        0.0020
     22  C         25.7830  -21.9500  -16.6220 C.3     1  UNL1        0.0270
     23  C         18.7020  -22.8020   -7.0510 C.ar    1  UNL1        0.1390
     24  N         17.5260  -22.7400   -7.6490 N.ar    1  UNL1       -0.2280
     25  C         16.5960  -22.5600   -6.6560 C.ar    1  UNL1        0.0860
     26  C         15.2020  -22.4440   -6.7340 C.2     1  UNL1        0.0340
     27  C         17.2100  -22.5120   -5.4120 C.ar    1  UNL1        0.0620
     28  C         14.4730  -22.2750   -5.5490 C.2     1  UNL1        0.0020
     29  C         15.1190  -22.2250   -4.3130 C.2     1  UNL1        0.0020
     30  C         16.5110  -22.3440   -4.2150 C.2     1  UNL1        0.0320
     31  N         18.5400  -22.6840   -5.6900 N.ar    1  UNL1       -0.3380
     32  H         19.2720  -22.7630   -4.9990 H       1  UNL1        0.1670
@<TRIPOS>BOND
     1    20    21    1
     2    20    19    1
     3    21    22    1
     4    19    18    1
     5    22    18    1
     6    18    17    1
     7    16    17   ar
     8    16    15   ar
     9    17    13   ar
    10    15    14   ar
    11    13    14   ar
    12    13    12    1
    13    12    11    1
    14     9     8    2
    15    11     8    1
    16     8     7   am
    17     7    10    1
    18     7     1    1
    19     2     1    2
    20     2     3    1
    21     1     6    1
    22     3     4    2
    23     6     5    2
    24     4     5    1
    25     4    23    1
    26    24    23   ar
    27    24    25   ar
    28    23    31   ar
    29    26    25    2
    30    26    28    1
    31    25    27   ar
    32    31    27   ar
    33    31    32    1
    34    28    29    2
    35    27    30    2
    36    29    30    1
