@<TRIPOS>MOLECULE
24662_out_ligand_01.pdbqt
 32 35 0 0 0
SMALL
GASTEIGER

@<TRIPOS>ATOM
      1  C         22.2350  -22.3840  -11.0010 C.2     1  UNL1       -0.0190
      2  C         21.7900  -21.6600  -12.1190 C.2     1  UNL1        0.0100
      3  C         20.4620  -21.2370  -12.2130 C.2     1  UNL1        0.0030
      4  C         19.5510  -21.5290  -11.1970 C.2     1  UNL1        0.0290
      5  C         19.9590  -22.2480  -10.0770 C.2     1  UNL1        0.0350
      6  C         21.2940  -22.6700   -9.9890 C.2     1  UNL1        0.0390
      7  N         19.1080  -22.5830   -9.0090 N.am    1  UNL1       -0.3220
      8  C         17.7340  -22.4770   -8.9600 C.2     1  UNL1        0.2770
      9  O         16.9640  -22.0930   -9.8250 O.2     1  UNL1       -0.2660
     10  H         19.5310  -23.0170   -8.1950 H       1  UNL1        0.1690
     11  C         17.1800  -22.9460   -7.6140 C.ar    1  UNL1        0.1560
     12  N         16.2860  -23.8940   -7.6720 N.ar    1  UNL1       -0.1660
     13  N         15.7430  -24.3320   -6.5010 N.ar    1  UNL1       -0.2420
     14  C         16.0250  -23.8470   -5.2460 C.ar    1  UNL1        0.2720
     15  H         15.0170  -25.0400   -6.5690 H       1  UNL1        0.1920
     16  O         15.4550  -24.2580   -4.2420 O.2     1  UNL1       -0.2660
     17  C         17.0670  -22.8100   -5.1720 C.ar    1  UNL1        0.0460
     18  C         17.4630  -22.3020   -3.9280 C.2     1  UNL1        0.0180
     19  C         17.6650  -22.3560   -6.3490 C.ar    1  UNL1        0.0160
     20  C         18.4710  -21.3410   -3.8620 C.2     1  UNL1        0.0010
     21  C         19.0830  -20.8960   -5.0330 C.2     1  UNL1        0.0010
     22  C         18.6860  -21.4020   -6.2760 C.2     1  UNL1        0.0150
     23  C         23.6740  -22.8750  -10.8650 C.3     1  UNL1        0.1390
     24  C         23.9340  -23.5550   -9.5200 C.3     1  UNL1        0.0540
     25  N         24.0880  -23.7490  -11.9460 N.am    1  UNL1       -0.3210
     26  C         25.1370  -23.2450  -12.6700 C.2     1  UNL1        0.3240
     27  H         23.7190  -24.6710  -12.1340 H       1  UNL1        0.1650
     28  O         25.6820  -23.8150  -13.5990 O.2     1  UNL1       -0.2470
     29  N         25.4690  -22.0350  -12.1700 N.am    1  UNL1       -0.2770
     30  C         24.7030  -21.7340  -11.0860 C.2     1  UNL1        0.2580
     31  H         26.2310  -21.4730  -12.5130 H       1  UNL1        0.1730
     32  O         24.8420  -20.7300  -10.4020 O.2     1  UNL1       -0.2700
@<TRIPOS>BOND
     1    28    26    2
     2    26    29   am
     3    26    25   am
     4    31    29    1
     5     3     2    1
     6     3     4    2
     7    29    30   am
     8    27    25    1
     9     2     1    2
    10    25    23    1
    11     4     5    1
    12    30    23    1
    13    30    32    2
    14     1    23    1
    15     1     6    1
    16    23    24    1
    17     5     6    2
    18     5     7    1
    19     9     8    2
    20     7     8   am
    21     7    10    1
    22     8    11    1
    23    12    11   ar
    24    12    13   ar
    25    11    19   ar
    26    15    13    1
    27    13    14   ar
    28    19    22    1
    29    19    17   ar
    30    22    21    2
    31    14    17   ar
    32    14    16    2
    33    17    18    1
    34    21    20    1
    35    18    20    2
