@<TRIPOS>MOLECULE
24664_out_ligand_01.pdbqt
 37 40 0 0 0
SMALL
GASTEIGER

@<TRIPOS>ATOM
      1  C         17.1560  -22.9520   -8.9190 C.2     1  UNL1        0.0760
      2  C         16.6220  -21.9780   -9.7670 C.2     1  UNL1        0.0250
      3  C         17.3870  -21.5040  -10.8310 C.2     1  UNL1        0.0030
      4  C         18.6720  -22.0070  -11.0450 C.2     1  UNL1        0.0240
      5  C         19.1990  -22.9730  -10.1850 C.2     1  UNL1        0.0240
      6  C         18.4470  -23.4510   -9.1150 C.2     1  UNL1        0.0490
      7  N         20.4720  -23.5440  -10.4580 N.pl3   1  UNL1       -0.1810
      8  H         20.7350  -23.6460  -11.4400 H       1  UNL1        0.1460
      9  S         21.7880  -22.9690   -9.5590 S.O2    1  UNL1        0.2460
     10  O         22.4540  -24.0800   -8.9140 O.2     1  UNL1       -0.2060
     11  O         21.2950  -21.8410   -8.7980 O.2     1  UNL1       -0.2060
     12  C         22.8580  -22.3190  -10.8210 C.2     1  UNL1        0.0770
     13  C         24.1940  -21.9940  -10.4870 C.2     1  UNL1        0.0270
     14  C         25.0630  -21.4940  -11.4610 C.2     1  UNL1        0.0340
     15  C         24.5510  -21.3500  -12.7290 C.ar    1  UNL1        0.0710
     16  N         25.1320  -20.8960  -13.8760 N.ar    1  UNL1       -0.3000
     17  C         23.2500  -21.6760  -13.0600 C.ar    1  UNL1        0.1090
     18  C         24.1900  -20.9520  -14.8770 C.ar    1  UNL1        0.3700
     19  H         26.0760  -20.5750  -14.0140 H       1  UNL1        0.1710
     20  O         24.3820  -20.6140  -16.0350 O.2     1  UNL1       -0.2380
     21  O         22.9690  -21.4450  -14.3970 O.2     1  UNL1       -0.2590
     22  C         22.3700  -22.1730  -12.1260 C.2     1  UNL1        0.0640
     23  S         16.1890  -23.5880   -7.5740 S.O2    1  UNL1        0.2450
     24  O         15.3820  -22.4850   -7.0980 O.2     1  UNL1       -0.2060
     25  O         15.5920  -24.8400   -7.9870 O.2     1  UNL1       -0.2060
     26  N         17.3600  -23.9010   -6.3790 N.pl3   1  UNL1       -0.1800
     27  H         18.1250  -24.4170   -6.8380 H       1  UNL1        0.1460
     28  C         17.8000  -22.7670   -5.6130 C.2     1  UNL1        0.0390
     29  C         18.8150  -21.9670   -6.1470 C.2     1  UNL1        0.0250
     30  C         19.3420  -20.9080   -5.4070 C.2     1  UNL1        0.0020
     31  C         18.8640  -20.6460   -4.1240 C.2     1  UNL1        0.0010
     32  C         17.8490  -21.4370   -3.5820 C.2     1  UNL1        0.0200
     33  C         17.3100  -22.5010   -4.3210 C.2     1  UNL1        0.0590
     34  C         16.1990  -23.3140   -3.7710 C.2     1  UNL1        0.1780
     35  O         16.3130  -24.4340   -3.3030 O.2     1  UNL1       -0.6460
     36  O         15.0080  -22.6970   -3.8380 O.3     1  UNL1       -0.7730
     37  H         15.2100  -21.7590   -3.6350 H       1  UNL1        0.1670
@<TRIPOS>BOND
     1    20    18    2
     2    18    21   ar
     3    18    16   ar
     4    21    17   ar
     5    19    16    1
     6    16    15   ar
     7    17    15   ar
     8    17    22    1
     9    15    14    1
    10    22    12    2
    11    14    13    2
    12     8     7    1
    13     4     3    2
    14     4     5    1
    15     3     2    1
    16    12    13    1
    17    12     9    1
    18     7     5    1
    19     7     9    1
    20     5     6    2
    21     2     1    2
    22     9    10    2
    23     9    11    2
    24     6     1    1
    25     1    23    1
    26    25    23    2
    27    23    24    2
    28    23    26    1
    29    27    26    1
    30    26    28    1
    31    29    28    2
    32    29    30    1
    33    28    33    1
    34    30    31    2
    35    33    34    1
    36    33    32    2
    37    31    32    1
    38    36    34    1
    39    36    37    1
    40    34    35    2
