@<TRIPOS>MOLECULE
24666_out_ligand_01.pdbqt
 32 35 0 0 0
SMALL
GASTEIGER

@<TRIPOS>ATOM
      1  C         17.4370  -22.5820   -5.5840 C.2     1  UNL1        0.0540
      2  C         17.3360  -23.0760   -4.2760 C.2     1  UNL1        0.0190
      3  C         16.0960  -23.4770   -3.7760 C.2     1  UNL1        0.0010
      4  C         14.9580  -23.3940   -4.5790 C.2     1  UNL1        0.0020
      5  C         15.0550  -22.9150   -5.8870 C.2     1  UNL1        0.0250
      6  C         16.2940  -22.5200   -6.3990 C.2     1  UNL1        0.0380
      7  N         16.3430  -21.9580   -7.7190 N.pl3   1  UNL1       -0.1800
      8  H         15.5620  -21.3130   -7.9190 H       1  UNL1        0.1460
      9  S         16.4470  -23.0690   -8.9990 S.O2    1  UNL1        0.2460
     10  O         17.1020  -24.2740   -8.5340 O.2     1  UNL1       -0.2060
     11  O         15.1530  -23.1070   -9.6420 O.2     1  UNL1       -0.2060
     12  C         17.5450  -22.2320  -10.1220 C.2     1  UNL1        0.0770
     13  C         17.1270  -21.0340  -10.7480 C.2     1  UNL1        0.0270
     14  C         17.9830  -20.3640  -11.6280 C.2     1  UNL1        0.0340
     15  C         19.2200  -20.9290  -11.8350 C.ar    1  UNL1        0.0710
     16  N         20.2590  -20.5240  -12.6210 N.ar    1  UNL1       -0.3000
     17  C         19.6330  -22.0940  -11.2210 C.ar    1  UNL1        0.1090
     18  C         21.2780  -21.4370  -12.4740 C.ar    1  UNL1        0.3700
     19  H         20.3190  -19.7100  -13.2090 H       1  UNL1        0.1710
     20  O         22.3580  -21.3730  -13.0430 O.2     1  UNL1       -0.2380
     21  O         20.9180  -22.4610  -11.5870 O.2     1  UNL1       -0.2590
     22  C         18.8170  -22.7760  -10.3480 C.2     1  UNL1        0.0640
     23  C         18.7580  -22.1740   -6.1320 C.2     1  UNL1        0.2580
     24  O         19.1970  -21.0780   -5.8010 O.2     1  UNL1       -0.2670
     25  N         19.3700  -23.1160   -6.9350 N.am    1  UNL1       -0.3230
     26  H         18.9510  -24.0370   -6.9610 H       1  UNL1        0.1690
     27  C         20.5950  -22.9860   -7.6230 C.2     1  UNL1        0.0350
     28  C         21.0150  -24.0780   -8.3950 C.2     1  UNL1        0.0290
     29  C         22.2130  -24.0240   -9.1140 C.2     1  UNL1        0.0020
     30  C         23.0010  -22.8780   -9.0690 C.2     1  UNL1        0.0000
     31  C         22.5900  -21.7860   -8.3070 C.2     1  UNL1        0.0020
     32  C         21.3900  -21.8390   -7.5880 C.2     1  UNL1        0.0290
@<TRIPOS>BOND
     1    19    16    1
     2    20    18    2
     3    16    18   ar
     4    16    15   ar
     5    18    21   ar
     6    15    14    2
     7    15    17   ar
     8    14    13    1
     9    21    17   ar
    10    17    22    2
    11    13    12    2
    12    22    12    1
    13    12     9    1
    14    11     9    2
    15    29    30    2
    16    29    28    1
    17    30    31    1
    18     9    10    2
    19     9     7    1
    20    28    27    2
    21    31    32    2
    22     8     7    1
    23     7     6    1
    24    27    32    1
    25    27    25    1
    26    26    25    1
    27    25    23   am
    28     6     5    1
    29     6     1    2
    30    23    24    2
    31    23     1    1
    32     5     4    2
    33     1     2    1
    34     4     3    1
    35     2     3    2
