@<TRIPOS>MOLECULE
24663_out_ligand_01.pdbqt
 43 46 0 0 0
SMALL
GASTEIGER

@<TRIPOS>ATOM
      1  N         18.8130  -22.5810   -6.3380 N.am    1  UNL1       -0.3230
      2  C         18.0350  -22.0330   -5.3370 C.2     1  UNL1        0.2580
      3  O         18.3010  -21.0760   -4.6220 O.2     1  UNL1       -0.2670
      4  H         18.5160  -23.4790   -6.7020 H       1  UNL1        0.1690
      5  C         20.0550  -22.1060   -6.8100 C.2     1  UNL1        0.0350
      6  C         20.5700  -20.9560   -6.1970 C.2     1  UNL1        0.0290
      7  C         21.7960  -20.4170   -6.5940 C.2     1  UNL1        0.0030
      8  C         22.5300  -21.0340   -7.6040 C.2     1  UNL1        0.0170
      9  C         22.0360  -22.1960   -8.2100 C.2     1  UNL1        0.0340
     10  C         20.7930  -22.7210   -7.8230 C.2     1  UNL1        0.0460
     11  C         22.8010  -22.8840   -9.2860 C.2     1  UNL1        0.2560
     12  O         22.4780  -24.0210   -9.5990 O.2     1  UNL1       -0.2670
     13  N         23.8480  -22.1410   -9.8060 N.am    1  UNL1       -0.3230
     14  H         24.0550  -21.2650   -9.3470 H       1  UNL1        0.1690
     15  C         24.7200  -22.5110  -10.8500 C.2     1  UNL1        0.0350
     16  C         25.9400  -23.1600  -10.6560 C.2     1  UNL1        0.0290
     17  C         26.7450  -23.5020  -11.7470 C.2     1  UNL1        0.0030
     18  C         26.3380  -23.1990  -13.0440 C.2     1  UNL1        0.0160
     19  C         25.1200  -22.5430  -13.2640 C.2     1  UNL1        0.0500
     20  C         24.3150  -22.2130  -12.1580 C.2     1  UNL1        0.0450
     21  C         24.6550  -22.2320  -14.6640 C.3     1  UNL1        0.4170
     22  F         25.4100  -21.2650  -15.2560 F       1  UNL1       -0.1660
     23  F         23.3680  -21.7890  -14.7200 F       1  UNL1       -0.1660
     24  F         24.7140  -23.3100  -15.4950 F       1  UNL1       -0.1660
     25  C         16.7500  -22.7370   -5.0960 C.2     1  UNL1        0.0540
     26  C         16.4320  -23.1960   -3.8110 C.2     1  UNL1        0.0190
     27  C         15.2310  -23.8740   -3.5930 C.2     1  UNL1        0.0010
     28  C         14.3520  -24.0990   -4.6540 C.2     1  UNL1        0.0020
     29  C         14.6710  -23.6500   -5.9380 C.2     1  UNL1        0.0250
     30  C         15.8750  -22.9810   -6.1680 C.2     1  UNL1        0.0380
     31  N         16.1290  -22.4520   -7.4760 N.pl3   1  UNL1       -0.1800
     32  H         15.3740  -21.8570   -7.8490 H       1  UNL1        0.1460
     33  S         16.5690  -23.5790   -8.6670 S.O2    1  UNL1        0.2480
     34  O         15.3630  -24.0460   -9.3090 O.2     1  UNL1       -0.2050
     35  O         17.5160  -24.5140   -8.0890 O.2     1  UNL1       -0.2050
     36  C         17.4340  -22.5900   -9.8430 C.2     1  UNL1        0.1130
     37  C         16.8570  -21.4150  -10.3410 C.2     1  UNL1        0.0310
     38  C         17.5630  -20.6470  -11.2670 C.2     1  UNL1        0.0440
     39  C         18.8290  -21.0570  -11.6790 C.2     1  UNL1        0.1190
     40  F         19.5010  -20.3170  -12.5710 F       1  UNL1       -0.2060
     41  C         19.4060  -22.2210  -11.1850 C.2     1  UNL1        0.0860
     42  C         18.7010  -22.9850  -10.2610 C.2     1  UNL1        0.1420
     43  F         19.2620  -24.1120   -9.8060 F       1  UNL1       -0.2040
@<TRIPOS>BOND
     1    24    21    1
     2    22    21    1
     3    23    21    1
     4    21    19    1
     5    19    18    2
     6    19    20    1
     7    18    17    1
     8    40    39    1
     9    20    15    2
    10    17    16    2
    11    39    38    2
    12    39    41    1
    13    38    37    1
    14    41    42    2
    15    15    16    1
    16    15    13    1
    17    37    36    2
    18    42    36    1
    19    42    43    1
    20    36    33    1
    21    13    14    1
    22    13    11   am
    23    12    11    2
    24    34    33    2
    25    11     9    1
    26    33    35    2
    27    33    31    1
    28     9    10    1
    29     9     8    2
    30    32    31    1
    31    10     5    2
    32     8     7    1
    33    31    30    1
    34     5     1    1
    35     5     6    1
    36     4     1    1
    37     7     6    2
    38     1     2   am
    39    30    29    1
    40    30    25    2
    41    29    28    2
    42     2    25    1
    43     2     3    2
    44    25    26    1
    45    28    27    1
    46    26    27    2
