@<TRIPOS>MOLECULE
24668_out_ligand_01.pdbqt
 28 30 0 0 0
SMALL
GASTEIGER

@<TRIPOS>ATOM
      1  C         18.9000  -22.4920   -9.6580 C.2     1  UNL1        0.0340
      2  C         18.0540  -21.8070  -10.5340 C.2     1  UNL1        0.0170
      3  C         18.5770  -21.2480  -11.7000 C.2     1  UNL1        0.0030
      4  C         19.9400  -21.3630  -11.9900 C.2     1  UNL1        0.0290
      5  C         20.7990  -22.0280  -11.1140 C.2     1  UNL1        0.0360
      6  C         20.2710  -22.5870   -9.9440 C.2     1  UNL1        0.0460
      7  C         18.4010  -23.1080   -8.3950 C.2     1  UNL1        0.2560
      8  O         18.8910  -24.1700   -8.0320 O.2     1  UNL1       -0.2670
      9  N         17.3810  -22.4210   -7.7680 N.am    1  UNL1       -0.3200
     10  H         16.9800  -21.6200   -8.2460 H       1  UNL1        0.1690
     11  C         16.7440  -22.7550   -6.5510 C.2     1  UNL1        0.0760
     12  C         15.5580  -23.4810   -6.4540 C.2     1  UNL1        0.0740
     13  C         15.0200  -23.7560   -5.1970 C.2     1  UNL1        0.1180
     14  F         13.8810  -24.4550   -5.1070 F       1  UNL1       -0.2060
     15  C         15.6420  -23.3230   -4.0280 C.2     1  UNL1        0.0450
     16  C         16.8280  -22.6000   -4.1140 C.2     1  UNL1        0.0470
     17  C         17.3670  -22.3250   -5.3690 C.2     1  UNL1        0.1430
     18  F         18.5120  -21.6290   -5.4430 F       1  UNL1       -0.2040
     19  N         22.1830  -22.1740  -11.3250 N.am    1  UNL1       -0.3210
     20  C         23.2270  -21.6930  -10.5550 C.2     1  UNL1        0.2800
     21  O         23.1100  -21.0310   -9.5290 O.2     1  UNL1       -0.2650
     22  H         22.4690  -22.7040  -12.1430 H       1  UNL1        0.1690
     23  C         24.5280  -22.0540  -11.0900 C.2     1  UNL1        0.1440
     24  C         25.7970  -21.6100  -10.7740 C.2     1  UNL1        0.0460
     25  C         26.6960  -22.3070  -11.6170 C.2     1  UNL1        0.0480
     26  C         25.9240  -23.1340  -12.4000 C.2     1  UNL1        0.1220
     27 BR         26.5860  -24.3200  -13.7320 Br      1  UNL1       -0.0230
     28  O         24.6080  -22.9900  -12.0900 O.2     1  UNL1       -0.2980
@<TRIPOS>BOND
     1    27    26    1
     2    26    28    1
     3    26    25    2
     4    22    19    1
     5    28    23    1
     6     4     3    2
     7     4     5    1
     8     3     2    1
     9    25    24    1
    10    19     5    1
    11    19    20   am
    12     5     6    2
    13    23    24    2
    14    23    20    1
    15    20    21    2
    16     2     1    2
    17     6     1    1
    18     1     7    1
    19     7     8    2
    20     7     9   am
    21    10     9    1
    22     9    11    1
    23    11    12    2
    24    11    17    1
    25    12    13    1
    26    18    17    1
    27    17    16    2
    28    13    14    1
    29    13    15    2
    30    16    15    1
