@<TRIPOS>MOLECULE
24676_out_ligand_01.pdbqt
 42 45 0 0 0
SMALL
GASTEIGER

@<TRIPOS>ATOM
      1  N         22.2300  -22.7480  -10.8070 N.am    1  UNL1       -0.3230
      2  C         23.2570  -22.1060  -10.1400 C.2     1  UNL1        0.2580
      3  O         23.1820  -21.0500   -9.5190 O.2     1  UNL1       -0.2670
      4  H         22.4900  -23.5130  -11.4170 H       1  UNL1        0.1690
      5  C         20.8700  -22.3740  -10.8410 C.2     1  UNL1        0.0360
      6  C         20.3210  -21.5080  -11.7830 C.2     1  UNL1        0.0300
      7  C         18.9600  -21.1800  -11.7440 C.2     1  UNL1        0.0100
      8  C         18.1150  -21.6940  -10.7510 C.2     1  UNL1       -0.0390
      9  C         16.6620  -21.3110  -10.7760 C.3     1  UNL1        0.0500
     10  C         18.6740  -22.5610   -9.7970 C.2     1  UNL1        0.0870
     11  C         20.0390  -22.9020   -9.8500 C.2     1  UNL1        0.0550
     12  S         17.7100  -23.2660   -8.4720 S.O2    1  UNL1        0.2630
     13  O         18.5400  -24.1940   -7.7320 O.2     1  UNL1       -0.2000
     14  O         16.4380  -23.6880   -9.0140 O.2     1  UNL1       -0.2000
     15  N         17.3900  -21.9250   -7.4850 N.pl3   1  UNL1       -0.2810
     16  H         16.5760  -21.4170   -7.8300 H       1  UNL1        0.1790
     17  C         17.5160  -22.0920   -6.0780 C.2     1  UNL1        0.0440
     18  C         18.4960  -21.3820   -5.3830 C.2     1  UNL1        0.0300
     19  C         18.5910  -21.5030   -3.9960 C.2     1  UNL1        0.0040
     20  C         17.7000  -22.3250   -3.3070 C.2     1  UNL1        0.0240
     21  C         16.7160  -23.0210   -4.0080 C.2     1  UNL1        0.0360
     22 CL         15.6050  -24.0190   -3.1530 Cl      1  UNL1       -0.0840
     23  C         16.6170  -22.9080   -5.3930 C.2     1  UNL1        0.0540
     24  C         24.5950  -22.7560  -10.2440 C.2     1  UNL1        0.0540
     25  C         24.9510  -23.8120   -9.3910 C.2     1  UNL1        0.0190
     26  C         26.2050  -24.4150   -9.5090 C.2     1  UNL1        0.0010
     27  C         27.1090  -23.9660  -10.4710 C.2     1  UNL1        0.0020
     28  C         26.7720  -22.9030  -11.3100 C.2     1  UNL1        0.0250
     29  C         25.5280  -22.2810  -11.1850 C.2     1  UNL1        0.0380
     30  N         25.1940  -21.2220  -12.1020 N.pl3   1  UNL1       -0.1800
     31  H         24.4810  -20.5960  -11.6900 H       1  UNL1        0.1460
     32  S         24.6530  -21.7760  -13.6190 S.O2    1  UNL1        0.2460
     33  O         23.2140  -21.6040  -13.6590 O.2     1  UNL1       -0.2060
     34  O         25.2530  -23.0620  -13.8940 O.2     1  UNL1       -0.2060
     35  C         25.3840  -20.5600  -14.7070 C.2     1  UNL1        0.0810
     36  C         25.9670  -19.4270  -14.1140 C.2     1  UNL1        0.0280
     37  C         26.5440  -18.4380  -14.9090 C.2     1  UNL1        0.0440
     38  C         26.5290  -18.5810  -16.2900 C.2     1  UNL1        0.1170
     39  F         27.0770  -17.6290  -17.0570 F       1  UNL1       -0.2060
     40  C         25.9540  -19.6970  -16.8890 C.2     1  UNL1        0.0500
     41  C         25.3760  -20.7150  -16.1090 C.2     1  UNL1       -0.0360
     42  C         24.7560  -21.8890  -16.8110 C.3     1  UNL1        0.0500
@<TRIPOS>BOND
     1    39    38    1
     2    40    38    2
     3    40    41    1
     4    42    41    1
     5    38    37    1
     6    41    35    2
     7    37    36    2
     8    35    36    1
     9    35    32    1
    10    34    32    2
    11    33    32    2
    12    32    30    1
    13    30    31    1
    14    30    29    1
    15     6     7    1
    16     6     5    2
    17     7     8    2
    18     4     1    1
    19    28    29    1
    20    28    27    2
    21    29    24    2
    22     5     1    1
    23     5    11    1
    24     1     2   am
    25     9     8    1
    26     8    10    1
    27    27    26    1
    28    24     2    1
    29    24    25    1
    30     2     3    2
    31    11    10    2
    32    10    12    1
    33    26    25    2
    34    14    12    2
    35    12    13    2
    36    12    15    1
    37    16    15    1
    38    15    17    1
    39    17    23    2
    40    17    18    1
    41    23    21    1
    42    18    19    2
    43    21    20    2
    44    21    22    1
    45    19    20    1
