@<TRIPOS>MOLECULE
24681_out_ligand_01.pdbqt
 33 36 0 0 0
SMALL
GASTEIGER

@<TRIPOS>ATOM
      1  C         17.0430  -22.4770   -5.1020 C.2     1  UNL1        0.0540
      2  C         16.7910  -23.0250   -3.8340 C.2     1  UNL1        0.0190
      3  C         15.6390  -23.7830   -3.6150 C.2     1  UNL1        0.0010
      4  C         14.7430  -24.0100   -4.6590 C.2     1  UNL1        0.0020
      5  C         14.9960  -23.4860   -5.9280 C.2     1  UNL1        0.0250
      6  C         16.1480  -22.7280   -6.1580 C.2     1  UNL1        0.0380
      7  N         16.3370  -22.1480   -7.4590 N.pl3   1  UNL1       -0.1800
      8  H         15.6180  -21.4460   -7.6970 H       1  UNL1        0.1460
      9  S         16.4480  -23.2340   -8.7580 S.O2    1  UNL1        0.2460
     10  O         17.1660  -24.4190   -8.3400 O.2     1  UNL1       -0.2060
     11  O         15.1350  -23.3180   -9.3600 O.2     1  UNL1       -0.2060
     12  C         17.4680  -22.3320   -9.9030 C.2     1  UNL1        0.0770
     13  C         16.9500  -21.1550  -10.4940 C.2     1  UNL1        0.0270
     14  C         17.7250  -20.4200  -11.3970 C.2     1  UNL1        0.0340
     15  C         18.9830  -20.9070  -11.6690 C.ar    1  UNL1        0.0710
     16  N         19.9610  -20.4290  -12.4870 N.ar    1  UNL1       -0.3000
     17  C         19.4860  -22.0610  -11.1020 C.ar    1  UNL1        0.1090
     18  C         21.0340  -21.2850  -12.4110 C.ar    1  UNL1        0.3700
     19  H         19.9430  -19.6060  -13.0670 H       1  UNL1        0.1710
     20  O         22.0830  -21.1470  -13.0190 O.2     1  UNL1       -0.2380
     21  O         20.7710  -22.3450  -11.5330 O.2     1  UNL1       -0.2590
     22  C         18.7490  -22.8080  -10.2110 C.2     1  UNL1        0.0640
     23  C         18.2820  -21.6920   -5.3520 C.2     1  UNL1        0.2530
     24  O         18.5560  -20.7470   -4.6170 O.2     1  UNL1       -0.2680
     25  N         19.0610  -22.0960   -6.4090 N.am    1  UNL1       -0.3530
     26  H         18.8510  -22.9530   -6.9000 H       1  UNL1        0.1630
     27  C         20.2650  -21.3970   -6.7980 C.3     1  UNL1        0.1610
     28  C         21.1250  -22.2920   -7.6500 C.2     1  UNL1       -0.0410
     29  C         20.7040  -23.5830   -7.9950 C.2     1  UNL1        0.0090
     30  C         21.5080  -24.3940   -8.8010 C.2     1  UNL1        0.0010
     31  C         22.7320  -23.9220   -9.2720 C.2     1  UNL1        0.0000
     32  C         23.1530  -22.6340   -8.9470 C.2     1  UNL1        0.0010
     33  C         22.3550  -21.8230   -8.1390 C.2     1  UNL1        0.0090
@<TRIPOS>BOND
     1    19    16    1
     2    20    18    2
     3    16    18   ar
     4    16    15   ar
     5    18    21   ar
     6    15    14    2
     7    15    17   ar
     8    21    17   ar
     9    14    13    1
    10    17    22    2
    11    13    12    2
    12    22    12    1
    13    12     9    1
    14    11     9    2
    15    31    32    2
    16    31    30    1
    17    32    33    1
    18    30    29    2
    19     9    10    2
    20     9     7    1
    21    33    28    2
    22    29    28    1
    23     8     7    1
    24    28    27    1
    25     7     6    1
    26    26    25    1
    27    27    25    1
    28    25    23   am
    29     6     5    1
    30     6     1    2
    31     5     4    2
    32    23     1    1
    33    23    24    2
    34     1     2    1
    35     4     3    1
    36     2     3    2
