@<TRIPOS>MOLECULE
24680_out_ligand_01.pdbqt
 42 45 0 0 0
SMALL
GASTEIGER

@<TRIPOS>ATOM
      1  N         21.5660  -22.4050  -10.8850 N.am    1  UNL1       -0.3230
      2  C         20.5820  -23.1250  -10.2330 C.2     1  UNL1        0.2580
      3  O         20.7270  -24.1620   -9.5930 O.2     1  UNL1       -0.2670
      4  H         21.2900  -21.5260  -11.3050 H       1  UNL1        0.1690
      5  C         22.9440  -22.7040  -10.9480 C.2     1  UNL1        0.0360
      6  C         23.7900  -22.7320   -9.8350 C.2     1  UNL1        0.0290
      7  C         25.1520  -23.0200   -9.9780 C.2     1  UNL1        0.0040
      8  C         25.6810  -23.3030  -11.2340 C.2     1  UNL1        0.0250
      9  C         24.8350  -23.3090  -12.3420 C.2     1  UNL1        0.0820
     10  C         23.4780  -22.9850  -12.2110 C.2     1  UNL1        0.0540
     11  S         25.4870  -23.7060  -13.9480 S.O2    1  UNL1        0.2630
     12  O         26.8860  -23.3250  -13.9550 O.2     1  UNL1       -0.2000
     13  O         25.0760  -25.0510  -14.2840 O.2     1  UNL1       -0.2000
     14  N         24.7060  -22.6010  -14.9620 N.pl3   1  UNL1       -0.2810
     15  H         24.1520  -23.0610  -15.6810 H       1  UNL1        0.1790
     16  C         25.3540  -21.3810  -15.2940 C.2     1  UNL1        0.0420
     17  C         25.3910  -20.3520  -14.3520 C.2     1  UNL1        0.0330
     18  C         25.9740  -19.1220  -14.6780 C.2     1  UNL1        0.0390
     19  C         26.5210  -18.9190  -15.9470 C.2     1  UNL1        0.0680
     20  C         26.4890  -19.9590  -16.8790 C.2     1  UNL1        0.0390
     21  C         25.9050  -21.1870  -16.5580 C.2     1  UNL1        0.0330
     22  O         27.1100  -17.7690  -16.3930 O.2     1  UNL1       -0.3560
     23  C         26.9010  -16.5940  -15.6190 C.3     1  UNL1        0.2100
     24  C         19.2100  -22.5560  -10.3210 C.2     1  UNL1        0.0540
     25  C         18.8580  -21.6910  -11.3690 C.2     1  UNL1        0.0190
     26  C         17.5630  -21.1780  -11.4460 C.2     1  UNL1        0.0010
     27  C         16.6130  -21.5290  -10.4890 C.2     1  UNL1        0.0020
     28  C         16.9490  -22.4040   -9.4530 C.2     1  UNL1        0.0250
     29  C         18.2410  -22.9310   -9.3730 C.2     1  UNL1        0.0380
     30  N         18.5690  -23.7700   -8.2560 N.pl3   1  UNL1       -0.1800
     31  H         19.4120  -23.4670   -7.7460 H       1  UNL1        0.1460
     32  S         17.3310  -24.0210   -7.1170 S.O2    1  UNL1        0.2460
     33  O         17.4710  -25.3580   -6.5720 O.2     1  UNL1       -0.2060
     34  O         16.0910  -23.6000   -7.7340 O.2     1  UNL1       -0.2060
     35  C         17.7340  -22.8350   -5.8430 C.2     1  UNL1        0.0810
     36  C         18.7840  -21.9360   -6.1050 C.2     1  UNL1        0.0320
     37  C         19.1590  -20.9800   -5.1560 C.2     1  UNL1       -0.0600
     38  C         20.2550  -20.0020   -5.4530 C.3     1  UNL1        0.0480
     39  C         18.4600  -20.9190   -3.9460 C.2     1  UNL1        0.0070
     40  C         17.4230  -21.8190   -3.6780 C.2     1  UNL1        0.0090
     41  C         17.0410  -22.7900   -4.6180 C.2     1  UNL1       -0.0390
     42  C         15.9400  -23.7450   -4.2520 C.3     1  UNL1        0.0500
@<TRIPOS>BOND
     1    20    21    1
     2    20    19    2
     3    21    16    2
     4    22    19    1
     5    22    23    1
     6    19    18    1
     7    15    14    1
     8    16    14    1
     9    16    17    1
    10    14    11    1
    11    18    17    2
    12    13    11    2
    13    12    11    2
    14    11     9    1
    15     9    10    1
    16     9     8    2
    17    10     5    2
    18    26    25    1
    19    26    27    2
    20    25    24    2
    21     4     1    1
    22     8     7    1
    23     5     1    1
    24     5     6    1
    25     1     2   am
    26    27    28    1
    27    24     2    1
    28    24    29    1
    29     2     3    2
    30     7     6    2
    31    28    29    2
    32    29    30    1
    33    30    31    1
    34    30    32    1
    35    34    32    2
    36    32    33    2
    37    32    35    1
    38    36    35    2
    39    36    37    1
    40    35    41    1
    41    38    37    1
    42    37    39    2
    43    41    42    1
    44    41    40    2
    45    39    40    1
