@<TRIPOS>MOLECULE
24689_out_ligand_01.pdbqt
 27 28 0 0 0
SMALL
GASTEIGER

@<TRIPOS>ATOM
      1  N         19.6830  -22.1330   -9.3210 N.am    1  UNL1       -0.3220
      2  C         19.2130  -23.2300   -8.6270 C.2     1  UNL1        0.2570
      3  O         19.5590  -24.3970   -8.7400 O.2     1  UNL1       -0.2670
      4  H         19.1950  -21.2580   -9.1840 H       1  UNL1        0.1690
      5  C         20.7520  -22.0970  -10.2510 C.2     1  UNL1        0.0420
      6  C         22.0390  -22.5500   -9.9330 C.2     1  UNL1        0.0470
      7  C         23.0730  -22.5040  -10.8780 C.2     1  UNL1        0.0340
      8  C         22.8340  -21.9790  -12.1490 C.2     1  UNL1        0.0170
      9  C         21.5600  -21.5150  -12.4750 C.2     1  UNL1        0.0100
     10  C         20.5110  -21.5710  -11.5410 C.2     1  UNL1       -0.0350
     11  C         19.1620  -21.0470  -11.9620 C.3     1  UNL1        0.0500
     12  C         24.4210  -22.9930  -10.4880 C.2     1  UNL1        0.2490
     13  N         24.5060  -23.7250   -9.3340 N.am    1  UNL1       -0.3660
     14  H         23.7790  -23.6930   -8.6350 H       1  UNL1        0.1590
     15  H         25.4470  -23.9200   -9.0160 H       1  UNL1        0.1590
     16  O         25.4230  -22.7330  -11.1390 O.2     1  UNL1       -0.2680
     17  C         18.0950  -22.9430   -7.6880 C.2     1  UNL1        0.0470
     18  C         18.4130  -22.9410   -6.3190 C.2     1  UNL1        0.0210
     19  C         17.4270  -22.6810   -5.3690 C.2     1  UNL1        0.0430
     20  C         16.1310  -22.4130   -5.7890 C.2     1  UNL1        0.1170
     21  F         15.1800  -22.1670   -4.8800 F       1  UNL1       -0.2060
     22  C         15.8060  -22.3920   -7.1430 C.2     1  UNL1        0.0590
     23  C         16.7890  -22.6440   -8.1170 C.2     1  UNL1        0.0660
     24  C         16.4230  -22.5900   -9.5760 C.3     1  UNL1        0.4180
     25  F         17.0770  -23.5000  -10.3380 F       1  UNL1       -0.1660
     26  F         15.0900  -22.8120   -9.7600 F       1  UNL1       -0.1660
     27  F         16.6710  -21.3790  -10.1460 F       1  UNL1       -0.1660
@<TRIPOS>BOND
     1     9     8    2
     2     9    10    1
     3     8     7    1
     4    11    10    1
     5    10     5    2
     6    16    12    2
     7     7    12    1
     8     7     6    2
     9    12    13   am
    10    25    24    1
    11     5     6    1
    12     5     1    1
    13    27    24    1
    14    26    24    1
    15    24    23    1
    16    13    15    1
    17    13    14    1
    18     1     4    1
    19     1     2   am
    20     3     2    2
    21     2    17    1
    22    23    17    2
    23    23    22    1
    24    17    18    1
    25    22    20    2
    26    18    19    2
    27    20    19    1
    28    20    21    1
