@<TRIPOS>MOLECULE
24722_out_ligand_01.pdbqt
 27 30 0 0 0
SMALL
GASTEIGER

@<TRIPOS>ATOM
      1  N         18.0700  -22.7070  -10.0500 N.pl3   1  UNL1       -0.3730
      2  C         17.8530  -21.3920  -10.6610 C.3     1  UNL1        0.1230
      3  C         18.8230  -21.1840  -11.8050 C.3     1  UNL1        0.0250
      4  C         20.2400  -21.2220  -11.2610 C.3     1  UNL1        0.0430
      5  C         20.4810  -22.4240  -10.3730 C.2     1  UNL1       -0.0160
      6  C         21.8050  -22.8370  -10.0900 C.2     1  UNL1        0.0400
      7  C         22.0450  -23.9540   -9.2820 C.2     1  UNL1        0.0180
      8  C         20.9770  -24.6660   -8.7580 C.2     1  UNL1        0.0030
      9  C         19.6690  -24.2540   -9.0240 C.2     1  UNL1        0.0300
     10  C         19.3800  -23.1210   -9.8110 C.2     1  UNL1        0.0370
     11  C         16.9080  -23.2870   -9.3490 C.3     1  UNL1        0.2010
     12  C         16.8890  -23.1690   -7.8540 C.ar    1  UNL1        0.1240
     13  N         16.0980  -23.9700   -7.0640 N.ar    1  UNL1       -0.3260
     14  C         16.3030  -23.6190   -5.7650 C.ar    1  UNL1        0.1580
     15  H         15.4730  -24.6910   -7.3920 H       1  UNL1        0.1690
     16  N         15.7190  -24.1660   -4.6860 N.2     1  UNL1       -0.2410
     17  C         17.2350  -22.5920   -5.8140 C.ar    1  UNL1        0.1100
     18  C         16.1420  -23.5890   -3.5370 C.2     1  UNL1        0.1190
     19  C         17.0690  -22.5530   -3.4370 C.2     1  UNL1        0.0280
     20  C         17.6520  -22.0170   -4.6000 C.2     1  UNL1       -0.0280
     21  C         18.6480  -20.9050   -4.5060 C.3     1  UNL1        0.0500
     22  N         17.5890  -22.3210   -7.1160 N.ar    1  UNL1       -0.2290
     23  C         22.9810  -22.0910  -10.6120 C.2     1  UNL1        0.2490
     24  N         23.4290  -22.4620  -11.8510 N.am    1  UNL1       -0.3660
     25  H         22.8710  -23.0370  -12.4670 H       1  UNL1        0.1590
     26  H         24.1470  -21.8820  -12.2630 H       1  UNL1        0.1590
     27  O         23.5160  -21.1860   -9.9890 O.2     1  UNL1       -0.2680
@<TRIPOS>BOND
     1    25    24    1
     2    26    24    1
     3    24    23   am
     4     3     4    1
     5     3     2    1
     6     4     5    1
     7     2     1    1
     8    23     6    1
     9    23    27    2
    10     5     6    2
    11     5    10    1
    12     6     7    1
    13     1    10    1
    14     1    11    1
    15    10     9    2
    16    11    12    1
    17     7     8    2
    18     9     8    1
    19    12    22   ar
    20    12    13   ar
    21    15    13    1
    22    22    17   ar
    23    13    14   ar
    24    17    14   ar
    25    17    20    1
    26    14    16    1
    27    16    18    2
    28    20    21    1
    29    20    19    2
    30    18    19    1
