@<TRIPOS>MOLECULE
24732_out_ligand_01.pdbqt
 30 32 0 0 0
SMALL
GASTEIGER

@<TRIPOS>ATOM
      1  C         19.3440  -21.9730  -10.8790 C.2     1  UNL1        0.0340
      2  C         18.5700  -21.1380  -11.7000 C.2     1  UNL1        0.0170
      3  C         17.2130  -20.9510  -11.4270 C.2     1  UNL1        0.0030
      4  C         16.6200  -21.6060  -10.3470 C.2     1  UNL1        0.0250
      5  C         17.3900  -22.4600   -9.5500 C.2     1  UNL1        0.0750
      6  C         18.7510  -22.6440   -9.8050 C.2     1  UNL1        0.0410
      7  C         20.7890  -22.1950  -11.1480 C.2     1  UNL1        0.2700
      8  O         21.3320  -21.5380  -12.0270 O.2     1  UNL1       -0.2670
      9  N         21.3570  -23.2510  -10.4580 N.am    1  UNL1       -0.1520
     10  H         20.7420  -23.8560   -9.9390 H       1  UNL1        0.1870
     11  C         22.6750  -23.3500  -10.1580 C.ar    1  UNL1        0.7280
     12  N         23.1970  -23.6530   -9.0100 N.ar    1  UNL1        0.0210
     13  N         24.5460  -23.6210   -9.2450 N.ar    1  UNL1       -0.2120
     14  C         24.7890  -23.2030  -10.5420 C.ar    1  UNL1        0.3550
     15  H         25.2240  -23.6470   -8.4950 H       1  UNL1        0.1940
     16  O         25.8550  -22.8900  -11.0390 O.2     1  UNL1       -0.2450
     17  N         23.5650  -23.1420  -11.1440 N.ar    1  UNL1       -0.1370
     18  H         23.4370  -22.6250  -11.9940 H       1  UNL1        0.1890
     19  S         16.6450  -23.2970   -8.1670 S.O2    1  UNL1        0.2460
     20  O         15.8320  -22.3230   -7.4710 O.2     1  UNL1       -0.2060
     21  O         16.0760  -24.5350   -8.6540 O.2     1  UNL1       -0.2060
     22  N         17.9620  -23.6410   -7.1670 N.pl3   1  UNL1       -0.1780
     23  H         17.9970  -24.6370   -6.9380 H       1  UNL1        0.1460
     24  C         18.2330  -22.7560   -6.0770 C.2     1  UNL1        0.0610
     25  C         19.0200  -21.6180   -6.2500 C.2     1  UNL1        0.0270
     26  C         19.2350  -20.7520   -5.1750 C.2     1  UNL1        0.0020
     27  C         18.6640  -21.0210   -3.9280 C.2     1  UNL1        0.0030
     28  C         17.8770  -22.1580   -3.7510 C.2     1  UNL1        0.0440
     29  C         17.6670  -23.0150   -4.8260 C.2     1  UNL1        0.1380
     30  F         16.9020  -24.1040   -4.6590 F       1  UNL1       -0.2040
@<TRIPOS>BOND
     1     8     7    2
     2    18    17    1
     3     2     3    1
     4     2     1    2
     5     3     4    2
     6     7     1    1
     7     7     9   am
     8    17    14   ar
     9    17    11   ar
    10    16    14    2
    11     1     6    1
    12    14    13   ar
    13     9    11    1
    14     9    10    1
    15     4     5    1
    16    11    12   ar
    17     6     5    2
    18     5    19    1
    19    13    12   ar
    20    13    15    1
    21    21    19    2
    22    19    20    2
    23    19    22    1
    24    22    23    1
    25    22    24    1
    26    25    24    2
    27    25    26    1
    28    24    29    1
    29    26    27    2
    30    29    30    1
    31    29    28    2
    32    27    28    1
