@<TRIPOS>MOLECULE
24775_out_ligand_01.pdbqt
 35 38 0 0 0
SMALL
GASTEIGER

@<TRIPOS>ATOM
      1  C         17.3460  -22.9420   -9.5230 C.2     1  UNL1        0.0620
      2  C         16.4120  -23.7000  -10.2430 C.2     1  UNL1        0.0610
      3  C         15.4250  -24.4040   -9.5630 C.2     1  UNL1        0.1180
      4  F         14.5430  -25.1290  -10.2610 F       1  UNL1       -0.2060
      5  C         15.3390  -24.3710   -8.1800 C.2     1  UNL1        0.0600
      6  C         16.2540  -23.5970   -7.4620 C.ar    1  UNL1        0.0450
      7  C         16.1700  -23.5450   -5.9790 C.ar    1  UNL1        0.1970
      8  O         15.3240  -24.2030   -5.3830 O.2     1  UNL1       -0.2860
      9  C         17.1170  -22.6800   -5.2340 C.ar    1  UNL1        0.0450
     10  C         17.0370  -22.5750   -3.8400 C.2     1  UNL1        0.0180
     11  C         17.9350  -21.7570   -3.1530 C.2     1  UNL1        0.0040
     12  C         18.9100  -21.0520   -3.8590 C.2     1  UNL1        0.0450
     13  C         18.9790  -21.1680   -5.2470 C.2     1  UNL1        0.1430
     14  F         19.9320  -20.4910   -5.9060 F       1  UNL1       -0.2040
     15  C         18.0790  -21.9650   -5.9580 C.ar    1  UNL1        0.0860
     16  N         18.1870  -22.1330   -7.3480 N.ar    1  UNL1       -0.3510
     17  C         17.2540  -22.8540   -8.1180 C.ar    1  UNL1        0.0630
     18  H         18.7110  -21.4070   -7.8510 H       1  UNL1        0.1660
     19  C         18.4120  -22.1890  -10.2450 C.2     1  UNL1        0.2580
     20  N         19.5870  -22.8880  -10.4560 N.am    1  UNL1       -0.3230
     21  H         19.6730  -23.7990  -10.0210 H       1  UNL1        0.1690
     22  O         18.1830  -21.0250  -10.5550 O.2     1  UNL1       -0.2670
     23  C         20.7320  -22.4440  -11.1510 C.2     1  UNL1        0.0350
     24  C         20.6930  -21.6240  -12.2790 C.2     1  UNL1        0.0290
     25  C         21.8750  -21.2480  -12.9200 C.2     1  UNL1        0.0030
     26  C         23.1080  -21.6880  -12.4440 C.2     1  UNL1        0.0080
     27  C         23.1740  -22.5120  -11.3140 C.2     1  UNL1       -0.0410
     28  C         21.9770  -22.8800  -10.6740 C.2     1  UNL1        0.0370
     29  C         24.5050  -22.9940  -10.7970 C.3     1  UNL1        0.1950
     30  S         25.5960  -23.4360  -12.1600 S.O2    1  UNL1        0.2110
     31  O         26.3890  -22.2960  -12.5630 O.2     1  UNL1       -0.2110
     32  O         24.8470  -24.2050  -13.1270 O.2     1  UNL1       -0.2110
     33  N         26.6700  -24.5260  -11.4780 N.3     1  UNL1       -0.2290
     34  H         27.5270  -24.0510  -11.1890 H       1  UNL1        0.1360
     35  H         26.8250  -25.3150  -12.1060 H       1  UNL1        0.1360
@<TRIPOS>BOND
     1    32    30    2
     2    25    26    2
     3    25    24    1
     4    31    30    2
     5    26    27    1
     6    24    23    2
     7    30    33    1
     8    30    29    1
     9    35    33    1
    10    33    34    1
    11    27    29    1
    12    27    28    2
    13    23    28    1
    14    23    20    1
    15    22    19    2
    16    20    19   am
    17    20    21    1
    18     4     3    1
    19    19     1    1
    20     2     3    1
    21     2     1    2
    22     3     5    2
    23     1    17    1
    24     5     6    1
    25    17     6   ar
    26    17    16   ar
    27    18    16    1
    28     6     7   ar
    29    16    15   ar
    30     7     8    2
    31     7     9   ar
    32    15    13    1
    33    15     9   ar
    34    14    13    1
    35    13    12    2
    36     9    10    1
    37    12    11    1
    38    10    11    2
