@<TRIPOS>MOLECULE
24778_out_ligand_01.pdbqt
 28 30 0 0 0
SMALL
GASTEIGER

@<TRIPOS>ATOM
      1  N         20.4730  -23.0530   -7.6980 N.pl3   1  UNL1       -0.2790
      2  H         21.2340  -22.5620   -7.2300 H       1  UNL1        0.1890
      3  C         19.2440  -22.9760   -7.0110 C.2     1  UNL1        0.0500
      4  C         18.8820  -21.8600   -6.2410 C.2     1  UNL1        0.0320
      5  C         17.6940  -21.8460   -5.5050 C.2     1  UNL1        0.0270
      6  C         16.8680  -22.9710   -5.5120 C.2     1  UNL1        0.0740
      7  C         17.2200  -24.1040   -6.2480 C.2     1  UNL1        0.0270
      8  C         18.4080  -24.1040   -6.9850 C.2     1  UNL1        0.0320
      9  S         15.3870  -22.9800   -4.5480 S.O2    1  UNL1        0.2390
     10  O         14.4000  -22.1590   -5.2050 O.2     1  UNL1       -0.2060
     11  O         15.1160  -24.3300   -4.1120 O.2     1  UNL1       -0.2060
     12  N         15.8370  -22.1580   -3.1530 N.3     1  UNL1       -0.2250
     13  H         16.1580  -21.2210   -3.3950 H       1  UNL1        0.1360
     14  H         16.5140  -22.7100   -2.6260 H       1  UNL1        0.1360
     15  N         20.7590  -24.1790   -8.4060 N.2     1  UNL1       -0.1860
     16  C         20.8080  -24.0760   -9.7030 C.2     1  UNL1        0.1530
     17  C         20.5100  -22.8920  -10.5410 C.2     1  UNL1        0.0270
     18  C         21.5790  -22.3430  -11.2610 C.2     1  UNL1        0.0780
     19  C         21.3880  -21.2180  -12.0520 C.2     1  UNL1        0.0380
     20  C         20.1170  -20.6500  -12.1410 C.2     1  UNL1        0.0150
     21  C         19.0210  -21.2040  -11.4600 C.2     1  UNL1       -0.0250
     22  C         17.7470  -20.6280  -11.5910 C.2     1  UNL1        0.0120
     23  C         19.2000  -22.3540  -10.6520 C.2     1  UNL1       -0.0110
     24  C         16.6400  -21.1780  -10.9440 C.2     1  UNL1        0.0010
     25  C         16.7930  -22.3150  -10.1640 C.2     1  UNL1        0.0010
     26  C         18.0530  -22.8990  -10.0250 C.2     1  UNL1        0.0130
     27  O         22.8170  -22.9170  -11.1870 O.2     1  UNL1       -0.3600
     28  H         23.2080  -22.7350  -10.3150 H       1  UNL1        0.2170
@<TRIPOS>BOND
     1    20    19    2
     2    20    21    1
     3    19    18    1
     4    22    21    2
     5    22    24    1
     6    21    23    1
     7    18    27    1
     8    18    17    2
     9    27    28    1
    10    24    25    2
    11    23    17    1
    12    23    26    2
    13    17    16    1
    14    25    26    1
    15    16    15    2
    16    15     1    1
    17     1     2    1
    18     1     3    1
    19     3     8    2
    20     3     4    1
    21     8     7    1
    22     7     6    2
    23     4     5    2
    24     6     5    1
    25     6     9    1
    26    10     9    2
    27     9    11    2
    28     9    12    1
    29    13    12    1
    30    12    14    1
