@<TRIPOS>MOLECULE
24795_out_ligand_01.pdbqt
 31 34 0 0 0
SMALL
GASTEIGER

@<TRIPOS>ATOM
      1  N         17.7230  -22.6350   -9.1090 N.pl3   1  UNL1       -0.2370
      2  N         17.0000  -22.3790  -10.2320 N.2     1  UNL1       -0.1780
      3  C         17.8810  -21.8940  -11.1020 C.2     1  UNL1        0.1580
      4  C         19.1980  -21.8640  -10.6040 C.2     1  UNL1        0.0760
      5  C         19.0830  -22.4500   -9.3500 C.2     1  UNL1        0.0580
      6  C         20.3560  -21.3810  -11.3470 C.2     1  UNL1        0.2600
      7  O         20.4540  -20.1930  -11.6320 O.2     1  UNL1       -0.2670
      8  N         21.2930  -22.3400  -11.6290 N.am    1  UNL1       -0.3070
      9  H         21.1580  -23.2770  -11.2820 H       1  UNL1        0.1700
     10  C         22.4920  -22.2130  -12.3260 C.2     1  UNL1        0.1310
     11  C         22.6600  -21.4530  -13.4740 C.2     1  UNL1        0.0500
     12  C         23.9180  -21.4030  -14.0710 C.2     1  UNL1        0.0060
     13  C         24.9700  -22.1200  -13.5110 C.2     1  UNL1        0.0370
     14  C         24.7140  -22.8680  -12.3690 C.2     1  UNL1        0.1260
     15  N         23.4960  -22.9190  -11.7730 N.2     1  UNL1       -0.2260
     16  C         25.7910  -23.6760  -11.7050 C.2     1  UNL1        0.2680
     17  N         25.9320  -23.5550  -10.3430 N.am    1  UNL1       -0.3650
     18  H         26.7550  -24.0050   -9.9600 H       1  UNL1        0.1590
     19  H         25.5690  -22.7600   -9.8360 H       1  UNL1        0.1590
     20  O         26.5520  -24.4040  -12.3330 O.2     1  UNL1       -0.2660
     21  C         20.2770  -22.8970   -8.4460 C.3     1  UNL1        0.0390
     22  C         21.4910  -22.0050   -8.3460 C.3     1  UNL1        0.0110
     23  C         20.5650  -22.1280   -7.1780 C.3     1  UNL1        0.0110
     24  C         17.0380  -23.0320   -7.9210 C.2     1  UNL1        0.0600
     25  C         17.4340  -24.1380   -7.1640 C.2     1  UNL1        0.0320
     26  C         16.7360  -24.4870   -6.0020 C.2     1  UNL1        0.0110
     27  C         15.6360  -23.7370   -5.5650 C.2     1  UNL1       -0.0400
     28  C         14.9120  -24.1420   -4.3120 C.3     1  UNL1        0.0500
     29  C         15.2530  -22.6160   -6.3150 C.2     1  UNL1        0.0420
     30  C         15.9490  -22.2640   -7.4760 C.2     1  UNL1        0.0560
     31 CL         13.9170  -21.6290   -5.8410 Cl      1  UNL1       -0.0840
@<TRIPOS>BOND
     1    12    13    2
     2    12    11    1
     3    13    14    1
     4    11    10    2
     5    14    15    2
     6    14    16    1
     7    20    16    2
     8    10    15    1
     9    10     8    1
    10    16    17   am
    11     7     6    2
    12     8     6   am
    13     8     9    1
    14     6     4    1
    15     3     4    1
    16     3     2    2
    17     4     5    2
    18    17    18    1
    19    17    19    1
    20     2     1    1
    21     5     1    1
    22     5    21    1
    23     1    24    1
    24    21    22    1
    25    21    23    1
    26    22    23    1
    27    24    30    2
    28    24    25    1
    29    30    29    1
    30    25    26    2
    31    29    31    1
    32    29    27    2
    33    26    27    1
    34    27    28    1
