@<TRIPOS>MOLECULE
24809_out_ligand_01.pdbqt
 43 47 0 0 0
SMALL
GASTEIGER

@<TRIPOS>ATOM
      1  C         22.4070  -22.2290  -10.9120 C.2     1  UNL1        0.0800
      2  C         22.2570  -21.3350  -11.9820 C.2     1  UNL1        0.0280
      3  C         20.9870  -20.8910  -12.3640 C.2     1  UNL1        0.0400
      4  C         19.9060  -21.3920  -11.6410 C.ar    1  UNL1        0.0870
      5  O         18.6000  -21.0770  -11.8620 O.2     1  UNL1       -0.3090
      6  C         17.8620  -21.7800  -10.9600 C.ar    1  UNL1        0.0870
      7  C         16.4720  -21.7390  -10.8530 C.2     1  UNL1        0.0400
      8  C         15.8940  -22.5480   -9.8690 C.2     1  UNL1        0.0280
      9  C         16.6960  -23.3580   -9.0530 C.2     1  UNL1        0.0800
     10  C         18.0970  -23.3640   -9.1630 C.2     1  UNL1        0.0400
     11  C         18.6870  -22.5550  -10.1520 C.ar    1  UNL1        0.0120
     12  C         20.0180  -22.2950  -10.5880 C.ar    1  UNL1        0.0120
     13  C         21.3010  -22.7350  -10.2090 C.2     1  UNL1        0.0400
     14  S         24.0370  -22.7800  -10.4470 S.O2    1  UNL1        0.2630
     15  O         24.8790  -21.6050  -10.3650 O.2     1  UNL1       -0.2000
     16  O         23.9020  -23.6880   -9.3290 O.2     1  UNL1       -0.2000
     17  N         24.5490  -23.6300  -11.8130 N.pl3   1  UNL1       -0.2810
     18  H         24.8420  -24.5800  -11.5890 H       1  UNL1        0.1790
     19  C         25.2350  -22.9400  -12.8480 C.2     1  UNL1        0.0430
     20  C         26.4360  -22.2790  -12.5910 C.2     1  UNL1        0.0300
     21  C         27.1210  -21.6510  -13.6300 C.2     1  UNL1        0.0030
     22  C         26.6080  -21.6860  -14.9280 C.2     1  UNL1        0.0160
     23  C         25.3960  -22.3420  -15.1990 C.2     1  UNL1        0.0500
     24  C         24.7170  -22.9750  -14.1450 C.2     1  UNL1        0.0460
     25  C         24.8550  -22.4010  -16.6050 C.3     1  UNL1        0.4170
     26  F         24.4940  -21.1810  -17.0920 F       1  UNL1       -0.1660
     27  F         23.7460  -23.1880  -16.7170 F       1  UNL1       -0.1660
     28  F         25.7620  -22.9060  -17.4860 F       1  UNL1       -0.1660
     29  S         15.9210  -24.3940   -7.8300 S.O2    1  UNL1        0.2630
     30  O         14.9030  -25.1840   -8.4890 O.2     1  UNL1       -0.2000
     31  O         16.9750  -25.0170   -7.0580 O.2     1  UNL1       -0.2000
     32  N         15.1870  -23.2740   -6.8060 N.pl3   1  UNL1       -0.2810
     33  H         14.1700  -23.3110   -6.8550 H       1  UNL1        0.1790
     34  C         15.7940  -22.9240   -5.5690 C.2     1  UNL1        0.0430
     35  C         15.2500  -23.3250   -4.3480 C.2     1  UNL1        0.0300
     36  C         15.8700  -22.9580   -3.1530 C.2     1  UNL1        0.0030
     37  C         17.0410  -22.1980   -3.1760 C.2     1  UNL1        0.0160
     38  C         17.6110  -21.8060   -4.3980 C.2     1  UNL1        0.0500
     39  C         16.9720  -22.1730   -5.5950 C.2     1  UNL1        0.0460
     40  C         18.8740  -20.9770   -4.4330 C.3     1  UNL1        0.4170
     41  F         19.6040  -21.0810   -3.2860 F       1  UNL1       -0.1660
     42  F         18.6410  -19.6470   -4.6040 F       1  UNL1       -0.1660
     43  F         19.7100  -21.3480   -5.4430 F       1  UNL1       -0.1660
@<TRIPOS>BOND
     1    28    25    1
     2    26    25    1
     3    27    25    1
     4    25    23    1
     5    23    22    2
     6    23    24    1
     7    22    21    1
     8    24    19    2
     9    21    20    2
    10    19    20    1
    11    19    17    1
    12     3     2    1
    13     3     4    2
    14     2     1    2
    15     5     4   ar
    16     5     6   ar
    17    17    18    1
    18    17    14    1
    19     4    12   ar
    20     6     7    2
    21     6    11   ar
    22     1    14    1
    23     1    13    1
    24     7     8    1
    25    12    13    2
    26    12    11   ar
    27    14    15    2
    28    14    16    2
    29    11    10    2
    30     8     9    2
    31    10     9    1
    32     9    29    1
    33    30    29    2
    34    29    31    2
    35    29    32    1
    36    33    32    1
    37    32    34    1
    38    39    34    2
    39    39    38    1
    40    34    35    1
    41    43    40    1
    42    42    40    1
    43    40    38    1
    44    40    41    1
    45    38    37    2
    46    35    36    2
    47    37    36    1
