@<TRIPOS>MOLECULE
24823_out_ligand_01.pdbqt
 43 49 0 0 0
SMALL
GASTEIGER

@<TRIPOS>ATOM
      1  C         17.5040  -22.7790   -9.6780 C.2     1  UNL1        0.0800
      2  C         16.7670  -21.8080  -10.3680 C.2     1  UNL1        0.0280
      3  C         17.3710  -21.0270  -11.3590 C.2     1  UNL1        0.0400
      4  C         18.7230  -21.2630  -11.6030 C.ar    1  UNL1        0.0870
      5  O         19.4780  -20.6100  -12.5280 O.2     1  UNL1       -0.3090
      6  C         20.7350  -21.1250  -12.4520 C.ar    1  UNL1        0.0870
      7  C         21.8150  -20.7260  -13.2380 C.2     1  UNL1        0.0400
      8  C         23.0320  -21.3740  -13.0080 C.2     1  UNL1        0.0280
      9  C         23.1360  -22.3640  -12.0210 C.2     1  UNL1        0.0800
     10  C         22.0270  -22.7680  -11.2580 C.2     1  UNL1        0.0400
     11  C         20.7990  -22.1160  -11.4770 C.ar    1  UNL1        0.0120
     12  C         19.4890  -22.2050  -10.9240 C.ar    1  UNL1        0.0120
     13  C         18.8740  -22.9810   -9.9240 C.2     1  UNL1        0.0400
     14  S         16.7020  -23.7690   -8.4320 S.O2    1  UNL1        0.2630
     15  O         17.7290  -24.4280   -7.6540 O.2     1  UNL1       -0.2000
     16  O         15.6600  -24.5280   -9.0930 O.2     1  UNL1       -0.2000
     17  N         15.9110  -22.6300   -7.4700 N.pl3   1  UNL1       -0.2800
     18  H         15.9160  -21.6960   -7.8720 H       1  UNL1        0.1790
     19  C         15.9850  -22.7530   -6.0470 C.2     1  UNL1        0.0530
     20  C         15.0230  -23.5380   -5.4070 C.2     1  UNL1        0.0310
     21  C         15.0850  -23.7390   -4.0330 C.2     1  UNL1        0.0030
     22  C         16.1140  -23.1600   -3.2940 C.2     1  UNL1        0.0120
     23  C         17.0950  -22.3700   -3.9150 C.2     1  UNL1       -0.0240
     24  C         18.1310  -21.8040   -3.1540 C.2     1  UNL1        0.0120
     25  C         17.0420  -22.1500   -5.3140 C.2     1  UNL1        0.0010
     26  C         19.1190  -21.0230   -3.7540 C.2     1  UNL1        0.0010
     27  C         19.0820  -20.7950   -5.1230 C.2     1  UNL1        0.0010
     28  C         18.0560  -21.3480   -5.8930 C.2     1  UNL1        0.0140
     29  S         24.7040  -23.1630  -11.7410 S.O2    1  UNL1        0.2630
     30  O         24.7400  -24.3700  -12.5380 O.2     1  UNL1       -0.2000
     31  O         24.9140  -23.2050  -10.3090 O.2     1  UNL1       -0.2000
     32  N         25.8240  -22.0570  -12.3450 N.pl3   1  UNL1       -0.2800
     33  H         25.8520  -21.1880  -11.8170 H       1  UNL1        0.1790
     34  C         26.0530  -21.9980  -13.7550 C.2     1  UNL1        0.0530
     35  C         25.9300  -23.1820  -14.4890 C.2     1  UNL1        0.0310
     36  C         26.0850  -23.1680  -15.8700 C.2     1  UNL1        0.0030
     37  C         26.3560  -21.9700  -16.5240 C.2     1  UNL1        0.0120
     38  C         26.4800  -20.7670  -15.8100 C.2     1  UNL1       -0.0240
     39  C         26.7440  -19.5660  -16.4890 C.2     1  UNL1        0.0120
     40  C         26.3320  -20.7650  -14.4010 C.2     1  UNL1        0.0010
     41  C         26.8620  -18.3610  -15.7990 C.2     1  UNL1        0.0010
     42  C         26.7210  -18.3400  -14.4180 C.2     1  UNL1        0.0010
     43  C         26.4610  -19.5250  -13.7270 C.2     1  UNL1        0.0140
@<TRIPOS>BOND
     1    37    36    2
     2    37    38    1
     3    39    38    2
     4    39    41    1
     5    36    35    1
     6    38    40    1
     7    41    42    2
     8    35    34    2
     9    42    43    1
    10    40    34    1
    11    40    43    2
    12    34    32    1
    13     7     8    1
    14     7     6    2
    15     8     9    2
    16    30    29    2
    17     5     6   ar
    18     5     4   ar
    19     6    11   ar
    20    32    33    1
    21    32    29    1
    22     9    29    1
    23     9    10    1
    24    29    31    2
    25     4     3    2
    26     4    12   ar
    27    11    10    2
    28    11    12   ar
    29     3     2    1
    30    12    13    2
    31     2     1    2
    32    13     1    1
    33     1    14    1
    34    16    14    2
    35    14    15    2
    36    14    17    1
    37    18    17    1
    38    17    19    1
    39    19    20    2
    40    19    25    1
    41    28    25    1
    42    28    27    2
    43    20    21    1
    44    25    23    2
    45    27    26    1
    46    21    22    2
    47    23    22    1
    48    23    24    1
    49    26    24    2
