@<TRIPOS>MOLECULE
24936_out_ligand_01.pdbqt
 31 32 0 0 0
SMALL
GASTEIGER

@<TRIPOS>ATOM
      1  N         24.9710  -20.3980  -15.1500 N.1     1  UNL1       -0.1910
      2  C         24.4040  -20.8040  -14.2220 C.1     1  UNL1        0.1050
      3  C         23.6420  -21.3300  -13.1410 C.2     1  UNL1        0.1130
      4  C         22.2960  -21.3660  -13.2130 C.2     1  UNL1        0.0400
      5  C         24.4070  -21.7690  -11.9400 C.2     1  UNL1        0.2690
      6  O         24.3650  -21.0940  -10.9180 O.2     1  UNL1       -0.2660
      7  N         25.0200  -22.9950  -12.0800 N.am    1  UNL1       -0.2790
      8  C         26.1400  -23.3500  -11.3840 C.2     1  UNL1        0.2980
      9  H         24.9340  -23.4810  -12.9590 H       1  UNL1        0.1730
     10  N         26.5200  -24.6350  -11.6510 N.am    1  UNL1       -0.2540
     11  O         26.8050  -22.6560  -10.6310 O.2     1  UNL1       -0.2540
     12  H         27.3070  -24.9160  -11.0750 H       1  UNL1        0.1280
     13  H         25.7810  -25.3270  -11.6530 H       1  UNL1        0.1280
     14  C         21.3710  -21.8050  -12.1600 C.2     1  UNL1       -0.0320
     15  C         21.7650  -22.7050  -11.1640 C.2     1  UNL1        0.0330
     16  C         20.8550  -23.1140  -10.1840 C.2     1  UNL1        0.0460
     17 BR         21.4430  -24.3880   -8.9050 Br      1  UNL1       -0.0480
     18  C         19.5510  -22.6030  -10.1670 C.2     1  UNL1        0.1030
     19  C         19.1560  -21.7090  -11.1700 C.2     1  UNL1        0.0460
     20 BR         17.3850  -21.0380  -11.2820 Br      1  UNL1       -0.0480
     21  C         20.0660  -21.3000  -12.1520 C.2     1  UNL1        0.0330
     22  O         18.6530  -23.0510   -9.2330 O.2     1  UNL1       -0.3440
     23  C         18.7400  -22.2920   -8.0210 C.3     1  UNL1        0.2160
     24  C         17.6480  -22.7720   -7.0910 C.2     1  UNL1       -0.0130
     25  C         16.7100  -23.7100   -7.5570 C.2     1  UNL1        0.0110
     26  C         15.6790  -24.1630   -6.7330 C.2     1  UNL1        0.0010
     27  C         15.5660  -23.6840   -5.4300 C.2     1  UNL1        0.0020
     28  C         16.4830  -22.7490   -4.9520 C.2     1  UNL1        0.0230
     29  C         17.5230  -22.2860   -5.7740 C.2     1  UNL1        0.0530
     30  C         18.4400  -21.3210   -5.2350 C.1     1  UNL1        0.1000
     31  N         19.1860  -20.5570   -4.7810 N.1     1  UNL1       -0.1910
@<TRIPOS>BOND
     1     1     2    3
     2     2     3    1
     3     4     3    2
     4     4    14    1
     5     3     5    1
     6     9     7    1
     7    14    21    2
     8    14    15    1
     9    21    19    1
    10     7     5   am
    11     7     8   am
    12     5     6    2
    13    13    10    1
    14    10     8   am
    15    10    12    1
    16     8    11    2
    17    20    19    1
    18    19    18    2
    19    15    16    2
    20    16    18    1
    21    16    17    1
    22    18    22    1
    23    22    23    1
    24    23    24    1
    25    25    24    2
    26    25    26    1
    27    24    29    1
    28    26    27    2
    29    29    30    1
    30    29    28    2
    31    27    28    1
    32    30    31    3
