@<TRIPOS>MOLECULE
24949_out_ligand_01.pdbqt
 32 34 0 0 0
SMALL
GASTEIGER

@<TRIPOS>ATOM
      1  N         27.1160  -23.9560  -11.2310 N.1     1  UNL1       -0.1910
      2  C         26.0780  -23.5450  -10.9110 C.1     1  UNL1        0.1050
      3  C         24.8220  -23.0680  -10.4420 C.2     1  UNL1        0.1130
      4  C         24.2290  -23.6600   -9.3850 C.2     1  UNL1        0.0390
      5  C         24.2120  -21.9450  -11.2060 C.2     1  UNL1        0.2620
      6  O         24.4370  -20.7800  -10.9010 O.2     1  UNL1       -0.2670
      7  N         23.3790  -22.3270  -12.2330 N.am    1  UNL1       -0.3560
      8  H         23.2940  -23.3060  -12.4730 H       1  UNL1        0.1620
      9  C         22.7460  -21.3570  -13.1070 C.3     1  UNL1        0.1230
     10  C         21.3040  -21.0830  -12.6820 C.3     1  UNL1        0.0240
     11  C         20.7700  -22.1080  -11.6770 C.3     1  UNL1        0.0400
     12  C         19.3290  -21.9210  -11.2710 C.2     1  UNL1       -0.0580
     13  C         18.6670  -20.7030  -11.4790 C.2     1  UNL1        0.0070
     14  C         17.3310  -20.5470  -11.1070 C.2     1  UNL1        0.0010
     15  C         16.6370  -21.6080  -10.5320 C.2     1  UNL1        0.0000
     16  C         17.2790  -22.8290  -10.3320 C.2     1  UNL1        0.0010
     17  C         18.6150  -22.9850  -10.7000 C.2     1  UNL1        0.0070
     18  C         22.9050  -23.3500   -8.8360 C.2     1  UNL1       -0.0340
     19  C         21.8480  -24.2590   -8.9230 C.2     1  UNL1        0.0140
     20  C         20.5970  -23.9330   -8.3920 C.2     1  UNL1        0.0370
     21  C         20.3860  -22.7050   -7.7620 C.2     1  UNL1        0.0690
     22  C         21.4460  -21.8040   -7.6570 C.2     1  UNL1        0.0370
     23  C         22.7010  -22.1280   -8.1860 C.2     1  UNL1        0.0140
     24  O         19.1140  -22.5130   -7.3010 O.2     1  UNL1       -0.3470
     25  C         18.3650  -23.6770   -6.9440 C.3     1  UNL1        0.2170
     26  C         17.2480  -23.3160   -5.9980 C.2     1  UNL1        0.0040
     27  C         17.4630  -22.5800   -4.8230 C.2     1  UNL1        0.0120
     28  C         16.3920  -22.2400   -3.9920 C.2     1  UNL1        0.0010
     29  C         15.0920  -22.6180   -4.3300 C.2     1  UNL1        0.0030
     30  C         14.8630  -23.3340   -5.5030 C.2     1  UNL1        0.0430
     31  C         15.9360  -23.6710   -6.3250 C.2     1  UNL1        0.1240
     32  F         15.6930  -24.3470   -7.4580 F       1  UNL1       -0.2050
@<TRIPOS>BOND
     1     9    10    1
     2     9     7    1
     3    10    11    1
     4     8     7    1
     5     7     5   am
     6    11    12    1
     7    13    12    2
     8    13    14    1
     9    12    17    1
    10     1     2    3
    11     5     6    2
    12     5     3    1
    13    14    15    2
    14     2     3    1
    15    17    16    2
    16    15    16    1
    17     3     4    2
    18     4    18    1
    19    19    18    2
    20    19    20    1
    21    18    23    1
    22    20    21    2
    23    23    22    2
    24    21    22    1
    25    21    24    1
    26    32    31    1
    27    24    25    1
    28    25    26    1
    29    31    26    2
    30    31    30    1
    31    26    27    1
    32    30    29    2
    33    27    28    2
    34    29    28    1
