@<TRIPOS>MOLECULE
24940_out_ligand_01.pdbqt
 33 34 0 0 0
SMALL
GASTEIGER

@<TRIPOS>ATOM
      1  C         22.4670  -21.4870  -13.3450 C.2     1  UNL1        0.0400
      2  C         23.7700  -21.3630  -13.6730 C.2     1  UNL1        0.1130
      3  C         24.1480  -20.9840  -14.9920 C.1     1  UNL1        0.1050
      4  N         24.4010  -20.6360  -16.0690 N.1     1  UNL1       -0.1910
      5  C         24.8750  -21.6680  -12.7210 C.2     1  UNL1        0.2690
      6  O         25.2820  -20.7910  -11.9700 O.2     1  UNL1       -0.2660
      7  N         25.3990  -22.9350  -12.8660 N.am    1  UNL1       -0.2790
      8  C         26.1890  -23.5520  -11.9360 C.2     1  UNL1        0.2980
      9  H         24.9970  -23.5600  -13.5460 H       1  UNL1        0.1730
     10  N         26.6770  -24.7430  -12.3920 N.am    1  UNL1       -0.2540
     11  O         26.4450  -23.1730  -10.8050 O.2     1  UNL1       -0.2540
     12  H         27.3140  -25.1610  -11.7190 H       1  UNL1        0.1280
     13  H         27.0570  -24.7430  -13.3290 H       1  UNL1        0.1280
     14  C         21.9280  -21.9370  -12.0540 C.2     1  UNL1       -0.0300
     15  C         20.6060  -21.6520  -11.6690 C.2     1  UNL1        0.0510
     16  C         20.0920  -22.1210  -10.4550 C.2     1  UNL1        0.1040
     17  C         20.9390  -22.8360   -9.5900 C.2     1  UNL1        0.1240
     18  C         22.2600  -23.1090   -9.9650 C.2     1  UNL1        0.0710
     19  C         22.7570  -22.6550  -11.1870 C.2     1  UNL1        0.0380
     20 CL         23.3200  -24.0100   -8.9410 Cl      1  UNL1       -0.0810
     21  O         18.8010  -21.9530  -10.0370 O.2     1  UNL1       -0.3490
     22  C         17.7730  -22.8230  -10.5120 C.3     1  UNL1        0.1710
     23  C         16.4400  -22.5120   -9.8550 C.3     1  UNL1        0.0340
     24  O         20.4850  -23.3540   -8.3990 O.2     1  UNL1       -0.3420
     25  C         20.1490  -22.3240   -7.4550 C.3     1  UNL1        0.2160
     26  C         18.9140  -22.6890   -6.6520 C.2     1  UNL1       -0.0120
     27  C         18.1980  -23.8740   -6.9040 C.2     1  UNL1        0.0130
     28  C         17.0590  -24.1970   -6.1620 C.2     1  UNL1        0.0240
     29  C         16.6210  -23.3390   -5.1580 C.2     1  UNL1        0.0350
     30 CL         15.2170  -23.7380   -4.2470 Cl      1  UNL1       -0.0840
     31  C         17.3090  -22.1620   -4.8880 C.2     1  UNL1        0.0480
     32  C         18.4500  -21.8400   -5.6310 C.2     1  UNL1        0.0440
     33 CL         19.2630  -20.3630   -5.2430 Cl      1  UNL1       -0.0840
@<TRIPOS>BOND
     1     4     3    3
     2     3     2    1
     3     2     1    2
     4     2     5    1
     5     9     7    1
     6     1    14    1
     7    13    10    1
     8     7     5   am
     9     7     8   am
    10     5     6    2
    11    10     8   am
    12    10    12    1
    13    14    15    2
    14    14    19    1
    15     8    11    2
    16    15    16    1
    17    19    18    2
    18    22    21    1
    19    22    23    1
    20    16    21    1
    21    16    17    2
    22    18    17    1
    23    18    20    1
    24    17    24    1
    25    24    25    1
    26    25    26    1
    27    27    26    2
    28    27    28    1
    29    26    32    1
    30    28    29    2
    31    32    33    1
    32    32    31    2
    33    29    31    1
    34    29    30    1
