@<TRIPOS>MOLECULE
25004_out_ligand_01.pdbqt
 36 38 0 0 0
SMALL
GASTEIGER

@<TRIPOS>ATOM
      1  C         17.9310  -21.6940   -5.2010 C.2     1  UNL1        0.0390
      2  C         16.8560  -22.5010   -5.2870 C.2     1  UNL1        0.1130
      3  C         15.7960  -22.3520   -4.3470 C.1     1  UNL1        0.1050
      4  N         14.9490  -22.1640   -3.5710 N.1     1  UNL1       -0.1910
      5  C         16.6720  -23.5770   -6.3010 C.2     1  UNL1        0.2620
      6  O         16.9380  -24.7460   -6.0350 O.2     1  UNL1       -0.2670
      7  N         16.1280  -23.1750   -7.4990 N.am    1  UNL1       -0.3560
      8  H         15.9060  -22.1980   -7.6610 H       1  UNL1        0.1620
      9  C         15.7330  -24.1220   -8.5200 C.3     1  UNL1        0.1230
     10  C         15.7800  -23.5220   -9.9280 C.3     1  UNL1        0.0240
     11  C         16.2720  -22.0710   -9.9860 C.3     1  UNL1        0.0400
     12  C         17.6490  -21.9170  -10.5830 C.2     1  UNL1       -0.0580
     13  C         17.9840  -20.7720  -11.3160 C.2     1  UNL1        0.0070
     14  C         19.2630  -20.6260  -11.8560 C.2     1  UNL1        0.0010
     15  C         20.2170  -21.6240  -11.6730 C.2     1  UNL1        0.0000
     16  C         19.8920  -22.7700  -10.9530 C.2     1  UNL1        0.0010
     17  C         18.6140  -22.9190  -10.4130 C.2     1  UNL1        0.0070
     18  C         19.1510  -21.7070   -6.0180 C.2     1  UNL1       -0.0340
     19  C         19.4010  -22.7140   -6.9590 C.2     1  UNL1        0.0140
     20  C         20.5970  -22.7190   -7.6940 C.2     1  UNL1        0.0370
     21  C         21.5500  -21.7240   -7.4870 C.2     1  UNL1        0.0690
     22  C         21.3100  -20.7430   -6.5240 C.2     1  UNL1        0.0370
     23  C         20.1240  -20.7320   -5.7890 C.2     1  UNL1        0.0140
     24  O         22.7670  -21.6230   -8.0910 O.2     1  UNL1       -0.3420
     25  C         23.2140  -22.6600   -8.9520 C.3     1  UNL1        0.2780
     26  C         23.8720  -22.1990  -10.2630 C.2     1  UNL1        0.2460
     27  N         23.6550  -23.0530  -11.3190 N.am    1  UNL1       -0.3250
     28  H         23.0240  -23.8280  -11.1320 H       1  UNL1        0.1690
     29  O         24.4980  -21.1460  -10.3020 O.2     1  UNL1       -0.2710
     30  C         24.1020  -22.9220  -12.6450 C.2     1  UNL1        0.0340
     31  C         25.0400  -23.8520  -13.1020 C.2     1  UNL1        0.0300
     32  C         25.5190  -23.8040  -14.4150 C.2     1  UNL1        0.0090
     33  C         25.0820  -22.8090  -15.2860 C.2     1  UNL1       -0.0620
     34  C         25.6100  -22.7510  -16.6870 C.3     1  UNL1        0.0480
     35  C         24.1800  -21.8480  -14.8130 C.2     1  UNL1        0.0090
     36  C         23.6840  -21.9110  -13.5070 C.2     1  UNL1        0.0300
@<TRIPOS>BOND
     1    34    33    1
     2    33    35    2
     3    33    32    1
     4    35    36    1
     5    32    31    2
     6    36    30    2
     7    31    30    1
     8    30    27    1
     9    14    15    2
    10    14    13    1
    11    15    16    1
    12    27    28    1
    13    27    26   am
    14    13    12    2
    15    16    17    2
    16    12    17    1
    17    12    11    1
    18    29    26    2
    19    26    25    1
    20    11    10    1
    21    10     9    1
    22    25    24    1
    23     9     7    1
    24    24    21    1
    25    20    21    2
    26    20    19    1
    27     8     7    1
    28     7     5   am
    29    21    22    1
    30    19    18    2
    31    22    23    2
    32     5     6    2
    33     5     2    1
    34    18    23    1
    35    18     1    1
    36     2     1    2
    37     2     3    1
    38     3     4    3
