@<TRIPOS>MOLECULE
25009_out_ligand_01.pdbqt
 32 34 0 0 0
SMALL
GASTEIGER

@<TRIPOS>ATOM
      1  N         27.1200  -22.8310  -10.6680 N.1     1  UNL1       -0.1910
      2  C         25.9800  -22.8780  -10.8810 C.1     1  UNL1        0.1050
      3  C         24.5670  -22.8940  -11.0580 C.2     1  UNL1        0.1130
      4  C         23.7600  -22.9360   -9.9770 C.2     1  UNL1        0.0390
      5  C         24.0770  -22.9190  -12.4670 C.2     1  UNL1        0.2690
      6  O         24.1340  -23.9620  -13.1070 O.2     1  UNL1       -0.2660
      7  N         23.5130  -21.7370  -12.8970 N.am    1  UNL1       -0.2790
      8  C         23.4150  -21.3770  -14.2120 C.2     1  UNL1        0.2980
      9  H         23.4760  -20.9540  -12.2650 H       1  UNL1        0.1730
     10  N         22.6960  -20.2260  -14.3710 N.am    1  UNL1       -0.2540
     11  O         23.9180  -21.9270  -15.1780 O.2     1  UNL1       -0.2540
     12  H         22.5630  -20.0100  -15.3540 H       1  UNL1        0.1280
     13  H         21.8340  -20.1680  -13.8440 H       1  UNL1        0.1280
     14  C         22.2950  -23.0280   -9.9670 C.2     1  UNL1       -0.0330
     15  C         21.6830  -24.0020   -9.1680 C.2     1  UNL1        0.0140
     16  C         20.2920  -24.1060   -9.1230 C.2     1  UNL1        0.0390
     17  C         19.5050  -23.2500   -9.8970 C.2     1  UNL1        0.0860
     18  C         20.1070  -22.2740  -10.6940 C.2     1  UNL1        0.0450
     19 BR         19.0740  -21.0630  -11.7220 Br      1  UNL1       -0.0480
     20  C         21.5010  -22.1720  -10.7430 C.2     1  UNL1        0.0330
     21  O         18.1430  -23.3350   -9.7960 O.2     1  UNL1       -0.3450
     22  C         17.6270  -22.2790   -8.9670 C.3     1  UNL1        0.2150
     23  C         17.0840  -22.8050   -7.6470 C.2     1  UNL1       -0.0230
     24  C         16.0830  -23.7940   -7.6400 C.2     1  UNL1        0.0100
     25  C         15.5760  -24.2910   -6.4440 C.2     1  UNL1        0.0020
     26  C         16.0650  -23.8150   -5.2330 C.2     1  UNL1        0.0120
     27  C         17.0710  -22.8410   -5.1970 C.2     1  UNL1       -0.0250
     28  C         17.5560  -22.3800   -3.9620 C.2     1  UNL1        0.0120
     29  C         17.6000  -22.3230   -6.4080 C.2     1  UNL1       -0.0180
     30  C         18.5600  -21.4180   -3.8970 C.2     1  UNL1        0.0010
     31  C         19.0960  -20.9030   -5.0700 C.2     1  UNL1        0.0010
     32  C         18.6230  -21.3490   -6.3060 C.2     1  UNL1        0.0130
@<TRIPOS>BOND
     1    12    10    1
     2    11     8    2
     3    10     8   am
     4    10    13    1
     5     8     7   am
     6     6     5    2
     7     7     5   am
     8     7     9    1
     9     5     3    1
    10    19    18    1
    11     3     2    1
    12     3     4    2
    13     2     1    3
    14    20    18    1
    15    20    14    2
    16    18    17    2
    17     4    14    1
    18    14    15    1
    19    17    21    1
    20    17    16    1
    21    21    22    1
    22    15    16    2
    23    22    23    1
    24    23    24    2
    25    23    29    1
    26    24    25    1
    27    25    26    2
    28    29    32    1
    29    29    27    2
    30    32    31    2
    31    26    27    1
    32    27    28    1
    33    31    30    1
    34    28    30    2
