@<TRIPOS>MOLECULE
25011_out_ligand_01.pdbqt
 37 39 0 0 0
SMALL
GASTEIGER

@<TRIPOS>ATOM
      1  N         15.1270  -22.4680   -3.5110 N.1     1  UNL1       -0.1910
      2  C         15.9090  -22.6880   -4.3400 C.1     1  UNL1        0.1050
      3  C         16.8850  -22.8870   -5.3570 C.2     1  UNL1        0.1130
      4  C         18.0050  -22.1380   -5.3820 C.2     1  UNL1        0.0390
      5  C         16.6150  -23.9770   -6.3320 C.2     1  UNL1        0.2620
      6  O         17.0410  -25.1090   -6.1410 O.2     1  UNL1       -0.2670
      7  N         15.8510  -23.6040   -7.4140 N.am    1  UNL1       -0.3560
      8  H         15.6160  -22.6270   -7.5360 H       1  UNL1        0.1620
      9  C         15.6150  -24.4940   -8.5350 C.3     1  UNL1        0.1230
     10  C         15.5740  -23.7370   -9.8620 C.3     1  UNL1        0.0240
     11  C         15.9760  -22.2620   -9.7480 C.3     1  UNL1        0.0400
     12  C         17.2740  -21.9410  -10.4480 C.2     1  UNL1       -0.0580
     13  C         17.4770  -20.6830  -11.0300 C.2     1  UNL1        0.0070
     14  C         18.6690  -20.3950  -11.6950 C.2     1  UNL1        0.0010
     15  C         19.6700  -21.3600  -11.7840 C.2     1  UNL1        0.0000
     16  C         19.4780  -22.6150  -11.2090 C.2     1  UNL1        0.0010
     17  C         18.2850  -22.9050  -10.5450 C.2     1  UNL1        0.0070
     18  C         19.1280  -22.2770   -6.3180 C.2     1  UNL1       -0.0330
     19  C         20.0670  -21.2530   -6.4920 C.2     1  UNL1        0.0140
     20  C         21.1350  -21.4070   -7.3840 C.2     1  UNL1        0.0390
     21  C         21.2650  -22.5800   -8.1280 C.2     1  UNL1        0.0910
     22  C         20.3190  -23.6030   -7.9570 C.2     1  UNL1        0.0680
     23 CL         20.4190  -25.0700   -8.8680 Cl      1  UNL1       -0.0810
     24  C         19.2520  -23.4500   -7.0670 C.2     1  UNL1        0.0380
     25  O         22.2990  -22.8150   -8.9980 O.2     1  UNL1       -0.3400
     26  C         23.3690  -21.8740   -8.9860 C.3     1  UNL1        0.2780
     27  C         24.1070  -21.7200  -10.3220 C.2     1  UNL1        0.2460
     28  O         24.9990  -20.8890  -10.4550 O.2     1  UNL1       -0.2710
     29  N         23.6670  -22.6290  -11.2710 N.am    1  UNL1       -0.3250
     30  H         22.8970  -23.2250  -10.9810 H       1  UNL1        0.1690
     31  C         24.1060  -22.7730  -12.6000 C.2     1  UNL1        0.0350
     32  C         23.6510  -21.8220  -13.5270 C.2     1  UNL1        0.0320
     33  C         24.0430  -21.8920  -14.8660 C.2     1  UNL1        0.0440
     34  C         24.8900  -22.9120  -15.2780 C.2     1  UNL1        0.1160
     35  F         25.2660  -22.9810  -16.5610 F       1  UNL1       -0.2060
     36  C         25.3480  -23.8630  -14.3750 C.2     1  UNL1        0.0440
     37  C         24.9570  -23.7930  -13.0350 C.2     1  UNL1        0.0320
@<TRIPOS>BOND
     1    35    34    1
     2    34    33    2
     3    34    36    1
     4    33    32    1
     5    36    37    2
     6    32    31    2
     7    37    31    1
     8    31    29    1
     9    15    14    2
    10    15    16    1
    11    14    13    1
    12    29    30    1
    13    29    27   am
    14    16    17    2
    15    13    12    2
    16    17    12    1
    17    28    27    2
    18    12    11    1
    19    27    26    1
    20    10    11    1
    21    10     9    1
    22    25    26    1
    23    25    21    1
    24    23    22    1
    25     9     7    1
    26    21    22    2
    27    21    20    1
    28    22    24    1
    29     8     7    1
    30     7     5   am
    31    20    19    2
    32    24    18    2
    33    19    18    1
    34     5     6    2
    35     5     3    1
    36    18     4    1
    37     4     3    2
    38     3     2    1
    39     2     1    3
