@<TRIPOS>MOLECULE
25019_out_ligand_01.pdbqt
 30 31 0 0 0
SMALL
GASTEIGER

@<TRIPOS>ATOM
      1  C         23.3890  -21.5890  -14.2200 C.2     1  UNL1        0.0400
      2  C         24.7130  -21.4310  -14.4210 C.2     1  UNL1        0.1130
      3  C         25.2150  -21.3450  -15.7530 C.1     1  UNL1        0.1050
      4  N         25.5540  -21.2390  -16.8580 N.1     1  UNL1       -0.1910
      5  C         25.7270  -21.3900  -13.3250 C.2     1  UNL1        0.2690
      6  O         26.2520  -22.4290  -12.9400 O.2     1  UNL1       -0.2660
      7  N         26.1300  -20.1250  -12.9580 N.am    1  UNL1       -0.2790
      8  C         26.2930  -19.8180  -11.6370 C.2     1  UNL1        0.2980
      9  H         25.7470  -19.3450  -13.4670 H       1  UNL1        0.1730
     10  N         26.6190  -18.5040  -11.4570 N.am    1  UNL1       -0.2540
     11  O         26.1360  -20.5550  -10.6780 O.2     1  UNL1       -0.2540
     12  H         26.8070  -18.2980  -10.4800 H       1  UNL1        0.1280
     13  H         27.3250  -18.1300  -12.0750 H       1  UNL1        0.1280
     14  C         22.6960  -21.7620  -12.9370 C.2     1  UNL1       -0.0320
     15  C         23.3090  -22.3950  -11.8490 C.2     1  UNL1        0.0330
     16  C         22.6260  -22.5260  -10.6340 C.2     1  UNL1        0.0460
     17  C         21.3120  -22.0560  -10.5050 C.2     1  UNL1        0.1030
     18 BR         23.5490  -23.3260   -9.1790 Br      1  UNL1       -0.0480
     19  C         20.7060  -21.4160  -11.5910 C.2     1  UNL1        0.0460
     20  C         21.3870  -21.2850  -12.8060 C.2     1  UNL1        0.0330
     21 BR         18.9650  -20.6660  -11.4700 Br      1  UNL1       -0.0480
     22  O         20.6630  -22.1360   -9.3000 O.2     1  UNL1       -0.3440
     23  C         19.8630  -23.3240   -9.2200 C.3     1  UNL1        0.2140
     24  C         19.1190  -23.2950   -7.9110 C.2     1  UNL1       -0.0340
     25  C         19.2400  -22.1910   -7.0540 C.2     1  UNL1        0.0100
     26  C         18.5640  -22.1640   -5.8320 C.2     1  UNL1        0.0070
     27  C         17.7540  -23.2380   -5.4470 C.2     1  UNL1       -0.0620
     28  C         17.0500  -23.2320   -4.1230 C.3     1  UNL1        0.0480
     29  C         17.6470  -24.3480   -6.2940 C.2     1  UNL1        0.0070
     30  C         18.3250  -24.3780   -7.5150 C.2     1  UNL1        0.0100
@<TRIPOS>BOND
     1     4     3    3
     2     3     2    1
     3     2     1    2
     4     2     5    1
     5     1    14    1
     6     9     7    1
     7     5     7   am
     8     5     6    2
     9     7     8   am
    10    14    20    2
    11    14    15    1
    12    20    19    1
    13    13    10    1
    14    15    16    2
    15     8    10   am
    16     8    11    2
    17    19    21    1
    18    19    17    2
    19    10    12    1
    20    16    17    1
    21    16    18    1
    22    17    22    1
    23    22    23    1
    24    23    24    1
    25    24    30    2
    26    24    25    1
    27    30    29    1
    28    25    26    2
    29    29    27    2
    30    26    27    1
    31    27    28    1
