@<TRIPOS>MOLECULE
25023_out_ligand_01.pdbqt
 33 35 0 0 0
SMALL
GASTEIGER

@<TRIPOS>ATOM
      1  N         25.6020  -20.0910  -15.5000 N.1     1  UNL1       -0.1910
      2  C         25.0500  -20.5260  -14.5780 C.1     1  UNL1        0.1050
      3  C         24.3000  -21.0060  -13.4660 C.2     1  UNL1        0.1130
      4  C         22.9550  -21.0720  -13.5360 C.2     1  UNL1        0.0400
      5  C         25.0850  -21.4690  -12.2870 C.2     1  UNL1        0.2690
      6  O         25.1910  -20.7400  -11.3090 O.2     1  UNL1       -0.2660
      7  N         25.7190  -22.6790  -12.4720 N.am    1  UNL1       -0.2790
      8  C         26.0680  -23.5070  -11.4420 C.2     1  UNL1        0.2980
      9  H         25.5940  -23.1670  -13.3450 H       1  UNL1        0.1730
     10  N         26.7600  -24.6010  -11.8800 N.am    1  UNL1       -0.2540
     11  O         25.7990  -23.3840  -10.2580 O.2     1  UNL1       -0.2540
     12  H         27.0780  -25.1710  -11.1020 H       1  UNL1        0.1280
     13  H         27.4980  -24.4210  -12.5490 H       1  UNL1        0.1280
     14  C         22.0460  -21.6050  -12.5140 C.2     1  UNL1       -0.0320
     15  C         20.6930  -21.2550  -12.5600 C.2     1  UNL1        0.0330
     16  C         19.8070  -21.7320  -11.5880 C.2     1  UNL1        0.0460
     17 BR         18.0020  -21.1500  -11.6780 Br      1  UNL1       -0.0480
     18  C         20.2570  -22.5890  -10.5760 C.2     1  UNL1        0.1030
     19  C         21.6120  -22.9330  -10.5260 C.2     1  UNL1        0.0460
     20 BR         22.3270  -24.0090   -9.1360 Br      1  UNL1       -0.0480
     21  C         22.4980  -22.4580  -11.4990 C.2     1  UNL1        0.0330
     22  O         19.3910  -23.0030   -9.5970 O.2     1  UNL1       -0.3440
     23  C         19.5390  -22.2230   -8.4020 C.3     1  UNL1        0.2150
     24  C         18.6930  -22.8410   -7.3090 C.2     1  UNL1       -0.0230
     25  C         18.0050  -24.0330   -7.6000 C.2     1  UNL1        0.0100
     26  C         17.2130  -24.6530   -6.6400 C.2     1  UNL1        0.0020
     27  C         17.0940  -24.0910   -5.3730 C.2     1  UNL1        0.0120
     28  C         17.7580  -22.9000   -5.0480 C.2     1  UNL1       -0.0250
     29  C         17.6200  -22.3470   -3.7640 C.2     1  UNL1        0.0120
     30  C         18.5670  -22.2530   -6.0180 C.2     1  UNL1       -0.0180
     31  C         18.2650  -21.1610   -3.4180 C.2     1  UNL1        0.0010
     32  C         19.0560  -20.5110   -4.3560 C.2     1  UNL1        0.0010
     33  C         19.2030  -21.0490   -5.6370 C.2     1  UNL1        0.0130
@<TRIPOS>BOND
     1     1     2    3
     2     2     3    1
     3     4     3    2
     4     4    14    1
     5     3     5    1
     6     9     7    1
     7    15    14    2
     8    15    16    1
     9    13    10    1
    10    14    21    1
    11     7     5   am
    12     7     8   am
    13     5     6    2
    14    10     8   am
    15    10    12    1
    16    17    16    1
    17    16    18    2
    18    21    19    2
    19     8    11    2
    20    18    19    1
    21    18    22    1
    22    19    20    1
    23    22    23    1
    24    23    24    1
    25    25    24    2
    26    25    26    1
    27    24    30    1
    28    26    27    2
    29    30    33    1
    30    30    28    2
    31    33    32    2
    32    27    28    1
    33    28    29    1
    34    32    31    1
    35    29    31    2
