@<TRIPOS>MOLECULE
25025_out_ligand_01.pdbqt
 35 37 0 0 0
SMALL
GASTEIGER

@<TRIPOS>ATOM
      1  C         22.9630  -21.4470  -14.0910 C.2     1  UNL1        0.0400
      2  C         24.2570  -21.3170  -14.4500 C.2     1  UNL1        0.1130
      3  C         24.5840  -21.1550  -15.8280 C.1     1  UNL1        0.1050
      4  N         24.7810  -20.9810  -16.9590 N.1     1  UNL1       -0.1910
      5  C         25.4090  -21.3820  -13.5010 C.2     1  UNL1        0.2690
      6  O         26.0140  -22.4370  -13.3510 O.2     1  UNL1       -0.2660
      7  N         25.8200  -20.1680  -13.0000 N.am    1  UNL1       -0.2790
      8  C         26.1850  -20.0570  -11.6870 C.2     1  UNL1        0.2980
      9  H         25.3440  -19.3400  -13.3170 H       1  UNL1        0.1730
     10  N         26.5100  -18.7750  -11.3540 N.am    1  UNL1       -0.2540
     11  O         26.1960  -20.9390  -10.8430 O.2     1  UNL1       -0.2540
     12  H         26.8390  -18.7110  -10.3950 H       1  UNL1        0.1280
     13  H         27.1070  -18.2810  -12.0030 H       1  UNL1        0.1280
     14  C         22.4170  -21.6830  -12.7480 C.2     1  UNL1       -0.0300
     15  C         21.1230  -21.2230  -12.4590 C.2     1  UNL1        0.0510
     16  C         20.5600  -21.4170  -11.1940 C.2     1  UNL1        0.1040
     17  C         21.3080  -22.0880  -10.2110 C.2     1  UNL1        0.1190
     18  C         22.5970  -22.5490  -10.4940 C.2     1  UNL1        0.0480
     19  C         23.1430  -22.3660  -11.7670 C.2     1  UNL1        0.0330
     20 BR         23.6490  -23.4320   -9.1850 Br      1  UNL1       -0.0480
     21  O         19.3270  -20.9600  -10.8120 O.2     1  UNL1       -0.3490
     22  C         18.1900  -21.2770  -11.6130 C.3     1  UNL1        0.1710
     23  C         17.0090  -21.6370  -10.7320 C.3     1  UNL1        0.0340
     24  O         20.7990  -22.2230   -8.9410 O.2     1  UNL1       -0.3420
     25  C         19.8270  -23.2730   -8.8950 C.3     1  UNL1        0.2140
     26  C         18.8960  -23.0050   -7.7390 C.2     1  UNL1       -0.0330
     27  C         19.2640  -22.0950   -6.7400 C.2     1  UNL1        0.0100
     28  C         18.4090  -21.8380   -5.6670 C.2     1  UNL1        0.0130
     29  C         17.1680  -22.4850   -5.5670 C.2     1  UNL1       -0.0260
     30  C         16.2970  -22.2360   -4.4940 C.2     1  UNL1        0.0120
     31  C         16.7900  -23.4110   -6.5650 C.2     1  UNL1       -0.0250
     32  C         15.0680  -22.8900   -4.4060 C.2     1  UNL1        0.0010
     33  C         14.6940  -23.8020   -5.3900 C.2     1  UNL1        0.0010
     34  C         15.5490  -24.0610   -6.4620 C.2     1  UNL1        0.0120
     35  C         17.6610  -23.6620   -7.6390 C.2     1  UNL1        0.0210
@<TRIPOS>BOND
     1     4     3    3
     2     3     2    1
     3     2     1    2
     4     2     5    1
     5     1    14    1
     6     5     6    2
     7     5     7   am
     8     9     7    1
     9     7     8   am
    10    14    15    2
    11    14    19    1
    12    15    16    1
    13    13    10    1
    14    19    18    2
    15     8    10   am
    16     8    11    2
    17    22    21    1
    18    22    23    1
    19    10    12    1
    20    16    21    1
    21    16    17    2
    22    18    17    1
    23    18    20    1
    24    17    24    1
    25    24    25    1
    26    25    26    1
    27    26    35    2
    28    26    27    1
    29    35    31    1
    30    27    28    2
    31    31    34    1
    32    31    29    2
    33    34    33    2
    34    28    29    1
    35    29    30    1
    36    33    32    1
    37    30    32    2
