@<TRIPOS>MOLECULE
25039_out_ligand_01.pdbqt
 31 32 0 0 0
SMALL
GASTEIGER

@<TRIPOS>ATOM
      1  N         25.2890  -20.2930  -15.5470 N.1     1  UNL1       -0.1910
      2  C         24.7670  -20.6860  -14.5880 C.1     1  UNL1        0.1050
      3  C         24.0550  -21.1140  -13.4310 C.2     1  UNL1        0.1130
      4  C         22.7090  -21.1870  -13.4480 C.2     1  UNL1        0.0400
      5  C         24.8770  -21.5130  -12.2550 C.2     1  UNL1        0.2690
      6  O         24.9520  -20.7650  -11.2890 O.2     1  UNL1       -0.2660
      7  N         25.5910  -22.6770  -12.4400 N.am    1  UNL1       -0.2790
      8  C         25.9110  -23.5120  -11.4070 C.2     1  UNL1        0.2980
      9  H         25.4920  -23.1670  -13.3160 H       1  UNL1        0.1730
     10  N         26.6550  -24.5770  -11.8250 N.am    1  UNL1       -0.2540
     11  O         25.5770  -23.4140  -10.2370 O.2     1  UNL1       -0.2540
     12  H         26.9490  -25.1510  -11.0400 H       1  UNL1        0.1280
     13  H         27.4200  -24.3660  -12.4510 H       1  UNL1        0.1280
     14  C         21.8410  -21.6770  -12.3700 C.2     1  UNL1       -0.0320
     15  C         22.3800  -22.5210  -11.3930 C.2     1  UNL1        0.0380
     16  C         21.5790  -23.0030  -10.3530 C.2     1  UNL1        0.0690
     17 CL         22.2930  -24.0940   -9.2220 Cl      1  UNL1       -0.0810
     18  C         20.2360  -22.6200  -10.2600 C.2     1  UNL1        0.1080
     19  C         19.6920  -21.7850  -11.2430 C.2     1  UNL1        0.0460
     20 BR         17.8600  -21.2870  -11.2220 Br      1  UNL1       -0.0480
     21  C         20.4940  -21.3030  -12.2830 C.2     1  UNL1        0.0330
     22  O         19.4350  -23.1240   -9.2660 O.2     1  UNL1       -0.3440
     23  C         19.6360  -22.4130   -8.0330 C.3     1  UNL1        0.2160
     24  C         18.5980  -22.7990   -6.9970 C.2     1  UNL1       -0.0120
     25  C         17.7440  -23.8990   -7.1910 C.2     1  UNL1        0.0130
     26  C         16.7820  -24.2380   -6.2360 C.2     1  UNL1        0.0240
     27  C         16.6600  -23.4800   -5.0750 C.2     1  UNL1        0.0350
     28 CL         15.4750  -23.9000   -3.9020 Cl      1  UNL1       -0.0840
     29  C         17.4860  -22.3810   -4.8620 C.2     1  UNL1        0.0480
     30  C         18.4470  -22.0420   -5.8180 C.2     1  UNL1        0.0440
     31 CL         19.4330  -20.6570   -5.5020 Cl      1  UNL1       -0.0840
@<TRIPOS>BOND
     1     1     2    3
     2     2     3    1
     3     4     3    2
     4     4    14    1
     5     3     5    1
     6     9     7    1
     7    13    10    1
     8     7     5   am
     9     7     8   am
    10    14    21    2
    11    14    15    1
    12    21    19    1
    13     5     6    2
    14    10     8   am
    15    10    12    1
    16     8    11    2
    17    15    16    2
    18    19    20    1
    19    19    18    2
    20    16    18    1
    21    16    17    1
    22    18    22    1
    23    22    23    1
    24    23    24    1
    25    25    24    2
    26    25    26    1
    27    24    30    1
    28    26    27    2
    29    30    31    1
    30    30    29    2
    31    27    29    1
    32    27    28    1
