@<TRIPOS>MOLECULE
25046_out_ligand_01.pdbqt
 30 31 0 0 0
SMALL
GASTEIGER

@<TRIPOS>ATOM
      1  N         27.0900  -23.4380  -13.6890 N.1     1  UNL1       -0.1910
      2  C         26.2600  -23.0140  -12.9990 C.1     1  UNL1        0.1050
      3  C         25.1800  -22.5410  -12.1990 C.2     1  UNL1        0.1130
      4  C         24.0950  -23.3160  -12.0000 C.2     1  UNL1        0.0390
      5  C         25.3530  -21.1980  -11.5770 C.2     1  UNL1        0.2690
      6  O         24.9300  -20.9960  -10.4460 O.2     1  UNL1       -0.2660
      7  N         25.9100  -20.2570  -12.4180 N.am    1  UNL1       -0.2790
      8  C         26.6060  -19.1710  -11.9700 C.2     1  UNL1        0.2980
      9  H         26.1670  -20.5370  -13.3500 H       1  UNL1        0.1730
     10  N         27.0030  -18.3620  -12.9980 N.am    1  UNL1       -0.2540
     11  O         26.9150  -18.9000  -10.8210 O.2     1  UNL1       -0.2540
     12  H         27.4520  -17.5190  -12.6520 H       1  UNL1        0.1280
     13  H         26.3060  -18.1680  -13.7050 H       1  UNL1        0.1280
     14  C         22.9440  -23.0070  -11.1450 C.2     1  UNL1       -0.0330
     15  C         22.8750  -23.4520   -9.8220 C.2     1  UNL1        0.0140
     16  C         21.7690  -23.1420   -9.0200 C.2     1  UNL1        0.0390
     17  C         20.7100  -22.3890   -9.5330 C.2     1  UNL1        0.0860
     18  C         20.7780  -21.9560  -10.8660 C.2     1  UNL1        0.0450
     19 BR         19.3840  -20.9240  -11.6460 Br      1  UNL1       -0.0480
     20  C         21.8820  -22.2660  -11.6700 C.2     1  UNL1        0.0330
     21  O         19.5970  -22.0280   -8.8240 O.2     1  UNL1       -0.3450
     22  C         19.5980  -22.2520   -7.4130 C.3     1  UNL1        0.2160
     23  C         18.3130  -22.9240   -6.9550 C.2     1  UNL1       -0.0130
     24  C         17.6870  -23.9170   -7.7280 C.2     1  UNL1        0.0110
     25  C         16.5100  -24.5300   -7.2930 C.2     1  UNL1        0.0010
     26  C         15.9360  -24.1630   -6.0790 C.2     1  UNL1        0.0020
     27  C         16.5420  -23.1840   -5.2940 C.2     1  UNL1        0.0230
     28  C         17.7240  -22.5640   -5.7230 C.2     1  UNL1        0.0530
     29  C         18.3190  -21.5620   -4.8820 C.1     1  UNL1        0.1000
     30  N         18.8260  -20.7500   -4.2280 N.1     1  UNL1       -0.1910
@<TRIPOS>BOND
     1    13    10    1
     2     1     2    3
     3     9     7    1
     4     2     3    1
     5    10    12    1
     6    10     8   am
     7     7     8   am
     8     7     5   am
     9     3     4    2
    10     3     5    1
    11     4    14    1
    12     8    11    2
    13    20    14    2
    14    20    18    1
    15    19    18    1
    16     5     6    2
    17    14    15    1
    18    18    17    2
    19    15    16    2
    20    17    16    1
    21    17    21    1
    22    21    22    1
    23    24    25    1
    24    24    23    2
    25    22    23    1
    26    25    26    2
    27    23    28    1
    28    26    27    1
    29    28    27    2
    30    28    29    1
    31    29    30    3
