@<TRIPOS>MOLECULE
25042_out_ligand_01.pdbqt
 35 37 0 0 0
SMALL
GASTEIGER

@<TRIPOS>ATOM
      1  C         24.6260  -22.6900  -14.3350 C.2     1  UNL1        0.0410
      2  C         25.2410  -21.8730  -15.2180 C.2     1  UNL1        0.1130
      3  C         25.6780  -22.3970  -16.4680 C.1     1  UNL1        0.1050
      4  N         25.9690  -22.8740  -17.4860 N.1     1  UNL1       -0.1910
      5  C         25.5760  -20.4400  -14.9450 C.2     1  UNL1        0.2690
      6  O         25.7530  -20.0700  -13.7910 O.2     1  UNL1       -0.2660
      7  N         25.6300  -19.6440  -16.0700 N.am    1  UNL1       -0.2790
      8  C         26.1340  -18.3730  -16.1130 C.2     1  UNL1        0.2980
      9  H         25.5120  -20.0630  -16.9770 H       1  UNL1        0.1730
     10  N         25.9200  -17.7850  -17.3280 N.am    1  UNL1       -0.2540
     11  O         26.7490  -17.7790  -15.2430 O.2     1  UNL1       -0.2540
     12  H         24.9920  -17.8870  -17.7220 H       1  UNL1        0.1280
     13  H         26.2330  -16.8200  -17.3290 H       1  UNL1        0.1280
     14  C         24.1800  -22.3340  -12.9790 C.2     1  UNL1       -0.0140
     15  C         22.8770  -21.8260  -12.8440 C.2     1  UNL1        0.0520
     16  C         22.4050  -21.3900  -11.6030 C.2     1  UNL1        0.1020
     17  C         23.2400  -21.4770  -10.4710 C.2     1  UNL1        0.1030
     18  C         24.5240  -22.0150  -10.5940 C.2     1  UNL1        0.0590
     19  C         24.9900  -22.4460  -11.8410 C.2     1  UNL1        0.0240
     20 BR         26.7370  -23.1910  -11.9110 Br      1  UNL1       -0.0500
     21  O         21.1650  -20.8470  -11.3850 O.2     1  UNL1       -0.3490
     22  C         19.9940  -21.5140  -11.8480 C.3     1  UNL1        0.1710
     23  C         18.9640  -21.6540  -10.7400 C.3     1  UNL1        0.0340
     24  O         22.7040  -21.0080   -9.2990 O.2     1  UNL1       -0.3440
     25  C         22.6760  -21.8790   -8.1670 C.3     1  UNL1        0.2150
     26  C         21.4350  -22.7580   -8.1570 C.2     1  UNL1       -0.0230
     27  C         21.3750  -23.9080   -8.9660 C.2     1  UNL1        0.0100
     28  C         20.2500  -24.7250   -8.9680 C.2     1  UNL1        0.0020
     29  C         19.1630  -24.4100   -8.1610 C.2     1  UNL1        0.0120
     30  C         19.1850  -23.2770   -7.3370 C.2     1  UNL1       -0.0250
     31  C         18.0760  -22.9800   -6.5260 C.2     1  UNL1        0.0120
     32  C         20.3250  -22.4330   -7.3220 C.2     1  UNL1       -0.0180
     33  C         18.0720  -21.8610   -5.6970 C.2     1  UNL1        0.0010
     34  C         19.1790  -21.0230   -5.6660 C.2     1  UNL1        0.0010
     35  C         20.2880  -21.3050   -6.4660 C.2     1  UNL1        0.0130
@<TRIPOS>BOND
     1    12    10    1
     2     4     3    3
     3    13    10    1
     4    10     8   am
     5     9     7    1
     6     3     2    1
     7     8     7   am
     8     8    11    2
     9     7     5   am
    10     2     5    1
    11     2     1    2
    12     5     6    2
    13     1    14    1
    14    14    15    2
    15    14    19    1
    16    15    16    1
    17    20    19    1
    18    22    21    1
    19    22    23    1
    20    19    18    2
    21    16    21    1
    22    16    17    2
    23    18    17    1
    24    17    24    1
    25    24    25    1
    26    28    27    1
    27    28    29    2
    28    27    26    2
    29    25    26    1
    30    29    30    1
    31    26    32    1
    32    30    32    2
    33    30    31    1
    34    32    35    1
    35    31    33    2
    36    35    34    2
    37    33    34    1
