@<TRIPOS>MOLECULE
25047_out_ligand_01.pdbqt
 35 37 0 0 0
SMALL
GASTEIGER

@<TRIPOS>ATOM
      1  C         22.8360  -21.3910  -13.6020 C.2     1  UNL1        0.0400
      2  C         24.1800  -21.2900  -13.6770 C.2     1  UNL1        0.1130
      3  C         24.7920  -20.8700  -14.8940 C.1     1  UNL1        0.1050
      4  N         25.2370  -20.5650  -15.9210 N.1     1  UNL1       -0.1910
      5  C         25.0910  -21.5570  -12.5290 C.2     1  UNL1        0.2690
      6  O         25.2660  -20.6980  -11.6720 O.2     1  UNL1       -0.2660
      7  N         25.8190  -22.7210  -12.6390 N.am    1  UNL1       -0.2790
      8  C         26.0350  -23.5040  -11.5390 C.2     1  UNL1        0.2980
      9  H         25.6960  -23.2790  -13.4710 H       1  UNL1        0.1730
     10  N         26.7670  -24.6170  -11.8370 N.am    1  UNL1       -0.2540
     11  O         25.6130  -23.3280  -10.4090 O.2     1  UNL1       -0.2540
     12  H         27.5890  -24.4650  -12.4090 H       1  UNL1        0.1280
     13  H         26.9800  -25.1450  -10.9950 H       1  UNL1        0.1280
     14  C         22.0280  -21.7330  -12.4240 C.2     1  UNL1       -0.0300
     15  C         20.8140  -21.0690  -12.2230 C.2     1  UNL1        0.0510
     16  C         20.0270  -21.3640  -11.1090 C.2     1  UNL1        0.1040
     17  C         20.4770  -22.2710  -10.1420 C.2     1  UNL1        0.1240
     18  C         21.6850  -22.9440  -10.3430 C.2     1  UNL1        0.0710
     19  C         22.4610  -22.6700  -11.4750 C.2     1  UNL1        0.0380
     20 CL         22.2670  -24.1030   -9.2050 Cl      1  UNL1       -0.0810
     21  O         18.8610  -20.6580  -10.9680 O.2     1  UNL1       -0.3490
     22  C         17.7580  -21.3490  -11.5660 C.3     1  UNL1        0.1710
     23  C         16.7780  -21.7080  -10.4650 C.3     1  UNL1        0.0340
     24  O         19.7120  -22.5250   -9.0320 O.2     1  UNL1       -0.3420
     25  C         20.4180  -22.1590   -7.8360 C.3     1  UNL1        0.2150
     26  C         19.4730  -21.9340   -6.6650 C.2     1  UNL1       -0.0230
     27  C         19.7650  -20.9470   -5.7030 C.2     1  UNL1        0.0100
     28  C         18.9230  -20.7300   -4.6170 C.2     1  UNL1        0.0020
     29  C         17.7740  -21.5000   -4.4680 C.2     1  UNL1        0.0120
     30  C         17.4550  -22.5040   -5.3940 C.2     1  UNL1       -0.0250
     31  C         16.2950  -23.2770   -5.2170 C.2     1  UNL1        0.0120
     32  C         18.3070  -22.7410   -6.5060 C.2     1  UNL1       -0.0180
     33  C         15.9590  -24.2860   -6.1170 C.2     1  UNL1        0.0010
     34  C         16.7820  -24.5370   -7.2060 C.2     1  UNL1        0.0010
     35  C         17.9380  -23.7770   -7.3970 C.2     1  UNL1        0.0130
@<TRIPOS>BOND
     1     4     3    3
     2     3     2    1
     3     2     1    2
     4     2     5    1
     5     1    14    1
     6     9     7    1
     7     7     5   am
     8     7     8   am
     9     5     6    2
    10    14    15    2
    11    14    19    1
    12    12    10    1
    13    15    16    1
    14    10     8   am
    15    10    13    1
    16    22    21    1
    17    22    23    1
    18     8    11    2
    19    19    18    2
    20    16    21    1
    21    16    17    2
    22    18    17    1
    23    18    20    1
    24    17    24    1
    25    24    25    1
    26    25    26    1
    27    35    34    2
    28    35    32    1
    29    34    33    1
    30    26    32    2
    31    26    27    1
    32    32    30    1
    33    33    31    2
    34    27    28    2
    35    30    31    1
    36    30    29    2
    37    28    29    1
