@<TRIPOS>MOLECULE
25057_out_ligand_01.pdbqt
 36 38 0 0 0
SMALL
GASTEIGER

@<TRIPOS>ATOM
      1  C         17.8430  -22.4350   -5.4900 C.2     1  UNL1        0.0390
      2  C         16.5830  -22.7650   -5.8340 C.2     1  UNL1        0.1130
      3  C         15.5470  -22.7360   -4.8620 C.1     1  UNL1        0.1050
      4  N         14.7340  -22.6620   -4.0370 N.1     1  UNL1       -0.1910
      5  C         16.2080  -23.2110   -7.2040 C.2     1  UNL1        0.2620
      6  O         15.5190  -24.2080   -7.3760 O.2     1  UNL1       -0.2670
      7  N         16.6680  -22.4050   -8.2180 N.am    1  UNL1       -0.3480
      8  H         17.2490  -21.6050   -8.0040 H       1  UNL1        0.1630
      9  C         16.3690  -22.6610   -9.6170 C.3     1  UNL1        0.1140
     10  C         14.9940  -22.0980   -9.9670 C.3     1  UNL1        0.0370
     11  C         17.4970  -22.1340  -10.4850 C.2     1  UNL1       -0.0360
     12  C         17.3820  -20.9660  -11.2560 C.2     1  UNL1        0.0090
     13  C         18.4420  -20.5360  -12.0620 C.2     1  UNL1        0.0010
     14  C         19.6350  -21.2560  -12.0960 C.2     1  UNL1        0.0000
     15  C         19.7780  -22.3970  -11.3120 C.2     1  UNL1        0.0010
     16  C         18.7190  -22.8310  -10.5100 C.2     1  UNL1        0.0090
     17  C         19.0270  -22.4970   -6.3550 C.2     1  UNL1       -0.0330
     18  C         19.9210  -21.4220   -6.3670 C.2     1  UNL1        0.0140
     19  C         21.0600  -21.4560   -7.1760 C.2     1  UNL1        0.0390
     20  C         21.3120  -22.5670   -7.9840 C.2     1  UNL1        0.0910
     21  C         20.4420  -23.6630   -7.9360 C.2     1  UNL1        0.0680
     22  C         19.3010  -23.6280   -7.1310 C.2     1  UNL1        0.0380
     23 CL         20.7470  -25.0820   -8.8750 Cl      1  UNL1       -0.0810
     24  O         22.4160  -22.6600   -8.7910 O.2     1  UNL1       -0.3400
     25  C         23.0870  -21.4250   -9.0350 C.3     1  UNL1        0.2780
     26  C         23.9810  -21.5230  -10.2720 C.2     1  UNL1        0.2460
     27  N         23.3980  -22.2360  -11.3030 N.am    1  UNL1       -0.3250
     28  H         22.4900  -22.6380  -11.0820 H       1  UNL1        0.1690
     29  O         25.0840  -20.9800  -10.2840 O.2     1  UNL1       -0.2710
     30  C         23.9130  -22.5000  -12.5850 C.2     1  UNL1        0.0340
     31  C         24.7710  -23.5620  -12.8800 C.2     1  UNL1        0.0300
     32  C         25.2380  -23.7590  -14.1890 C.2     1  UNL1        0.0090
     33  C         24.8440  -22.9050  -15.2250 C.2     1  UNL1       -0.0620
     34  C         25.3640  -23.1120  -16.6210 C.3     1  UNL1        0.0480
     35  C         23.9980  -21.8300  -14.9250 C.2     1  UNL1        0.0090
     36  C         23.5360  -21.6320  -13.6160 C.2     1  UNL1        0.0300
@<TRIPOS>BOND
     1    34    33    1
     2    33    35    2
     3    33    32    1
     4    35    36    1
     5    32    31    2
     6    36    30    2
     7    31    30    1
     8    30    27    1
     9    14    13    2
    10    14    15    1
    11    13    12    1
    12    15    16    2
    13    27    28    1
    14    27    26   am
    15    12    11    2
    16    16    11    1
    17    11     9    1
    18    29    26    2
    19    26    25    1
    20    10     9    1
    21     9     7    1
    22    25    24    1
    23    23    21    1
    24    24    20    1
    25     7     8    1
    26     7     5   am
    27    20    21    2
    28    20    19    1
    29    21    22    1
    30     6     5    2
    31     5     2    1
    32    19    18    2
    33    22    17    2
    34    18    17    1
    35    17     1    1
    36     2     1    2
    37     2     3    1
    38     3     4    3
