@<TRIPOS>MOLECULE
25051_out_ligand_01.pdbqt
 37 39 0 0 0
SMALL
GASTEIGER

@<TRIPOS>ATOM
      1  C         21.0830  -23.2910   -8.3190 C.2     1  UNL1       -0.0580
      2  C         20.6470  -22.1840   -7.5750 C.2     1  UNL1        0.0090
      3  C         19.4550  -22.2360   -6.8480 C.2     1  UNL1        0.0260
      4  C         18.6740  -23.3920   -6.8850 C.2     1  UNL1        0.0790
      5  C         19.0830  -24.5020   -7.6240 C.2     1  UNL1        0.0260
      6  C         20.2790  -24.4440   -8.3400 C.2     1  UNL1        0.0090
      7  C         22.3550  -23.2980   -9.1390 C.3     1  UNL1        0.0480
      8  C         23.2510  -22.0590   -9.0980 C.3     1  UNL1        0.1080
      9  C         23.9790  -21.7670  -10.4000 C.2     1  UNL1        0.2220
     10  N         23.4880  -22.4750  -11.4810 N.am    1  UNL1       -0.3270
     11  H         22.6930  -23.0760  -11.3130 H       1  UNL1        0.1690
     12  O         24.8790  -20.9320  -10.4230 O.2     1  UNL1       -0.2730
     13  C         23.9700  -22.4570  -12.8070 C.2     1  UNL1        0.0340
     14  C         23.4820  -21.4460  -13.6490 C.2     1  UNL1        0.0310
     15  C         23.9050  -21.3560  -14.9770 C.2     1  UNL1        0.0270
     16  C         24.8290  -22.2780  -15.4680 C.2     1  UNL1        0.0740
     17  C         25.3110  -23.2990  -14.6500 C.2     1  UNL1        0.0270
     18  C         24.8820  -23.3830  -13.3210 C.2     1  UNL1        0.0310
     19  S         25.3650  -22.1680  -17.1550 S.O2    1  UNL1        0.2390
     20  O         26.4070  -23.1450  -17.3670 O.2     1  UNL1       -0.2060
     21  O         25.5200  -20.7730  -17.5000 O.2     1  UNL1       -0.2060
     22  N         23.9890  -22.6900  -17.9770 N.3     1  UNL1       -0.2250
     23  H         23.3480  -23.2230  -17.3910 H       1  UNL1        0.1360
     24  H         23.5330  -21.8770  -18.3980 H       1  UNL1        0.1360
     25  S         17.1470  -23.4390   -5.9820 S.O2    1  UNL1        0.2580
     26  O         17.1610  -24.5990   -5.1220 O.2     1  UNL1       -0.2010
     27  O         16.9030  -22.1120   -5.4620 O.2     1  UNL1       -0.2010
     28  N         16.0030  -23.6870   -7.1850 N.3     1  UNL1       -0.3150
     29  H         15.1830  -24.1920   -6.8500 H       1  UNL1        0.1720
     30  C         15.8140  -22.7410   -8.2930 C.3     1  UNL1        0.1370
     31  C         16.2000  -23.3150   -9.6570 C.3     1  UNL1        0.0580
     32  C         17.2020  -22.4280  -10.3570 C.2     1  UNL1       -0.0570
     33  C         18.4870  -22.9050  -10.6530 C.2     1  UNL1        0.0070
     34  C         19.4030  -22.0930  -11.3220 C.2     1  UNL1        0.0010
     35  C         19.0420  -20.8030  -11.7090 C.2     1  UNL1        0.0000
     36  C         17.7690  -20.3190  -11.4160 C.2     1  UNL1        0.0010
     37  C         16.8510  -21.1270  -10.7420 C.2     1  UNL1        0.0070
@<TRIPOS>BOND
     1    24    22    1
     2    22    23    1
     3    22    19    1
     4    21    19    2
     5    20    19    2
     6    19    16    1
     7    16    15    2
     8    16    17    1
     9    15    14    1
    10    17    18    2
    11    14    13    2
    12    18    13    1
    13    13    10    1
    14    35    36    2
    15    35    34    1
    16    10    11    1
    17    10     9   am
    18    36    37    1
    19    34    33    2
    20    37    32    2
    21    33    32    1
    22    12     9    2
    23     9     8    1
    24    32    31    1
    25    31    30    1
    26     7     8    1
    27     7     1    1
    28     6     1    2
    29     6     5    1
    30     1     2    1
    31    30    28    1
    32     5     4    2
    33     2     3    2
    34    28    29    1
    35    28    25    1
    36     4     3    1
    37     4    25    1
    38    25    27    2
    39    25    26    2
