@<TRIPOS>MOLECULE
25058_out_ligand_01.pdbqt
 35 37 0 0 0
SMALL
GASTEIGER

@<TRIPOS>ATOM
      1  C         21.2810  -23.4270   -8.4370 C.2     1  UNL1       -0.0580
      2  C         20.4430  -24.5520   -8.4490 C.2     1  UNL1        0.0090
      3  C         19.2430  -24.5490   -7.7380 C.2     1  UNL1        0.0260
      4  C         18.8850  -23.4190   -6.9970 C.2     1  UNL1        0.0790
      5  C         19.7070  -22.2900   -6.9760 C.2     1  UNL1        0.0260
      6  C         20.9020  -22.2970   -7.6970 C.2     1  UNL1        0.0090
      7  C         22.5580  -23.4180   -9.2480 C.3     1  UNL1        0.0480
      8  C         23.1610  -22.0170   -9.3520 C.3     1  UNL1        0.1080
      9  C         24.2030  -21.9100  -10.4590 C.2     1  UNL1        0.2220
     10  N         24.1510  -22.9830  -11.3330 N.am    1  UNL1       -0.3270
     11  H         23.4460  -23.6790  -11.1350 H       1  UNL1        0.1690
     12  O         24.9430  -20.9370  -10.5470 O.2     1  UNL1       -0.2730
     13  C         24.9770  -23.2330  -12.4570 C.2     1  UNL1        0.0430
     14  C         24.5770  -22.9360  -13.7670 C.2     1  UNL1        0.0660
     15  C         25.4360  -23.1950  -14.8470 C.2     1  UNL1        0.1050
     16  C         26.6990  -23.7500  -14.6370 C.2     1  UNL1        0.0370
     17  C         27.1040  -24.0470  -13.3370 C.2     1  UNL1        0.0110
     18  C         26.2580  -23.7960  -12.2410 C.2     1  UNL1       -0.0350
     19  C         26.7660  -24.1430  -10.8630 C.3     1  UNL1        0.0500
     20  N         25.0050  -22.8800  -16.2160 N.pl3   1  UNL1       -0.1160
     21  O         24.2490  -21.9130  -16.3810 O.2     1  UNL1       -0.5320
     22  O         25.4260  -23.6040  -17.1310 O.2     1  UNL1       -0.5320
     23  S         17.3540  -23.4260   -6.1020 S.O2    1  UNL1        0.2580
     24  O         17.0710  -22.0630   -5.7110 O.2     1  UNL1       -0.2010
     25  O         17.3930  -24.5070   -5.1400 O.2     1  UNL1       -0.2010
     26  N         16.2490  -23.8300   -7.2850 N.3     1  UNL1       -0.3150
     27  H         15.6760  -24.6500   -7.1010 H       1  UNL1        0.1720
     28  C         15.8610  -22.8630   -8.3100 C.3     1  UNL1        0.1370
     29  C         16.3410  -23.3190   -9.6940 C.3     1  UNL1        0.0580
     30  C         17.3350  -22.4360  -10.4200 C.2     1  UNL1       -0.0570
     31  C         18.6570  -22.8260  -10.6770 C.2     1  UNL1        0.0070
     32  C         19.5380  -21.9630  -11.3340 C.2     1  UNL1        0.0010
     33  C         19.1150  -20.6970  -11.7320 C.2     1  UNL1        0.0000
     34  C         17.8100  -20.2900  -11.4720 C.2     1  UNL1        0.0010
     35  C         16.9290  -21.1500  -10.8150 C.2     1  UNL1        0.0070
@<TRIPOS>BOND
     1    22    20    2
     2    21    20    2
     3    20    15    1
     4    15    16    2
     5    15    14    1
     6    16    17    1
     7    14    13    2
     8    17    18    2
     9    13    18    1
    10    13    10    1
    11    18    19    1
    12    33    34    2
    13    33    32    1
    14    34    35    1
    15    32    31    2
    16    10    11    1
    17    10     9   am
    18    35    30    2
    19    31    30    1
    20    12     9    2
    21     9     8    1
    22    30    29    1
    23    29    28    1
    24     8     7    1
    25     7     1    1
    26     2     1    2
    27     2     3    1
    28     1     6    1
    29    28    26    1
    30     3     4    2
    31     6     5    2
    32    26    27    1
    33    26    23    1
    34     4     5    1
    35     4    23    1
    36    23    24    2
    37    23    25    2
