@<TRIPOS>MOLECULE
25074_out_ligand_01.pdbqt
 35 37 0 0 0
SMALL
GASTEIGER

@<TRIPOS>ATOM
      1  C         22.7310  -21.5230  -13.9510 C.2     1  UNL1        0.0400
      2  C         24.0550  -21.4760  -14.2090 C.2     1  UNL1        0.1130
      3  C         24.4990  -21.2320  -15.5410 C.1     1  UNL1        0.1050
      4  N         24.7950  -21.0750  -16.6520 N.1     1  UNL1       -0.1910
      5  C         25.1180  -21.6200  -13.1720 C.2     1  UNL1        0.2690
      6  O         25.4710  -20.6440  -12.5200 O.2     1  UNL1       -0.2660
      7  N         25.7600  -22.8380  -13.1670 N.am    1  UNL1       -0.2790
      8  C         26.0980  -23.4350  -11.9850 C.2     1  UNL1        0.2980
      9  H         25.4850  -23.5200  -13.8550 H       1  UNL1        0.1730
     10  N         26.7030  -24.6440  -12.1780 N.am    1  UNL1       -0.2540
     11  O         25.8770  -23.0260  -10.8570 O.2     1  UNL1       -0.2540
     12  H         27.4250  -24.6700  -12.8850 H       1  UNL1        0.1280
     13  H         27.0070  -25.0500  -11.2970 H       1  UNL1        0.1280
     14  C         22.0710  -21.6950  -12.6500 C.2     1  UNL1       -0.0300
     15  C         20.8150  -21.1030  -12.4480 C.2     1  UNL1        0.0510
     16  C         20.1460  -21.2350  -11.2260 C.2     1  UNL1        0.1040
     17  C         20.7700  -21.9400  -10.1830 C.2     1  UNL1        0.1190
     18  C         22.0230  -22.5330  -10.3800 C.2     1  UNL1        0.0480
     19  C         22.6780  -22.3990  -11.6050 C.2     1  UNL1        0.0330
     20 BR         22.8820  -23.5190   -9.0050 Br      1  UNL1       -0.0480
     21  O         18.9120  -20.7140  -10.9480 O.2     1  UNL1       -0.3490
     22  C         17.7480  -21.2870  -11.5370 C.3     1  UNL1        0.1710
     23  C         16.7200  -21.6200  -10.4700 C.3     1  UNL1        0.0340
     24  O         20.1280  -22.1200   -8.9800 O.2     1  UNL1       -0.3420
     25  C         19.4900  -23.4050   -8.9210 C.3     1  UNL1        0.2150
     26  C         18.4930  -23.4980   -7.7740 C.2     1  UNL1       -0.0230
     27  C         17.4750  -24.4670   -7.8000 C.2     1  UNL1        0.0100
     28  C         16.5590  -24.5740   -6.7580 C.2     1  UNL1        0.0020
     29  C         16.6470  -23.7140   -5.6690 C.2     1  UNL1        0.0120
     30  C         17.6510  -22.7390   -5.6010 C.2     1  UNL1       -0.0250
     31  C         17.7240  -21.8850   -4.4880 C.2     1  UNL1        0.0120
     32  C         18.5930  -22.6180   -6.6550 C.2     1  UNL1       -0.0180
     33  C         18.7140  -20.9100   -4.3950 C.2     1  UNL1        0.0010
     34  C         19.6480  -20.7770   -5.4140 C.2     1  UNL1        0.0010
     35  C         19.5870  -21.6190   -6.5280 C.2     1  UNL1        0.0130
@<TRIPOS>BOND
     1     4     3    3
     2     3     2    1
     3     2     1    2
     4     2     5    1
     5     1    14    1
     6     9     7    1
     7     5     7   am
     8     5     6    2
     9     7     8   am
    10    12    10    1
    11    14    15    2
    12    14    19    1
    13    15    16    1
    14    10     8   am
    15    10    13    1
    16     8    11    2
    17    19    18    2
    18    22    21    1
    19    22    23    1
    20    16    21    1
    21    16    17    2
    22    18    17    1
    23    18    20    1
    24    17    24    1
    25    24    25    1
    26    25    26    1
    27    27    26    2
    28    27    28    1
    29    26    32    1
    30    28    29    2
    31    32    35    1
    32    32    30    2
    33    35    34    2
    34    29    30    1
    35    30    31    1
    36    34    33    1
    37    31    33    2
