@<TRIPOS>MOLECULE
25087_out_ligand_01.pdbqt
 32 34 0 0 0
SMALL
GASTEIGER

@<TRIPOS>ATOM
      1  C         21.1660  -23.3390   -8.3860 C.2     1  UNL1       -0.0580
      2  C         20.7480  -22.2180   -7.6480 C.2     1  UNL1        0.0090
      3  C         19.5610  -22.2440   -6.9150 C.2     1  UNL1        0.0260
      4  C         18.7670  -23.3920   -6.9350 C.2     1  UNL1        0.0790
      5  C         19.1630  -24.5160   -7.6630 C.2     1  UNL1        0.0260
      6  C         20.3510  -24.4800   -8.3970 C.2     1  UNL1        0.0090
      7  C         22.4540  -23.2580   -9.1780 C.3     1  UNL1        0.0480
      8  C         23.1400  -21.8930   -9.2410 C.3     1  UNL1        0.1080
      9  C         23.9870  -21.6990  -10.4870 C.2     1  UNL1        0.2220
     10  N         23.5520  -22.4550  -11.5600 N.am    1  UNL1       -0.3270
     11  H         22.7900  -23.0970  -11.3910 H       1  UNL1        0.1690
     12  O         24.9580  -20.9510  -10.4590 O.2     1  UNL1       -0.2730
     13  C         24.0780  -22.4650  -12.8700 C.2     1  UNL1        0.0340
     14  C         23.7280  -21.5480  -13.8590 C.2     1  UNL1        0.0300
     15  C         24.2900  -21.6330  -15.1390 C.2     1  UNL1        0.0090
     16  C         25.2020  -22.6440  -15.4520 C.2     1  UNL1       -0.0620
     17  C         25.8260  -22.7090  -16.8140 C.3     1  UNL1        0.0480
     18  C         25.5630  -23.5580  -14.4580 C.2     1  UNL1        0.0090
     19  C         25.0000  -23.4720  -13.1800 C.2     1  UNL1        0.0300
     20  S         17.2650  -23.4270   -5.9930 S.O2    1  UNL1        0.2580
     21  O         17.0280  -22.0920   -5.4900 O.2     1  UNL1       -0.2010
     22  O         17.2990  -24.5730   -5.1130 O.2     1  UNL1       -0.2010
     23  N         16.0930  -23.6910   -7.1640 N.3     1  UNL1       -0.3150
     24  H         15.2920  -24.2140   -6.8110 H       1  UNL1        0.1720
     25  C         15.8650  -22.7570   -8.2730 C.3     1  UNL1        0.1370
     26  C         16.2560  -23.3310   -9.6340 C.3     1  UNL1        0.0580
     27  C         17.2380  -22.4300  -10.3430 C.2     1  UNL1       -0.0570
     28  C         18.5260  -22.8880  -10.6510 C.2     1  UNL1        0.0070
     29  C         19.4250  -22.0620  -11.3280 C.2     1  UNL1        0.0010
     30  C         19.0440  -20.7760  -11.7070 C.2     1  UNL1        0.0000
     31  C         17.7640  -20.3140  -11.4090 C.2     1  UNL1        0.0010
     32  C         16.8640  -21.1360  -10.7290 C.2     1  UNL1        0.0070
@<TRIPOS>BOND
     1    17    16    1
     2    16    15    2
     3    16    18    1
     4    15    14    1
     5    18    19    2
     6    14    13    2
     7    19    13    1
     8    13    10    1
     9    30    31    2
    10    30    29    1
    11    10    11    1
    12    10     9   am
    13    31    32    1
    14    29    28    2
    15    32    27    2
    16    28    27    1
    17     9    12    2
    18     9     8    1
    19    27    26    1
    20    26    25    1
    21     8     7    1
    22     7     1    1
    23     6     1    2
    24     6     5    1
    25     1     2    1
    26    25    23    1
    27     5     4    2
    28     2     3    2
    29    23    24    1
    30    23    20    1
    31     4     3    1
    32     4    20    1
    33    20    21    2
    34    20    22    2
