@<TRIPOS>MOLECULE
25099_out_ligand_01.pdbqt
 34 36 0 0 0
SMALL
GASTEIGER

@<TRIPOS>ATOM
      1  N         13.8760  -24.2120   -5.0490 N.1     1  UNL1       -0.1910
      2  C         14.9450  -24.0060   -5.4490 C.1     1  UNL1        0.1050
      3  C         16.2210  -23.7230   -6.0140 C.2     1  UNL1        0.1130
      4  C         16.4210  -23.8150   -7.3430 C.2     1  UNL1        0.0420
      5  C         17.3050  -23.3420   -5.0690 C.2     1  UNL1        0.2690
      6  O         17.7810  -24.1820   -4.3160 O.2     1  UNL1       -0.2660
      7  N         17.6940  -22.0200   -5.1960 N.am    1  UNL1       -0.2790
      8  C         18.5380  -21.3610   -4.3450 C.2     1  UNL1        0.2980
      9  H         17.2450  -21.4390   -5.8860 H       1  UNL1        0.1730
     10  N         18.8190  -20.0950   -4.7830 N.am    1  UNL1       -0.2540
     11  O         19.0070  -21.7640   -3.2940 O.2     1  UNL1       -0.2540
     12  H         19.0430  -19.9970   -5.7620 H       1  UNL1        0.1280
     13  H         19.4980  -19.6390   -4.1820 H       1  UNL1        0.1280
     14  C         17.6460  -23.6430   -8.0610 C.2     1  UNL1       -0.0060
     15  C         18.8440  -24.2510   -7.7600 C.2     1  UNL1        0.1040
     16  N         19.7650  -23.8560   -8.6990 N.pl3   1  UNL1       -0.3460
     17  C         19.1850  -22.9910   -9.6030 C.2     1  UNL1        0.0450
     18  C         19.7220  -22.3320  -10.7220 C.2     1  UNL1        0.0300
     19  C         17.8420  -22.8530   -9.2330 C.2     1  UNL1        0.0020
     20  C         18.8730  -21.5160  -11.4750 C.2     1  UNL1        0.0020
     21  C         17.5360  -21.3610  -11.1260 C.2     1  UNL1        0.0010
     22  C         17.0080  -22.0220  -10.0130 C.2     1  UNL1        0.0140
     23  C         21.1480  -24.3130   -8.7320 C.3     1  UNL1        0.2310
     24  C         22.1330  -23.2430   -9.1760 C.2     1  UNL1        0.2400
     25  O         22.3050  -22.2460   -8.4790 O.2     1  UNL1       -0.2710
     26  N         22.8160  -23.5440  -10.3440 N.am    1  UNL1       -0.3260
     27  H         22.5090  -24.3600  -10.8590 H       1  UNL1        0.1690
     28  C         23.8360  -22.7920  -10.9640 C.2     1  UNL1        0.0340
     29  C         25.1270  -22.6460  -10.4510 C.2     1  UNL1        0.0310
     30  C         26.0820  -21.8870  -11.1390 C.2     1  UNL1        0.0260
     31  C         25.7470  -21.2710  -12.3420 C.2     1  UNL1        0.0340
     32 CL         26.9180  -20.3400  -13.1850 Cl      1  UNL1       -0.0840
     33  C         24.4650  -21.4090  -12.8640 C.2     1  UNL1        0.0260
     34  C         23.5130  -22.1690  -12.1780 C.2     1  UNL1        0.0310
@<TRIPOS>BOND
     1    32    31    1
     2    33    31    2
     3    33    34    1
     4    31    30    1
     5    34    28    2
     6    20    21    2
     7    20    18    1
     8    30    29    2
     9    21    22    1
    10    28    29    1
    11    28    26    1
    12    27    26    1
    13    18    17    2
    14    26    24   am
    15    22    19    2
    16    17    19    1
    17    17    16    1
    18    19    14    1
    19    24    23    1
    20    24    25    2
    21    23    16    1
    22    16    15    1
    23    14    15    2
    24    14     4    1
    25     4     3    2
    26     3     2    1
    27     3     5    1
    28     9     7    1
    29    12    10    1
    30     2     1    3
    31     7     5   am
    32     7     8   am
    33     5     6    2
    34    10     8   am
    35    10    13    1
    36     8    11    2
