@<TRIPOS>MOLECULE
25103_out_ligand_01.pdbqt
 32 34 0 0 0
SMALL
GASTEIGER

@<TRIPOS>ATOM
      1  C         16.6650  -22.5150   -5.6590 C.2     1  UNL1        0.1130
      2  C         15.5960  -22.3330   -4.7350 C.1     1  UNL1        0.1050
      3  N         14.7720  -22.1840   -3.9310 N.1     1  UNL1       -0.1910
      4  C         17.9100  -22.1150   -5.3240 C.2     1  UNL1        0.0390
      5  C         16.3040  -23.1050   -6.9810 C.2     1  UNL1        0.2620
      6  N         16.5850  -22.3180   -8.0700 N.am    1  UNL1       -0.3480
      7  H         17.0240  -21.4160   -7.9450 H       1  UNL1        0.1630
      8  O         15.8290  -24.2320   -7.0600 O.2     1  UNL1       -0.2670
      9  C         16.2900  -22.7310   -9.4320 C.3     1  UNL1        0.1140
     10  C         14.8600  -22.3660   -9.8430 C.3     1  UNL1        0.0370
     11  C         17.3300  -22.1330  -10.3640 C.2     1  UNL1       -0.0360
     12  C         18.5770  -22.7590  -10.5090 C.2     1  UNL1        0.0090
     13  C         19.5570  -22.2140  -11.3400 C.2     1  UNL1        0.0010
     14  C         19.3070  -21.0310  -12.0330 C.2     1  UNL1        0.0000
     15  C         18.0790  -20.3880  -11.8910 C.2     1  UNL1        0.0010
     16  C         17.0990  -20.9310  -11.0580 C.2     1  UNL1        0.0090
     17  C         19.1040  -22.1520   -6.1730 C.2     1  UNL1       -0.0330
     18  C         19.9950  -21.0760   -6.1480 C.2     1  UNL1        0.0140
     19  C         21.1590  -21.0960   -6.9270 C.2     1  UNL1        0.0390
     20  C         21.4410  -22.1870   -7.7530 C.2     1  UNL1        0.0860
     21  C         20.5280  -23.2530   -7.7950 C.2     1  UNL1        0.0450
     22 BR         20.8180  -24.7640   -8.9150 Br      1  UNL1       -0.0480
     23  C         19.3670  -23.2360   -7.0150 C.2     1  UNL1        0.0330
     24  O         22.5600  -22.3020   -8.5330 O.2     1  UNL1       -0.3450
     25  C         22.7470  -21.3560   -9.5850 C.3     1  UNL1        0.2170
     26  C         23.8210  -21.8300  -10.5320 C.2     1  UNL1        0.0040
     27  C         25.1370  -21.3480  -10.4760 C.2     1  UNL1        0.0120
     28  C         26.1100  -21.8410  -11.3510 C.2     1  UNL1        0.0010
     29  C         25.7850  -22.8280  -12.2810 C.2     1  UNL1        0.0030
     30  C         24.4850  -23.3260  -12.3340 C.2     1  UNL1        0.0430
     31  C         23.5210  -22.8300  -11.4610 C.2     1  UNL1        0.1240
     32  F         22.2790  -23.3330  -11.5180 F       1  UNL1       -0.2050
@<TRIPOS>BOND
     1    30    29    2
     2    30    31    1
     3    29    28    1
     4    14    15    2
     5    14    13    1
     6    15    16    1
     7    32    31    1
     8    31    26    2
     9    28    27    2
    10    13    12    2
    11    16    11    2
    12    26    27    1
    13    26    25    1
    14    12    11    1
    15    11     9    1
    16    10     9    1
    17    25    24    1
    18     9     6    1
    19    22    21    1
    20    24    20    1
    21     6     7    1
    22     6     5   am
    23    21    20    2
    24    21    23    1
    25    20    19    1
    26     8     5    2
    27    23    17    2
    28     5     1    1
    29    19    18    2
    30    17    18    1
    31    17     4    1
    32     1     4    2
    33     1     2    1
    34     2     3    3
