@<TRIPOS>MOLECULE
25105_out_ligand_01.pdbqt
 31 33 0 0 0
SMALL
GASTEIGER

@<TRIPOS>ATOM
      1  N         23.1480  -21.0730  -13.9530 N.1     1  UNL1       -0.1910
      2  C         22.3790  -21.2890  -13.1110 C.1     1  UNL1        0.1050
      3  C         21.3790  -21.5880  -12.1420 C.2     1  UNL1        0.1130
      4  C         20.0780  -21.6000  -12.4980 C.2     1  UNL1        0.0390
      5  C         21.8440  -21.8160  -10.7400 C.2     1  UNL1        0.2690
      6  O         22.2490  -20.8700  -10.0760 O.2     1  UNL1       -0.2660
      7  N         21.8360  -23.1420  -10.3580 N.am    1  UNL1       -0.2790
      8  C         21.7900  -23.5480   -9.0540 C.2     1  UNL1        0.2980
      9  H         21.5010  -23.8270  -11.0130 H       1  UNL1        0.1730
     10  N         21.2570  -24.8010   -8.9250 N.am    1  UNL1       -0.2540
     11  O         22.2250  -22.9670   -8.0720 O.2     1  UNL1       -0.2540
     12  H         20.4000  -24.9900   -9.4280 H       1  UNL1        0.1280
     13  H         21.2000  -25.0780   -7.9500 H       1  UNL1        0.1280
     14  C         18.9390  -21.8190  -11.6000 C.2     1  UNL1       -0.0340
     15  C         18.8060  -23.0470  -10.9490 C.2     1  UNL1        0.0140
     16  C         17.7570  -23.2510  -10.0480 C.2     1  UNL1        0.0370
     17  C         16.8250  -22.2420   -9.7970 C.2     1  UNL1        0.0690
     18  C         16.9410  -21.0240  -10.4660 C.2     1  UNL1        0.0370
     19  C         17.9900  -20.8160  -11.3680 C.2     1  UNL1        0.0140
     20  O         15.8650  -22.5710   -8.8830 O.2     1  UNL1       -0.3470
     21  C         16.1470  -23.6580   -7.9950 C.3     1  UNL1        0.2150
     22  C         16.0820  -23.2370   -6.5350 C.2     1  UNL1       -0.0230
     23  C         14.9700  -23.5820   -5.7460 C.2     1  UNL1        0.0100
     24  C         14.8940  -23.2030   -4.4090 C.2     1  UNL1        0.0020
     25  C         15.9280  -22.4690   -3.8360 C.2     1  UNL1        0.0120
     26  C         17.0500  -22.1010   -4.5890 C.2     1  UNL1       -0.0250
     27  C         18.0800  -21.3570   -3.9920 C.2     1  UNL1        0.0120
     28  C         17.1430  -22.4790   -5.9540 C.2     1  UNL1       -0.0180
     29  C         19.2060  -20.9740   -4.7180 C.2     1  UNL1        0.0010
     30  C         19.3150  -21.3310   -6.0550 C.2     1  UNL1        0.0010
     31  C         18.2980  -22.0710   -6.6640 C.2     1  UNL1        0.0130
@<TRIPOS>BOND
     1     1     2    3
     2     2     3    1
     3     4     3    2
     4     4    14    1
     5     3     5    1
     6    14    19    2
     7    14    15    1
     8    19    18    1
     9     9     7    1
    10    15    16    2
    11     5     7   am
    12     5     6    2
    13    18    17    2
    14     7     8   am
    15    16    17    1
    16    17    20    1
    17    12    10    1
    18     8    10   am
    19     8    11    2
    20    10    13    1
    21    20    21    1
    22    21    22    1
    23    31    30    2
    24    31    28    1
    25    22    28    2
    26    22    23    1
    27    30    29    1
    28    28    26    1
    29    23    24    2
    30    29    27    2
    31    26    27    1
    32    26    25    2
    33    24    25    1
