@<TRIPOS>MOLECULE
25108_out_ligand_01.pdbqt
 34 36 0 0 0
SMALL
GASTEIGER

@<TRIPOS>ATOM
      1  C         21.0770  -23.2720   -8.4040 C.2     1  UNL1       -0.0580
      2  C         20.6690  -22.1580   -7.6570 C.2     1  UNL1        0.0090
      3  C         19.4880  -22.1980   -6.9150 C.2     1  UNL1        0.0260
      4  C         18.7080  -23.3560   -6.9260 C.2     1  UNL1        0.0790
      5  C         19.1110  -24.4810   -7.6540 C.2     1  UNL1        0.0260
      6  C         20.2920  -24.4340   -8.3930 C.2     1  UNL1        0.0090
      7  C         22.3750  -23.2330   -9.1790 C.3     1  UNL1        0.0480
      8  C         22.9630  -21.8280   -9.2510 C.3     1  UNL1        0.1080
      9  C         23.8590  -21.6680  -10.4660 C.2     1  UNL1        0.2220
     10  N         23.5350  -22.5470  -11.4870 N.am    1  UNL1       -0.3260
     11  H         23.1830  -23.4340  -11.1520 H       1  UNL1        0.1690
     12  O         24.7770  -20.8560  -10.4670 O.2     1  UNL1       -0.2730
     13  C         24.2000  -22.5850  -12.7380 C.2     1  UNL1        0.0470
     14  C         23.6610  -21.8110  -13.7960 C.2     1  UNL1       -0.0350
     15  C         24.2760  -21.8350  -15.0570 C.2     1  UNL1        0.0090
     16  C         22.4170  -20.9760  -13.6360 C.3     1  UNL1        0.0500
     17  C         25.4210  -22.5900  -15.2730 C.2     1  UNL1        0.0010
     18  C         25.9850  -23.3040  -14.2220 C.2     1  UNL1        0.0090
     19  C         25.4040  -23.3000  -12.9380 C.2     1  UNL1       -0.0310
     20  C         26.2070  -23.9580  -11.8340 C.3     1  UNL1        0.0360
     21  C         27.1210  -22.9710  -11.1200 C.3     1  UNL1        0.0100
     22  S         17.2210  -23.4300   -5.9560 S.O2    1  UNL1        0.2580
     23  O         17.2670  -24.6530   -5.1820 O.2     1  UNL1       -0.2010
     24  O         17.0280  -22.1410   -5.3320 O.2     1  UNL1       -0.2010
     25  N         16.0450  -23.6450   -7.1200 N.3     1  UNL1       -0.3150
     26  H         15.6800  -24.5890   -7.2180 H       1  UNL1        0.1720
     27  C         15.8340  -22.6440   -8.1650 C.3     1  UNL1        0.1370
     28  C         16.1600  -23.2190   -9.5490 C.3     1  UNL1        0.0580
     29  C         17.1840  -22.4250  -10.3250 C.2     1  UNL1       -0.0570
     30  C         16.9270  -21.0990  -10.6990 C.2     1  UNL1        0.0070
     31  C         17.8760  -20.3680  -11.4170 C.2     1  UNL1        0.0010
     32  C         19.0900  -20.9550  -11.7660 C.2     1  UNL1        0.0000
     33  C         19.3580  -22.2710  -11.3970 C.2     1  UNL1        0.0010
     34  C         18.4110  -23.0030  -10.6790 C.2     1  UNL1        0.0070
@<TRIPOS>BOND
     1    17    15    2
     2    17    18    1
     3    15    14    1
     4    18    19    2
     5    14    16    1
     6    14    13    2
     7    19    13    1
     8    19    20    1
     9    13    10    1
    10    20    21    1
    11    32    31    2
    12    32    33    1
    13    10    11    1
    14    10     9   am
    15    31    30    1
    16    33    34    2
    17    30    29    2
    18    34    29    1
    19    12     9    2
    20     9     8    1
    21    29    28    1
    22    28    27    1
    23     8     7    1
    24     7     1    1
    25     1     6    2
    26     1     2    1
    27     6     5    1
    28    27    25    1
    29     2     3    2
    30     5     4    2
    31    26    25    1
    32    25    22    1
    33     4     3    1
    34     4    22    1
    35    22    24    2
    36    22    23    2
