@<TRIPOS>MOLECULE
25110_out_ligand_01.pdbqt
 39 42 0 0 0
SMALL
GASTEIGER

@<TRIPOS>ATOM
      1  C         20.7270  -20.6560  -11.7920 C.3     1  UNL1        0.0480
      2  C         21.0800  -21.1980  -13.1780 C.3     1  UNL1        0.1080
      3  C         22.5770  -21.4070  -13.3540 C.2     1  UNL1        0.2220
      4  O         23.2210  -20.7820  -14.1900 O.2     1  UNL1       -0.2730
      5  N         23.0700  -22.3900  -12.5160 N.am    1  UNL1       -0.3250
      6  H         22.4300  -22.8060  -11.8470 H       1  UNL1        0.1690
      7  C         24.4010  -22.8540  -12.4100 C.2     1  UNL1        0.0700
      8  C         25.0280  -23.6660  -13.3550 C.2     1  UNL1        0.0560
      9  C         26.3490  -24.0770  -13.1580 C.2     1  UNL1        0.0360
     10 CL         27.1130  -25.0900  -14.3240 Cl      1  UNL1       -0.0840
     11  C         27.0620  -23.6830  -12.0250 C.2     1  UNL1        0.0260
     12  C         26.4500  -22.8720  -11.0730 C.2     1  UNL1        0.0410
     13  C         25.1320  -22.4540  -11.2760 C.2     1  UNL1        0.1020
     14  O         24.5080  -21.6920  -10.3140 O.2     1  UNL1       -0.3090
     15  C         23.4730  -22.2720   -9.6100 C.2     1  UNL1        0.0760
     16  C         22.8000  -21.4230   -8.7260 C.2     1  UNL1        0.0370
     17  C         21.7550  -21.9110   -7.9410 C.2     1  UNL1        0.0030
     18  C         21.3890  -23.2520   -8.0280 C.2     1  UNL1        0.0000
     19  C         22.0700  -24.1070   -8.8970 C.2     1  UNL1        0.0030
     20  C         23.1140  -23.6200   -9.6860 C.2     1  UNL1        0.0370
     21  C         19.4480  -21.2650  -11.2570 C.2     1  UNL1       -0.0580
     22  C         18.2110  -20.6550  -11.5160 C.2     1  UNL1        0.0090
     23  C         17.0340  -21.1930  -10.9950 C.2     1  UNL1        0.0260
     24  C         17.0960  -22.3530  -10.2180 C.2     1  UNL1        0.0790
     25  C         18.3200  -22.9670   -9.9420 C.2     1  UNL1        0.0260
     26  C         19.4940  -22.4210  -10.4630 C.2     1  UNL1        0.0090
     27  S         15.6080  -23.0510   -9.5480 S.O2    1  UNL1        0.2580
     28  O         14.5320  -22.1190   -9.7990 O.2     1  UNL1       -0.2010
     29  O         15.5280  -24.4370   -9.9560 O.2     1  UNL1       -0.2010
     30  N         15.9040  -23.0140   -7.8950 N.3     1  UNL1       -0.3150
     31  H         16.5180  -22.2480   -7.6190 H       1  UNL1        0.1720
     32  C         16.0530  -24.2830   -7.1660 C.3     1  UNL1        0.1370
     33  C         17.4730  -24.4040   -6.5980 C.3     1  UNL1        0.0580
     34  C         17.8450  -23.2540   -5.6880 C.2     1  UNL1       -0.0570
     35  C         17.4830  -23.2690   -4.3340 C.2     1  UNL1        0.0070
     36  C         17.8530  -22.2200   -3.4920 C.2     1  UNL1        0.0010
     37  C         18.5830  -21.1430   -3.9920 C.2     1  UNL1        0.0000
     38  C         18.9450  -21.1160   -5.3390 C.2     1  UNL1        0.0010
     39  C         18.5800  -22.1680   -6.1850 C.2     1  UNL1        0.0070
@<TRIPOS>BOND
     1    10     9    1
     2     4     3    2
     3     8     9    1
     4     8     7    2
     5     3     2    1
     6     3     5   am
     7     2     1    1
     8     9    11    2
     9     5     7    1
    10     5     6    1
    11     7    13    1
    12    11    12    1
    13     1    21    1
    14    22    21    2
    15    22    23    1
    16    13    12    2
    17    13    14    1
    18    21    26    1
    19    23    24    2
    20    26    25    2
    21    14    15    1
    22    24    25    1
    23    24    27    1
    24    29    27    2
    25    28    27    2
    26    20    15    2
    27    20    19    1
    28    15    16    1
    29    27    30    1
    30    19    18    2
    31    16    17    2
    32    18    17    1
    33    30    31    1
    34    30    32    1
    35    32    33    1
    36    33    34    1
    37    39    34    2
    38    39    38    1
    39    34    35    1
    40    38    37    2
    41    35    36    2
    42    37    36    1
