@<TRIPOS>MOLECULE
25210_out_ligand_01.pdbqt
 35 37 0 0 0
SMALL
GASTEIGER

@<TRIPOS>ATOM
      1  C         20.6260  -21.6800  -11.8540 C.2     1  UNL1        0.0750
      2  C         21.0480  -21.3870  -13.1330 C.2     1  UNL1        0.0840
      3  S         22.7550  -21.4340  -13.2250 S.3     1  UNL1       -0.0780
      4  C         22.8500  -21.8540  -11.5430 C.2     1  UNL1        0.1200
      5  C         24.1170  -22.0840  -10.9040 C.3     1  UNL1        0.0950
      6  C         25.3230  -21.5600  -11.4650 C.1     1  UNL1        0.1030
      7  N         26.2750  -21.0890  -11.9430 N.1     1  UNL1       -0.1910
      8  N         21.6630  -21.9460  -10.9670 N.2     1  UNL1       -0.2390
      9  C         24.1180  -22.8060   -9.7600 C.3     1  UNL1        0.1140
     10  N         23.2790  -23.8050   -9.2860 N.pl3   1  UNL1       -0.3640
     11  H         23.1820  -24.5870   -9.9380 H       1  UNL1        0.1650
     12  C         22.0410  -23.5620   -8.6540 C.2     1  UNL1        0.0320
     13  C         21.7610  -22.3510   -8.0090 C.2     1  UNL1        0.0310
     14  C         20.5400  -22.1590   -7.3600 C.2     1  UNL1        0.0270
     15  C         19.5900  -23.1800   -7.3790 C.2     1  UNL1        0.0800
     16  C         19.8080  -24.3450   -8.1150 C.2     1  UNL1        0.0270
     17  C         21.0310  -24.5260   -8.7610 C.2     1  UNL1        0.0310
     18  S         18.1150  -23.0130   -6.4020 S.O2    1  UNL1        0.2650
     19  O         17.1610  -22.2760   -7.2070 O.2     1  UNL1       -0.2000
     20  O         17.7630  -24.2930   -5.8240 O.2     1  UNL1       -0.2000
     21  N         18.6130  -21.9460   -5.2150 N.pl3   1  UNL1       -0.2550
     22  C         17.9280  -21.6160   -4.0680 C.cat   1  UNL1        0.1790
     23  N         16.6990  -21.9100   -3.9040 N.pl3   1  UNL1       -0.2730
     24  N         18.6860  -20.9820   -3.1530 N.pl3   1  UNL1       -0.2720
     25  H         16.3760  -21.5580   -3.0030 H       1  UNL1        0.1890
     26  H         19.6640  -21.2400   -3.1810 H       1  UNL1        0.1270
     27  H         18.3380  -21.0720   -2.2070 H       1  UNL1        0.1270
     28  H         19.5680  -21.6400   -5.3590 H       1  UNL1        0.1810
     29  C         19.2310  -21.7230  -11.4150 C.2     1  UNL1       -0.0070
     30  C         18.7000  -22.9310  -10.9410 C.2     1  UNL1        0.0140
     31  C         17.3700  -23.0170  -10.5130 C.2     1  UNL1        0.0070
     32  C         16.5380  -21.8970  -10.5630 C.2     1  UNL1       -0.0620
     33  C         15.1220  -21.9770  -10.0770 C.3     1  UNL1        0.0480
     34  C         17.0610  -20.6870  -11.0220 C.2     1  UNL1        0.0070
     35  C         18.3930  -20.6010  -11.4490 C.2     1  UNL1        0.0140
@<TRIPOS>BOND
     1     3     2    1
     2     3     4    1
     3     2     1    2
     4     7     6    3
     5     1    29    1
     6     1     8    1
     7     4     8    2
     8     4     5    1
     9     6     5    1
    10    35    29    2
    11    35    34    1
    12    29    30    1
    13    34    32    2
    14    30    31    2
    15     5     9    1
    16    32    31    1
    17    32    33    1
    18    11    10    1
    19     9    10    1
    20    10    12    1
    21    17    12    2
    22    17    16    1
    23    12    13    1
    24    16    15    2
    25    13    14    2
    26    15    14    1
    27    15    18    1
    28    19    18    2
    29    18    20    2
    30    18    21    1
    31    28    21    1
    32    21    22    1
    33    22    23    2
    34    22    24    1
    35    23    25    1
    36    26    24    1
    37    24    27    1
