@<TRIPOS>MOLECULE
2523_out_ligand_01.pdbqt
 39 44 0 0 0
SMALL
GASTEIGER

@<TRIPOS>ATOM
      1  C         21.1570  -22.4630  -10.6950 C.2     1  UNL1        0.0350
      2  C         20.2720  -21.5870  -11.3410 C.2     1  UNL1        0.0310
      3  C         18.9050  -21.6160  -11.0570 C.2     1  UNL1        0.0270
      4  C         18.4160  -22.5250  -10.1150 C.2     1  UNL1        0.0790
      5  C         19.2800  -23.4250   -9.4910 C.2     1  UNL1        0.0270
      6  C         20.6500  -23.3840   -9.7750 C.2     1  UNL1        0.0310
      7  N         22.5200  -22.3510  -11.0270 N.am    1  UNL1       -0.3210
      8  C         23.5150  -21.6600  -10.3590 C.2     1  UNL1        0.2790
      9  O         23.3640  -21.0130   -9.3290 O.2     1  UNL1       -0.2650
     10  H         22.8290  -22.8150  -11.8740 H       1  UNL1        0.1690
     11  C         24.8040  -21.7630  -11.0230 C.2     1  UNL1        0.1430
     12  C         25.9890  -21.0850  -10.8150 C.2     1  UNL1        0.0450
     13  C         26.9160  -21.5790  -11.7620 C.2     1  UNL1        0.0370
     14  C         26.2490  -22.5350  -12.4990 C.2     1  UNL1        0.0730
     15  O         24.9640  -22.6570  -12.0540 O.2     1  UNL1       -0.3080
     16  C         26.6550  -23.4140  -13.6240 C.3     1  UNL1        0.2160
     17  N         25.9060  -23.0860  -14.8310 N.ar    1  UNL1       -0.2670
     18  N         25.9580  -21.8210  -15.3080 N.ar    1  UNL1       -0.1760
     19  C         25.1920  -21.8470  -16.4060 C.ar    1  UNL1        0.0700
     20  C         24.9960  -20.6140  -17.2070 C.3     1  UNL1        0.0740
     21  C         24.6730  -23.1380  -16.6280 C.ar    1  UNL1        0.0600
     22  C         25.1460  -23.9320  -15.6090 C.ar    1  UNL1        0.0460
     23 BR         23.5580  -23.6260  -18.0510 Br      1  UNL1       -0.0470
     24  C         24.9440  -25.3690  -15.3020 C.3     1  UNL1        0.0710
     25  S         16.6800  -22.5550   -9.7620 S.O2    1  UNL1        0.2590
     26  O         16.2470  -23.9280   -9.6530 O.2     1  UNL1       -0.2010
     27  O         16.0480  -21.6430  -10.6920 O.2     1  UNL1       -0.2010
     28  N         16.5650  -21.8170   -8.2700 N.3     1  UNL1       -0.3050
     29  H         16.5870  -20.8000   -8.3230 H       1  UNL1        0.1730
     30  C         16.5870  -22.4500   -6.9410 C.3     1  UNL1        0.0410
     31  C         16.6120  -23.9900   -6.9710 C.3     1  UNL1        0.0360
     32  C         16.5790  -24.5580   -5.5400 C.3     1  UNL1       -0.0120
     33  C         15.2890  -24.1010   -4.8410 C.3     1  UNL1        0.0090
     34  C         17.7950  -24.0320   -4.7580 C.3     1  UNL1        0.0090
     35  C         15.2430  -22.5660   -4.7830 C.3     1  UNL1       -0.0120
     36  C         16.4620  -22.0490   -4.0020 C.3     1  UNL1        0.0090
     37  C         15.2890  -22.0070   -6.2140 C.3     1  UNL1        0.0360
     38  C         17.7580  -22.4960   -4.6950 C.3     1  UNL1       -0.0120
     39  C         17.7920  -21.9300   -6.1270 C.3     1  UNL1        0.0360
@<TRIPOS>BOND
     1    23    21    1
     2    20    19    1
     3    21    19   ar
     4    21    22   ar
     5    19    18   ar
     6    22    24    1
     7    22    17   ar
     8    18    17   ar
     9    17    16    1
    10    16    14    1
    11    14    15    1
    12    14    13    2
    13    15    11    1
    14    10     7    1
    15    13    12    1
    16     2     3    1
    17     2     1    2
    18     3     4    2
    19     7     1    1
    20     7     8   am
    21    11    12    2
    22    11     8    1
    23     1     6    1
    24    27    25    2
    25     8     9    2
    26     4    25    1
    27     4     5    1
    28     6     5    2
    29    25    26    2
    30    25    28    1
    31    29    28    1
    32    28    30    1
    33    31    30    1
    34    31    32    1
    35    30    37    1
    36    30    39    1
    37    37    35    1
    38    39    38    1
    39    32    33    1
    40    32    34    1
    41    33    35    1
    42    35    36    1
    43    34    38    1
    44    38    36    1
