@<TRIPOS>MOLECULE
25247_out_ligand_01.pdbqt
 31 35 0 0 0
SMALL
GASTEIGER

@<TRIPOS>ATOM
      1  C         19.1190  -22.5290   -9.7360 C.2     1  UNL1        0.1450
      2  N         18.2960  -21.8850  -10.6050 N.2     1  UNL1       -0.2230
      3  C         18.8000  -21.3760  -11.7460 C.2     1  UNL1        0.2370
      4  N         20.0710  -21.4130  -12.1760 N.2     1  UNL1       -0.2220
      5  C         20.8580  -22.0650  -11.3050 C.2     1  UNL1        0.1630
      6  C         20.4720  -22.6300  -10.1020 C.2     1  UNL1        0.0760
      7  C         21.6630  -23.1730   -9.5730 C.2     1  UNL1        0.1580
      8  N         22.7270  -22.9700  -10.3580 N.2     1  UNL1       -0.1820
      9  N         22.2020  -22.3140  -11.4260 N.pl3   1  UNL1       -0.2470
     10  N         18.6340  -23.1030   -8.5520 N.pl3   1  UNL1       -0.3390
     11  H         18.5890  -24.1110   -8.5790 H       1  UNL1        0.1670
     12  C         18.4590  -22.5750   -7.2480 C.2     1  UNL1        0.0440
     13  C         17.2710  -22.8750   -6.5050 C.2     1  UNL1        0.0030
     14  C         16.2120  -23.6460   -7.0420 C.2     1  UNL1        0.0140
     15  C         17.1110  -22.3660   -5.1830 C.2     1  UNL1       -0.0030
     16  C         15.0520  -23.9220   -6.3200 C.2     1  UNL1        0.0030
     17  C         14.9210  -23.4440   -5.0260 C.2     1  UNL1        0.0240
     18  C         15.9530  -22.7130   -4.4300 C.2     1  UNL1        0.0170
     19  C         18.1200  -21.5220   -4.6680 C.2     1  UNL1        0.0140
     20  C         19.2480  -21.1920   -5.4120 C.2     1  UNL1        0.0030
     21  C         19.4120  -21.7130   -6.6890 C.2     1  UNL1        0.0300
     22  N         15.6740  -22.1640   -3.1530 N.pl3   1  UNL1       -0.3020
     23  H         16.1130  -22.7320   -2.4310 H       1  UNL1        0.1240
     24  H         14.6790  -22.0940   -2.9710 H       1  UNL1        0.1240
     25  C         23.0550  -21.9030  -12.5280 C.3     1  UNL1        0.1910
     26  C         24.4710  -22.3910  -12.3440 C.2     1  UNL1       -0.0380
     27  C         25.3760  -21.6680  -11.5530 C.2     1  UNL1        0.0090
     28  C         26.6820  -22.1260  -11.3740 C.2     1  UNL1        0.0010
     29  C         27.0940  -23.3120  -11.9770 C.2     1  UNL1        0.0000
     30  C         26.2010  -24.0450  -12.7560 C.2     1  UNL1        0.0010
     31  C         24.8940  -23.5890  -12.9380 C.2     1  UNL1        0.0090
@<TRIPOS>BOND
     1    31    30    1
     2    31    26    2
     3    30    29    2
     4    25    26    1
     5    25     9    1
     6    26    27    1
     7     4     3    2
     8     4     5    1
     9    29    28    1
    10     3     2    1
    11    27    28    2
    12     9     5    1
    13     9     8    1
    14     5     6    2
    15     2     1    2
    16     8     7    2
    17     6     1    1
    18     6     7    1
    19     1    10    1
    20    11    10    1
    21    10    12    1
    22    12    21    2
    23    12    13    1
    24    14    13    2
    25    14    16    1
    26    21    20    1
    27    13    15    1
    28    16    17    2
    29    20    19    2
    30    15    19    1
    31    15    18    2
    32    17    18    1
    33    18    22    1
    34    22    24    1
    35    22    23    1
