@<TRIPOS>MOLECULE
25249_out_ligand_01.pdbqt
 33 37 0 0 0
SMALL
GASTEIGER

@<TRIPOS>ATOM
      1  C         22.8650  -22.7260  -10.7980 C.2     1  UNL1        0.0800
      2  C         23.1220  -23.3480   -9.5750 C.2     1  UNL1        0.0270
      3  C         22.0570  -23.6880   -8.7400 C.2     1  UNL1        0.0310
      4  C         20.7330  -23.4390   -9.1230 C.2     1  UNL1        0.0350
      5  C         20.4870  -22.7910  -10.3590 C.2     1  UNL1       -0.0220
      6  C         21.5540  -22.4650  -11.2070 C.2     1  UNL1        0.0350
      7  C         19.0530  -22.6070  -10.7660 C.3     1  UNL1        0.0500
      8  C         18.6070  -21.4870  -11.6560 C.3     1  UNL1       -0.0210
      9  C         17.3810  -21.0750  -11.2920 C.3     1  UNL1       -0.0290
     10  C         16.8970  -21.8060  -10.0680 C.3     1  UNL1        0.0350
     11  C         18.2330  -22.2870   -9.5120 C.3     1  UNL1        0.0280
     12  C         18.2970  -23.5070   -8.6040 C.3     1  UNL1        0.1230
     13  N         19.7040  -23.7090   -8.2080 N.pl3   1  UNL1       -0.3800
     14  H         19.8630  -24.5410   -7.6460 H       1  UNL1        0.1600
     15  S         24.2160  -22.2920  -11.8710 S.O2    1  UNL1        0.2630
     16  O         24.7800  -23.5260  -12.3780 O.2     1  UNL1       -0.2000
     17  O         25.0420  -21.3190  -11.1880 O.2     1  UNL1       -0.2000
     18  N         23.4410  -21.5580  -13.1810 N.pl3   1  UNL1       -0.2810
     19  H         22.7640  -20.8620  -12.8760 H       1  UNL1        0.1790
     20  C         24.1910  -21.2760  -14.3570 C.2     1  UNL1        0.0430
     21  C         25.0000  -20.1400  -14.3900 C.2     1  UNL1        0.0300
     22  C         25.7830  -19.8780  -15.5140 C.2     1  UNL1        0.0030
     23  C         25.7520  -20.7470  -16.6060 C.2     1  UNL1        0.0070
     24  C         24.9300  -21.8800  -16.5870 C.2     1  UNL1       -0.0600
     25  C         24.9210  -22.8340  -17.7460 C.3     1  UNL1        0.0480
     26  C         24.1590  -22.1450  -15.4480 C.2     1  UNL1        0.0370
     27  C         17.4460  -23.3330   -7.3650 C.2     1  UNL1        0.0030
     28  C         17.8440  -22.5130   -6.2960 C.2     1  UNL1        0.0120
     29  C         17.0230  -22.3530   -5.1770 C.2     1  UNL1        0.0010
     30  C         15.7920  -23.0040   -5.1110 C.2     1  UNL1        0.0030
     31  C         15.3800  -23.8130   -6.1680 C.2     1  UNL1        0.0430
     32  C         16.2030  -23.9680   -7.2800 C.2     1  UNL1        0.1240
     33  F         15.7770  -24.7370   -8.2920 F       1  UNL1       -0.2050
@<TRIPOS>BOND
     1    25    24    1
     2    23    24    2
     3    23    22    1
     4    24    26    1
     5    22    21    2
     6    26    20    2
     7    21    20    1
     8    20    18    1
     9    18    19    1
    10    18    15    1
    11    16    15    2
    12    15    17    2
    13    15     1    1
    14     8     9    1
    15     8     7    1
    16     9    10    1
    17     6     1    2
    18     6     5    1
    19     1     2    1
    20     7     5    1
    21     7    11    1
    22     5     4    2
    23    10    11    1
    24     2     3    2
    25    11    12    1
    26     4     3    1
    27     4    13    1
    28    12    13    1
    29    12    27    1
    30    33    32    1
    31    13    14    1
    32    27    32    2
    33    27    28    1
    34    32    31    1
    35    28    29    2
    36    31    30    2
    37    29    30    1
