@<TRIPOS>MOLECULE
25248_out_ligand_01.pdbqt
 42 46 0 0 0
SMALL
GASTEIGER

@<TRIPOS>ATOM
      1  N         20.3090  -22.2370   -9.5920 N.am    1  UNL1       -0.2440
      2  C         19.1550  -22.2460  -10.3930 C.2     1  UNL1        0.2660
      3  O         19.1330  -22.1670  -11.6210 O.2     1  UNL1       -0.2670
      4  C         17.8460  -22.4240   -9.7170 C.2     1  UNL1        0.0450
      5  C         16.6790  -22.3890  -10.4920 C.2     1  UNL1        0.0180
      6  C         15.4420  -22.5920   -9.8980 C.2     1  UNL1        0.0020
      7  C         15.3680  -22.8330   -8.5290 C.2     1  UNL1        0.0140
      8  C         16.5200  -22.8650   -7.7120 C.2     1  UNL1       -0.0000
      9  C         16.4500  -23.1170   -6.3070 C.2     1  UNL1        0.0530
     10  C         17.6560  -23.1350   -5.5720 C.2     1  UNL1        0.1260
     11  C         18.8890  -22.9210   -6.1950 C.2     1  UNL1        0.0560
     12  C         18.9460  -22.6810   -7.5750 C.2     1  UNL1        0.0470
     13  C         17.7820  -22.6550   -8.3400 C.2     1  UNL1        0.0070
     14  C         20.2640  -22.4160   -8.2000 C.2     1  UNL1        0.2660
     15  O         21.2180  -22.3170   -7.4300 O.2     1  UNL1       -0.2670
     16  C         21.5980  -22.0260  -10.2230 C.2     1  UNL1        0.0460
     17  C         21.7570  -22.1230  -11.6190 C.2     1  UNL1        0.0320
     18  C         22.9980  -21.9120  -12.2320 C.2     1  UNL1        0.0270
     19  C         24.1060  -21.5880  -11.4520 C.2     1  UNL1        0.0800
     20  C         23.9880  -21.5080  -10.0660 C.2     1  UNL1        0.0270
     21  C         22.7420  -21.7190   -9.4630 C.2     1  UNL1        0.0320
     22  S         25.6830  -21.3160  -12.2290 S.O2    1  UNL1        0.2630
     23  O         26.4380  -20.3940  -11.4070 O.2     1  UNL1       -0.2000
     24  O         26.2190  -22.6130  -12.5840 O.2     1  UNL1       -0.2000
     25  N         25.2650  -20.5670  -13.6860 N.pl3   1  UNL1       -0.2810
     26  H         25.3700  -19.5560  -13.6360 H       1  UNL1        0.1790
     27  C         25.6040  -21.2080  -14.9110 C.2     1  UNL1        0.0430
     28  C         26.8280  -20.9580  -15.5270 C.2     1  UNL1        0.0300
     29  C         27.1210  -21.5510  -16.7550 C.2     1  UNL1        0.0030
     30  C         26.1900  -22.3920  -17.3650 C.2     1  UNL1        0.0070
     31  C         24.9600  -22.6560  -16.7490 C.2     1  UNL1       -0.0600
     32  C         23.9380  -23.5190  -17.4300 C.3     1  UNL1        0.0480
     33  C         24.6700  -22.0500  -15.5190 C.2     1  UNL1        0.0370
     34  N         17.6600  -23.3690   -4.1260 N.pl3   1  UNL1       -0.1140
     35  O         18.0430  -22.4440   -3.3920 O.2     1  UNL1       -0.5320
     36  O         17.2910  -24.4800   -3.7240 O.2     1  UNL1       -0.5320
     37  N         15.1680  -23.2390   -5.6890 N.pl3   1  UNL1       -0.2880
     38  H         15.2360  -23.9030   -4.9020 H       1  UNL1        0.1270
     39  C         14.6730  -21.9400   -5.1720 C.3     1  UNL1        0.1180
     40  C         13.3940  -21.5640   -5.9270 C.3     1  UNL1        0.1780
     41  O         12.8570  -20.3550   -5.3920 O.3     1  UNL1       -0.4000
     42  H         11.8950  -20.4080   -5.5610 H       1  UNL1        0.2090
@<TRIPOS>BOND
     1    32    31    1
     2    30    29    2
     3    30    31    1
     4    29    28    1
     5    31    33    2
     6    28    27    2
     7    33    27    1
     8    27    25    1
     9    25    26    1
    10    25    22    1
    11    24    22    2
    12    18    17    1
    13    18    19    2
    14    22    19    1
    15    22    23    2
    16     3     2    2
    17    17    16    2
    18    19    20    1
    19     5     6    1
    20     5     4    2
    21     2     4    1
    22     2     1   am
    23    16     1    1
    24    16    21    1
    25    20    21    2
    26     6     7    2
    27     4    13    1
    28     1    14   am
    29     7     8    1
    30    13     8    2
    31    13    12    1
    32    14    12    1
    33    14    15    2
    34     8     9    1
    35    12    11    2
    36     9    37    1
    37     9    10    2
    38    11    10    1
    39    40    41    1
    40    40    39    1
    41    37    39    1
    42    37    38    1
    43    10    34    1
    44    42    41    1
    45    34    36    2
    46    34    35    2
