@<TRIPOS>MOLECULE
25240_out_ligand_01.pdbqt
 36 40 0 0 0
SMALL
GASTEIGER

@<TRIPOS>ATOM
      1  C         21.3710  -23.3400   -9.7780 C.2     1  UNL1        0.0340
      2  C         20.9740  -24.1420   -8.6970 C.2     1  UNL1        0.0310
      3  C         19.6360  -24.1900   -8.2960 C.2     1  UNL1        0.0270
      4  C         18.6870  -23.4320   -8.9840 C.2     1  UNL1        0.0750
      5  C         19.0740  -22.5950  -10.0330 C.2     1  UNL1        0.0270
      6  C         20.4140  -22.5610  -10.4330 C.2     1  UNL1        0.0310
      7  N         22.7310  -23.3850  -10.1400 N.am    1  UNL1       -0.3260
      8  C         23.6810  -22.3850  -10.0190 C.2     1  UNL1        0.2400
      9  O         23.5230  -21.3000   -9.4630 O.2     1  UNL1       -0.2710
     10  H         23.0530  -24.2520  -10.5590 H       1  UNL1        0.1690
     11  C         25.0600  -22.7840  -10.5500 C.3     1  UNL1        0.2350
     12  N         25.4070  -22.1070  -11.7800 N.am    1  UNL1       -0.3040
     13  C         25.8420  -20.7900  -11.8870 C.2     1  UNL1        0.2590
     14  O         26.0540  -19.9920  -10.9930 O.2     1  UNL1       -0.2670
     15  C         26.0770  -20.5700  -13.3310 C.2     1  UNL1        0.0450
     16  C         26.5030  -19.4680  -14.0460 C.2     1  UNL1        0.0180
     17  C         25.8060  -21.7560  -13.9630 C.2     1  UNL1        0.0170
     18  C         26.6410  -19.6160  -15.4380 C.2     1  UNL1        0.0020
     19  C         26.3610  -20.8480  -16.0820 C.2     1  UNL1        0.0120
     20  C         25.9320  -21.9660  -15.3320 C.2     1  UNL1       -0.0230
     21  C         25.6160  -23.2690  -15.7750 C.2     1  UNL1        0.0120
     22  C         25.2060  -24.2580  -14.8490 C.2     1  UNL1        0.0030
     23  C         25.0980  -23.9780  -13.4730 C.2     1  UNL1        0.0310
     24  C         25.4070  -22.7000  -13.0540 C.2     1  UNL1        0.0500
     25  S         16.9770  -23.5130   -8.5000 S.O2    1  UNL1        0.2450
     26  O         16.8150  -24.6400   -7.6070 O.2     1  UNL1       -0.2060
     27  O         16.1800  -23.3860   -9.7020 O.2     1  UNL1       -0.2060
     28  N         16.7540  -22.0710   -7.6330 N.pl3   1  UNL1       -0.1800
     29  H         17.4330  -21.3660   -7.9290 H       1  UNL1        0.1460
     30  C         16.5440  -22.1580   -6.2170 C.2     1  UNL1        0.0440
     31  C         15.2770  -22.4740   -5.7200 C.2     1  UNL1        0.0260
     32  C         15.0790  -22.6140   -4.3450 C.2     1  UNL1        0.0020
     33  C         16.1440  -22.4390   -3.4580 C.2     1  UNL1        0.0020
     34  C         17.4110  -22.1180   -3.9470 C.2     1  UNL1        0.0260
     35  C         17.6120  -21.9760   -5.3220 C.2     1  UNL1        0.0560
     36 CL         19.1940  -21.5750   -5.8910 Cl      1  UNL1       -0.0820
@<TRIPOS>BOND
     1    19    18    2
     2    19    20    1
     3    21    20    1
     4    21    22    2
     5    18    16    1
     6    20    17    2
     7    22    23    1
     8    16    15    2
     9    17    15    1
    10    17    24    1
    11    23    24    2
    12    15    13    1
    13    24    12    1
    14    13    12   am
    15    13    14    2
    16    12    11    1
    17    10     7    1
    18    11     8    1
    19     6     5    1
    20     6     1    2
    21     7     8   am
    22     7     1    1
    23     5     4    2
    24     8     9    2
    25     1     2    1
    26    27    25    2
    27     4    25    1
    28     4     3    1
    29     2     3    2
    30    25    28    1
    31    25    26    2
    32    29    28    1
    33    28    30    1
    34    30    31    2
    35    30    35    1
    36    36    35    1
    37    31    32    1
    38    35    34    2
    39    32    33    2
    40    34    33    1
