@<TRIPOS>MOLECULE
2525_out_ligand_01.pdbqt
 32 35 0 0 0
SMALL
GASTEIGER

@<TRIPOS>ATOM
      1  O         21.2930  -21.2600  -12.5250 O.2     1  UNL1       -0.2670
      2  C         21.3540  -21.8990  -11.4830 C.2     1  UNL1        0.2560
      3  N         22.4960  -22.3590  -10.8510 N.am    1  UNL1       -0.3230
      4  H         22.3800  -22.7460   -9.9240 H       1  UNL1        0.1690
      5  C         20.0840  -22.1970  -10.7620 C.2     1  UNL1        0.0320
      6  C         20.1380  -22.9980   -9.6160 C.2     1  UNL1        0.0170
      7  C         18.9670  -23.3040   -8.9170 C.2     1  UNL1        0.0100
      8  C         17.7280  -22.8120   -9.3540 C.2     1  UNL1       -0.0340
      9  C         17.6890  -21.9810  -10.4850 C.2     1  UNL1        0.0100
     10  C         18.8580  -21.6750  -11.1870 C.2     1  UNL1        0.0170
     11  C         16.4690  -23.1180   -8.5740 C.3     1  UNL1        0.2140
     12  O         16.3600  -22.2070   -7.4810 O.2     1  UNL1       -0.3450
     13  C         16.1520  -22.7250   -6.2310 C.2     1  UNL1        0.0860
     14  C         15.0230  -23.4590   -5.8540 C.2     1  UNL1        0.0380
     15  C         14.8950  -23.9450   -4.5470 C.2     1  UNL1        0.0030
     16  C         15.8930  -23.7010   -3.6060 C.2     1  UNL1        0.0020
     17  C         17.0210  -22.9690   -3.9670 C.2     1  UNL1        0.0220
     18  C         17.1490  -22.4830   -5.2720 C.2     1  UNL1        0.0440
     19 BR         18.7170  -21.4950   -5.7000 Br      1  UNL1       -0.0480
     20  C         23.8260  -22.2660  -11.3120 C.2     1  UNL1        0.0350
     21  C         24.8130  -21.5050  -10.6870 C.2     1  UNL1        0.0290
     22  C         26.1080  -21.4600  -11.2110 C.2     1  UNL1        0.0030
     23  C         26.4260  -22.1730  -12.3650 C.2     1  UNL1        0.0090
     24  C         25.4500  -22.9380  -13.0170 C.2     1  UNL1       -0.0280
     25  C         24.1520  -22.9770  -12.4750 C.2     1  UNL1        0.0380
     26  C         25.7880  -23.7150  -14.2690 C.3     1  UNL1        0.3110
     27  N         25.5780  -23.0440  -15.5570 N.3     1  UNL1        0.0960
     28  C         24.6380  -23.7380  -16.4530 C.3     1  UNL1        0.2990
     29  C         24.5700  -23.0330  -17.8180 C.3     1  UNL1        0.1980
     30  O         24.1820  -21.6600  -17.6780 O.3     1  UNL1       -0.3880
     31  C         25.1080  -20.9700  -16.8260 C.3     1  UNL1        0.1980
     32  C         25.1910  -21.6280  -15.4400 C.3     1  UNL1        0.2990
@<TRIPOS>BOND
     1    29    30    1
     2    29    28    1
     3    30    31    1
     4    31    32    1
     5    28    27    1
     6    27    32    1
     7    27    26    1
     8    26    24    1
     9    24    25    1
    10    24    23    2
    11     1     2    2
    12    25    20    2
    13    23    22    1
    14     2     3   am
    15     2     5    1
    16    20     3    1
    17    20    21    1
    18    22    21    2
    19    10     5    2
    20    10     9    1
    21     3     4    1
    22     5     6    1
    23     9     8    2
    24     6     7    2
    25     8     7    1
    26     8    11    1
    27    11    12    1
    28    12    13    1
    29    13    14    2
    30    13    18    1
    31    14    15    1
    32    19    18    1
    33    18    17    2
    34    15    16    2
    35    17    16    1
