@<TRIPOS>MOLECULE
25278_out_ligand_01.pdbqt
 36 40 0 0 0
SMALL
GASTEIGER

@<TRIPOS>ATOM
      1  C         22.2570  -22.3640  -12.0590 C.3     1  UNL1        0.1010
      2  N         21.1490  -21.4040  -12.0640 N.pl3   1  UNL1       -0.2830
      3  C         20.0190  -21.8180  -11.3380 C.2     1  UNL1        0.0160
      4  C         18.7680  -21.2740  -11.6570 C.2     1  UNL1        0.0250
      5  C         17.6260  -21.6270  -10.9400 C.2     1  UNL1        0.0260
      6  C         17.7380  -22.5270   -9.8800 C.2     1  UNL1        0.0750
      7  C         18.9850  -23.0290   -9.5020 C.2     1  UNL1        0.0340
      8  C         20.1390  -22.6580  -10.2140 C.2     1  UNL1       -0.0270
      9  C         21.4950  -23.1740   -9.7800 C.3     1  UNL1        0.0490
     10  C         21.8660  -22.7310   -8.3890 C.3     1  UNL1       -0.0210
     11  C         22.7690  -21.7440   -8.4020 C.3     1  UNL1       -0.0290
     12  C         23.1520  -21.3770   -9.8000 C.3     1  UNL1        0.0340
     13  C         22.6780  -22.6070  -10.6010 C.3     1  UNL1        0.0240
     14  H         20.9020  -21.1380  -13.0200 H       1  UNL1        0.1280
     15  S         16.2910  -23.0070   -8.9660 S.O2    1  UNL1        0.2460
     16  O         15.1340  -22.6670   -9.7680 O.2     1  UNL1       -0.2060
     17  O         16.4910  -24.3530   -8.4700 O.2     1  UNL1       -0.2060
     18  N         16.2910  -21.9320   -7.6580 N.pl3   1  UNL1       -0.1780
     19  H         16.9710  -21.1850   -7.8100 H       1  UNL1        0.1460
     20  C         16.2690  -22.4780   -6.3360 C.2     1  UNL1        0.0610
     21  C         15.0700  -22.8400   -5.7260 C.2     1  UNL1        0.0270
     22  C         15.0840  -23.4110   -4.4510 C.2     1  UNL1        0.0020
     23  C         16.2940  -23.6210   -3.7850 C.2     1  UNL1        0.0030
     24  C         17.4970  -23.2590   -4.3930 C.2     1  UNL1        0.0440
     25  C         17.4750  -22.6920   -5.6630 C.2     1  UNL1        0.1380
     26  F         18.6330  -22.3520   -6.2500 F       1  UNL1       -0.2040
     27  C         23.3330  -21.9370  -13.0610 C.2     1  UNL1       -0.0040
     28  C         23.1660  -20.8510  -13.9340 C.2     1  UNL1        0.0120
     29  C         24.1740  -20.4770  -14.8260 C.2     1  UNL1        0.0030
     30  C         25.3800  -21.1750  -14.8670 C.2     1  UNL1        0.0390
     31  C         25.5990  -22.2440  -14.0000 C.2     1  UNL1        0.1020
     32  C         24.5900  -22.5900  -13.0780 C.2     1  UNL1        0.1090
     33  O         26.7460  -22.9960  -13.9740 O.2     1  UNL1       -0.3530
     34  C         26.9450  -23.9200  -15.0350 C.3     1  UNL1        0.2100
     35  O         24.7700  -23.6340  -12.1920 O.2     1  UNL1       -0.3520
     36  C         25.8510  -23.3850  -11.2920 C.3     1  UNL1        0.2100
@<TRIPOS>BOND
     1    34    33    1
     2    30    29    2
     3    30    31    1
     4    29    28    1
     5    31    33    1
     6    31    32    2
     7    28    27    2
     8    32    27    1
     9    32    35    1
    10    27     1    1
    11    14     2    1
    12    35    36    1
    13     2     1    1
    14     2     3    1
    15     1    13    1
    16     4     3    2
    17     4     5    1
    18     3     8    1
    19     5     6    2
    20    13    12    1
    21    13     9    1
    22     8     9    1
    23     8     7    2
    24     6     7    1
    25     6    15    1
    26    12    11    1
    27     9    10    1
    28    16    15    2
    29    15    17    2
    30    15    18    1
    31    11    10    1
    32    19    18    1
    33    18    20    1
    34    20    21    2
    35    20    25    1
    36    26    25    1
    37    21    22    1
    38    25    24    2
    39    22    23    2
    40    24    23    1
