@<TRIPOS>MOLECULE
25295_out_ligand_01.pdbqt
 28 31 0 0 0
SMALL
GASTEIGER

@<TRIPOS>ATOM
      1  N         21.5940  -22.1090  -10.1020 N.am    1  UNL1       -0.3210
      2  C         21.2850  -23.2070   -9.3190 C.2     1  UNL1        0.2800
      3  O         21.9880  -24.2000   -9.1720 O.2     1  UNL1       -0.2650
      4  H         20.8740  -21.3940  -10.1230 H       1  UNL1        0.1690
      5  C         19.9930  -23.0790   -8.6670 C.2     1  UNL1        0.1440
      6  C         19.6640  -22.8580   -7.3440 C.2     1  UNL1        0.0580
      7  C         18.2430  -22.8220   -7.2650 C.2     1  UNL1        0.0120
      8  C         17.7970  -23.0260   -8.5650 C.2     1  UNL1        0.0870
      9  C         17.2740  -22.6390   -6.2400 C.2     1  UNL1       -0.0130
     10  C         16.4580  -23.0650   -8.9390 C.2     1  UNL1        0.0390
     11  O         18.8490  -23.1820   -9.4150 O.2     1  UNL1       -0.3040
     12  C         15.5150  -22.8840   -7.9210 C.2     1  UNL1        0.0150
     13  C         15.8980  -22.6730   -6.5870 C.2     1  UNL1       -0.0250
     14  C         14.9450  -22.4930   -5.5720 C.2     1  UNL1        0.0120
     15  C         15.3400  -22.2840   -4.2470 C.2     1  UNL1        0.0010
     16  C         16.6930  -22.2520   -3.9140 C.2     1  UNL1        0.0010
     17  C         17.6610  -22.4280   -4.9010 C.2     1  UNL1        0.0130
     18  C         22.7530  -21.8750  -10.8650 C.2     1  UNL1        0.0360
     19  C         23.9410  -21.6490  -10.1550 C.2     1  UNL1        0.0290
     20  C         25.1430  -21.4090  -10.8250 C.2     1  UNL1        0.0030
     21  C         25.1700  -21.3890  -12.2170 C.2     1  UNL1        0.0170
     22  C         23.9900  -21.6060  -12.9380 C.2     1  UNL1        0.0340
     23  C         22.7870  -21.8600  -12.2610 C.2     1  UNL1        0.0460
     24  C         23.9820  -21.6030  -14.4240 C.2     1  UNL1        0.2490
     25  N         23.3490  -20.5590  -15.0420 N.am    1  UNL1       -0.3660
     26  H         23.2320  -20.6550  -16.0430 H       1  UNL1        0.1590
     27  H         22.6760  -19.9870  -14.5520 H       1  UNL1        0.1590
     28  O         24.4870  -22.5050  -15.0800 O.2     1  UNL1       -0.2680
@<TRIPOS>BOND
     1    26    25    1
     2    28    24    2
     3    25    27    1
     4    25    24   am
     5    24    22    1
     6    22    23    1
     7    22    21    2
     8    23    18    2
     9    21    20    1
    10    18    19    1
    11    18     1    1
    12    20    19    2
    13     4     1    1
    14     1     2   am
    15    11     5    1
    16    11     8    1
    17     2     3    2
    18     2     5    1
    19    10     8    1
    20    10    12    2
    21     5     6    2
    22     8     7    2
    23    12    13    1
    24     6     7    1
    25     7     9    1
    26    13     9    2
    27    13    14    1
    28     9    17    1
    29    14    15    2
    30    17    16    2
    31    15    16    1
