@<TRIPOS>MOLECULE
25314_out_ligand_01.pdbqt
 34 38 0 0 0
SMALL
GASTEIGER

@<TRIPOS>ATOM
      1  C         22.9800  -22.6620  -10.7960 C.2     1  UNL1        0.0800
      2  C         23.2350  -23.2780   -9.5700 C.2     1  UNL1        0.0270
      3  C         22.1670  -23.6340   -8.7440 C.2     1  UNL1        0.0310
      4  C         20.8430  -23.4040   -9.1410 C.2     1  UNL1        0.0350
      5  C         20.5990  -22.7610  -10.3800 C.2     1  UNL1       -0.0220
      6  C         21.6700  -22.4210  -11.2180 C.2     1  UNL1        0.0350
      7  C         19.1660  -22.5950  -10.7990 C.3     1  UNL1        0.0500
      8  C         18.7100  -21.4840  -11.6940 C.3     1  UNL1       -0.0210
      9  C         17.4760  -21.0890  -11.3380 C.3     1  UNL1       -0.0290
     10  C         16.9950  -21.8240  -10.1140 C.3     1  UNL1        0.0350
     11  C         18.3330  -22.2850   -9.5520 C.3     1  UNL1        0.0280
     12  C         18.4090  -23.5070   -8.6450 C.3     1  UNL1        0.1200
     13  N         19.8100  -23.6860   -8.2350 N.pl3   1  UNL1       -0.3800
     14  H         19.9770  -24.4950   -7.6440 H       1  UNL1        0.1600
     15  S         24.3350  -22.2010  -11.8530 S.O2    1  UNL1        0.2630
     16  O         24.9620  -23.4230  -12.3120 O.2     1  UNL1       -0.2000
     17  O         25.1030  -21.1730  -11.1820 O.2     1  UNL1       -0.2000
     18  N         23.5580  -21.5380  -13.2010 N.pl3   1  UNL1       -0.2810
     19  H         22.8920  -20.8160  -12.9330 H       1  UNL1        0.1790
     20  C         24.3110  -21.3280  -14.3890 C.2     1  UNL1        0.0430
     21  C         25.1100  -20.1990  -14.5310 C.2     1  UNL1        0.0300
     22  C         25.7990  -19.9810  -15.7250 C.2     1  UNL1        0.0090
     23  C         25.6900  -20.8860  -16.7930 C.2     1  UNL1       -0.0560
     24  C         26.4410  -20.6130  -18.0680 C.3     1  UNL1        0.0490
     25  C         24.8790  -22.0300  -16.6490 C.2     1  UNL1       -0.0540
     26  C         24.1950  -22.2400  -15.4400 C.2     1  UNL1        0.0370
     27  C         24.7160  -23.0230  -17.7670 C.3     1  UNL1        0.0490
     28  C         17.5440  -23.3600   -7.4050 C.2     1  UNL1       -0.0350
     29  C         16.3420  -24.0790   -7.2650 C.2     1  UNL1        0.0120
     30  C         15.5650  -23.9490   -6.1140 C.2     1  UNL1        0.0430
     31  C         15.9860  -23.1020   -5.0970 C.2     1  UNL1        0.1160
     32  F         15.2410  -22.9780   -3.9900 F       1  UNL1       -0.2060
     33  C         17.1690  -22.3830   -5.2090 C.2     1  UNL1        0.0430
     34  C         17.9480  -22.5110   -6.3610 C.2     1  UNL1        0.0120
@<TRIPOS>BOND
     1    24    23    1
     2    27    25    1
     3    23    25    2
     4    23    22    1
     5    25    26    1
     6    22    21    2
     7    26    20    2
     8    21    20    1
     9    20    18    1
    10    18    19    1
    11    18    15    1
    12    16    15    2
    13    15    17    2
    14    15     1    1
    15     8     9    1
    16     8     7    1
    17     9    10    1
    18     6     1    2
    19     6     5    1
    20     7     5    1
    21     7    11    1
    22     1     2    1
    23     5     4    2
    24    10    11    1
    25     2     3    2
    26    11    12    1
    27     4     3    1
    28     4    13    1
    29    12    13    1
    30    12    28    1
    31    13    14    1
    32    28    29    2
    33    28    34    1
    34    29    30    1
    35    34    33    2
    36    30    31    2
    37    33    31    1
    38    31    32    1
