@<TRIPOS>MOLECULE
25325_out_ligand_01.pdbqt
 32 34 0 0 0
SMALL
GASTEIGER

@<TRIPOS>ATOM
      1  C         17.5140  -23.4140   -8.7530 C.2     1  UNL1        0.0860
      2  C         18.9090  -23.5980   -8.7710 C.2     1  UNL1        0.0420
      3  C         19.6900  -22.9990   -9.7620 C.2     1  UNL1        0.0330
      4  C         19.0800  -22.2030  -10.7340 C.2     1  UNL1        0.0170
      5  C         17.6930  -22.0240  -10.7200 C.2     1  UNL1        0.0090
      6  C         16.8870  -22.6240   -9.7350 C.2     1  UNL1       -0.0390
      7  C         15.4050  -22.3800   -9.7950 C.3     1  UNL1        0.0500
      8  S         16.6340  -24.2510   -7.4410 S.O2    1  UNL1        0.2630
      9  O         17.6300  -24.9310   -6.6360 O.2     1  UNL1       -0.2000
     10  O         15.5080  -24.9870   -7.9710 O.2     1  UNL1       -0.2000
     11  N         16.0780  -22.9670   -6.4960 N.pl3   1  UNL1       -0.2800
     12  H         15.5420  -22.3000   -7.0490 H       1  UNL1        0.1790
     13  C         16.9250  -22.4570   -5.4730 C.2     1  UNL1        0.0490
     14  C         16.6930  -22.7510   -4.1210 C.2     1  UNL1       -0.0350
     15  C         17.5300  -22.1730   -3.1560 C.2     1  UNL1        0.0090
     16  C         15.5560  -23.6280   -3.6760 C.3     1  UNL1        0.0500
     17  C         18.5810  -21.3310   -3.5310 C.2     1  UNL1        0.0070
     18  C         18.8080  -21.0380   -4.8770 C.2     1  UNL1       -0.0600
     19  C         19.9550  -20.1640   -5.2870 C.3     1  UNL1        0.0480
     20  C         17.9780  -21.6170   -5.8450 C.2     1  UNL1        0.0370
     21  C         21.1620  -23.2070   -9.7280 C.2     1  UNL1        0.2520
     22  O         21.6380  -24.0560   -8.9850 O.2     1  UNL1       -0.2680
     23  N         21.9040  -22.4170  -10.5800 N.am    1  UNL1       -0.3490
     24  H         21.4190  -21.9550  -11.3360 H       1  UNL1        0.1630
     25  C         23.3250  -22.6580  -10.7890 C.3     1  UNL1        0.1140
     26  C         24.1410  -21.7760   -9.8420 C.3     1  UNL1        0.0370
     27  C         23.6520  -22.4720  -12.2630 C.2     1  UNL1       -0.0360
     28  C         24.7010  -23.1490  -12.9030 C.2     1  UNL1        0.0090
     29  C         24.9770  -22.9190  -14.2540 C.2     1  UNL1        0.0010
     30  C         24.2200  -22.0030  -14.9800 C.2     1  UNL1        0.0000
     31  C         23.1870  -21.3100  -14.3550 C.2     1  UNL1        0.0010
     32  C         22.9070  -21.5400  -13.0080 C.2     1  UNL1        0.0090
@<TRIPOS>BOND
     1    30    31    2
     2    30    29    1
     3    31    32    1
     4    29    28    2
     5    32    27    2
     6    28    27    1
     7    27    25    1
     8    24    23    1
     9    25    23    1
    10    25    26    1
    11     4     5    2
    12     4     3    1
    13     5     6    1
    14    23    21   am
    15     7     6    1
    16     3    21    1
    17     3     2    2
    18     6     1    2
    19    21    22    2
    20     2     1    1
    21     1     8    1
    22    10     8    2
    23     8     9    2
    24     8    11    1
    25    12    11    1
    26    11    13    1
    27    20    13    2
    28    20    18    1
    29    13    14    1
    30    19    18    1
    31    18    17    2
    32    14    16    1
    33    14    15    2
    34    17    15    1
