@<TRIPOS>MOLECULE
25322_out_ligand_01.pdbqt
 36 38 0 0 0
SMALL
GASTEIGER

@<TRIPOS>ATOM
      1  C         16.6870  -20.9000  -11.0420 C.3     1  UNL1        0.0500
      2  C         18.0670  -21.4790  -10.8990 C.2     1  UNL1       -0.0390
      3  C         19.0790  -20.9800  -11.7430 C.2     1  UNL1        0.0090
      4  C         20.3900  -21.4590  -11.6710 C.2     1  UNL1        0.0170
      5  C         20.7170  -22.4390  -10.7340 C.2     1  UNL1        0.0330
      6  C         19.7320  -22.9470   -9.8850 C.2     1  UNL1        0.0420
      7  C         18.4070  -22.4840   -9.9740 C.2     1  UNL1        0.0860
      8  C         22.0880  -23.0050  -10.6450 C.2     1  UNL1        0.2560
      9  O         22.3030  -23.8500   -9.7840 O.2     1  UNL1       -0.2670
     10  N         22.9920  -22.4720  -11.5430 N.am    1  UNL1       -0.3230
     11  H         22.6810  -21.6850  -12.0980 H       1  UNL1        0.1690
     12  C         24.3410  -22.8440  -11.7170 C.2     1  UNL1        0.0370
     13  C         25.2850  -22.8560  -10.6910 C.2     1  UNL1        0.0290
     14  C         26.5990  -23.2620  -10.9430 C.2     1  UNL1        0.0040
     15  C         26.9810  -23.6560  -12.2250 C.2     1  UNL1        0.0300
     16  C         26.0490  -23.6320  -13.2640 C.2     1  UNL1        0.0460
     17  C         24.7320  -23.2390  -13.0030 C.2     1  UNL1        0.0590
     18  N         26.3950  -24.0700  -14.5890 N.pl3   1  UNL1       -0.2810
     19  C         26.0390  -25.4450  -14.9830 C.3     1  UNL1        0.1690
     20  S         26.4130  -22.8920  -15.8210 S.O2    1  UNL1        0.2280
     21  C         24.6910  -22.7870  -16.2710 C.3     1  UNL1        0.1860
     22  O         26.8050  -21.6130  -15.2660 O.2     1  UNL1       -0.2060
     23  O         27.1210  -23.4490  -16.9560 O.2     1  UNL1       -0.2060
     24  S         17.2490  -23.2360   -8.8350 S.O2    1  UNL1        0.2630
     25  O         17.9300  -24.1950   -7.9940 O.2     1  UNL1       -0.2000
     26  O         16.1010  -23.6430   -9.6200 O.2     1  UNL1       -0.2000
     27  N         16.7310  -21.9390   -7.8900 N.pl3   1  UNL1       -0.2800
     28  H         17.0450  -21.0370   -8.2390 H       1  UNL1        0.1790
     29  C         16.5350  -22.1090   -6.4890 C.2     1  UNL1        0.0490
     30  C         15.2690  -22.4970   -6.0410 C.2     1  UNL1        0.0310
     31  C         15.0300  -22.7080   -4.6870 C.2     1  UNL1        0.0030
     32  C         16.0580  -22.5270   -3.7690 C.2     1  UNL1        0.0070
     33  C         17.3360  -22.1290   -4.1920 C.2     1  UNL1       -0.0540
     34  C         18.4120  -21.9420   -3.1530 C.3     1  UNL1        0.0490
     35  C         17.5860  -21.9080   -5.5700 C.2     1  UNL1       -0.0290
     36  C         18.9660  -21.4700   -5.9990 C.3     1  UNL1        0.0510
@<TRIPOS>BOND
     1    23    20    2
     2    21    20    1
     3    20    22    2
     4    20    18    1
     5    19    18    1
     6    18    16    1
     7    16    17    1
     8    16    15    2
     9    17    12    2
    10    15    14    1
    11    11    10    1
    12     3     4    1
    13     3     2    2
    14    12    10    1
    15    12    13    1
    16     4     5    2
    17    10     8   am
    18     1     2    1
    19    14    13    2
    20     2     7    1
    21     5     8    1
    22     5     6    1
    23     8     9    2
    24     7     6    2
    25     7    24    1
    26    26    24    2
    27    24    25    2
    28    24    27    1
    29    28    27    1
    30    27    29    1
    31    29    30    2
    32    29    35    1
    33    30    31    1
    34    36    35    1
    35    35    33    2
    36    31    32    2
    37    33    32    1
    38    33    34    1
