@<TRIPOS>MOLECULE
25327_out_ligand_01.pdbqt
 36 38 0 0 0
SMALL
GASTEIGER

@<TRIPOS>ATOM
      1  C         17.5170  -23.3190   -8.9080 C.2     1  UNL1        0.0860
      2  C         18.9110  -23.4380   -9.0390 C.2     1  UNL1        0.0420
      3  C         19.5770  -22.7970  -10.0830 C.2     1  UNL1        0.0330
      4  C         18.8610  -21.9960  -10.9750 C.2     1  UNL1        0.0170
      5  C         17.4780  -21.8550  -10.8310 C.2     1  UNL1        0.0090
      6  C         16.7800  -22.5210   -9.8060 C.2     1  UNL1       -0.0390
      7  C         15.2970  -22.3020   -9.7020 C.3     1  UNL1        0.0500
      8  C         21.0530  -22.9560  -10.1920 C.2     1  UNL1        0.2560
      9  O         21.6040  -23.7850   -9.4780 O.2     1  UNL1       -0.2670
     10  N         21.6570  -22.1540  -11.1450 N.am    1  UNL1       -0.3230
     11  H         21.0450  -21.6440  -11.7710 H       1  UNL1        0.1690
     12  C         23.0370  -22.0610  -11.4230 C.2     1  UNL1        0.0370
     13  C         23.8630  -21.5520  -10.4130 C.2     1  UNL1        0.0290
     14  C         25.2380  -21.4160  -10.6220 C.2     1  UNL1        0.0040
     15  C         25.8000  -21.8040  -11.8370 C.2     1  UNL1        0.0300
     16  C         24.9910  -22.3420  -12.8380 C.2     1  UNL1        0.0460
     17  C         23.6110  -22.4550  -12.6340 C.2     1  UNL1        0.0590
     18  N         25.5920  -22.7070  -14.0910 N.pl3   1  UNL1       -0.2810
     19  C         25.8450  -24.1390  -14.3360 C.3     1  UNL1        0.1690
     20  S         25.1890  -21.7560  -15.4420 S.O2    1  UNL1        0.2280
     21  C         26.5830  -22.0040  -16.5260 C.3     1  UNL1        0.1860
     22  O         24.0170  -22.3080  -16.0900 O.2     1  UNL1       -0.2060
     23  O         25.2090  -20.3680  -15.0280 O.2     1  UNL1       -0.2060
     24  S         16.7510  -24.2040   -7.5520 S.O2    1  UNL1        0.2630
     25  O         17.7900  -24.8500   -6.7790 O.2     1  UNL1       -0.2000
     26  O         15.6520  -24.9800   -8.0850 O.2     1  UNL1       -0.2000
     27  N         16.1380  -22.9640   -6.5850 N.pl3   1  UNL1       -0.2800
     28  H         15.1340  -23.0340   -6.4490 H       1  UNL1        0.1790
     29  C         16.9370  -22.3890   -5.5500 C.2     1  UNL1        0.0490
     30  C         16.6500  -22.6550   -4.2020 C.2     1  UNL1       -0.0350
     31  C         17.4890  -22.1170   -3.2120 C.2     1  UNL1        0.0090
     32  C         15.4980  -23.5230   -3.7740 C.3     1  UNL1        0.0500
     33  C         18.5810  -21.3160   -3.5530 C.2     1  UNL1        0.0070
     34  C         18.8550  -21.0340   -4.8940 C.2     1  UNL1       -0.0600
     35  C         20.0070  -20.1510   -5.2780 C.3     1  UNL1        0.0480
     36  C         18.0160  -21.5600   -5.8840 C.2     1  UNL1        0.0370
@<TRIPOS>BOND
     1    21    20    1
     2    22    20    2
     3    20    23    2
     4    20    18    1
     5    19    18    1
     6    18    16    1
     7    16    17    1
     8    16    15    2
     9    17    12    2
    10    15    14    1
    11    11    10    1
    12    12    10    1
    13    12    13    1
    14    10     8   am
    15     4     5    2
    16     4     3    1
    17     5     6    1
    18    14    13    2
    19     8     3    1
    20     8     9    2
    21     3     2    2
    22     6     7    1
    23     6     1    2
    24     2     1    1
    25     1    24    1
    26    26    24    2
    27    24    25    2
    28    24    27    1
    29    27    28    1
    30    27    29    1
    31    36    29    2
    32    36    34    1
    33    29    30    1
    34    35    34    1
    35    34    33    2
    36    30    32    1
    37    30    31    2
    38    33    31    1
