@<TRIPOS>MOLECULE
25330_out_ligand_01.pdbqt
 31 33 0 0 0
SMALL
GASTEIGER

@<TRIPOS>ATOM
      1  C         20.0370  -21.8140  -11.3050 C.2     1  UNL1        0.0330
      2  C         18.9440  -21.2080  -11.9290 C.2     1  UNL1        0.0170
      3  C         17.6620  -21.3640  -11.3950 C.2     1  UNL1        0.0090
      4  C         17.4430  -22.1390  -10.2420 C.2     1  UNL1       -0.0390
      5  C         16.0380  -22.2590   -9.7210 C.3     1  UNL1        0.0500
      6  C         18.5540  -22.7470   -9.6240 C.2     1  UNL1        0.0810
      7  C         19.8430  -22.5870  -10.1570 C.2     1  UNL1        0.0420
      8  C         21.4130  -21.6970  -11.8610 C.2     1  UNL1        0.2560
      9  N         22.3890  -22.3520  -11.1350 N.am    1  UNL1       -0.3230
     10  H         22.0770  -22.9370  -10.3710 H       1  UNL1        0.1690
     11  O         21.5550  -21.0680  -12.9010 O.2     1  UNL1       -0.2670
     12  C         23.7780  -22.3660  -11.3890 C.2     1  UNL1        0.0360
     13  C         24.5700  -21.4860  -10.6410 C.2     1  UNL1        0.0290
     14  C         25.9510  -21.4280  -10.8390 C.2     1  UNL1        0.0040
     15  C         26.5540  -22.2510  -11.7890 C.2     1  UNL1        0.0180
     16  C         25.7780  -23.1380  -12.5380 C.2     1  UNL1        0.0020
     17  C         24.3900  -23.1840  -12.3420 C.2     1  UNL1        0.0480
     18  S         26.5230  -24.1820  -13.7800 S.3     1  UNL1       -0.1340
     19  C         25.2660  -24.0450  -15.0770 C.3     1  UNL1        0.0950
     20  S         18.3960  -23.7300   -8.1360 S.O2    1  UNL1        0.2460
     21  O         17.0730  -24.3200   -8.1350 O.2     1  UNL1       -0.2060
     22  O         19.5840  -24.5420   -8.0070 O.2     1  UNL1       -0.2060
     23  N         18.3750  -22.4980   -6.9530 N.pl3   1  UNL1       -0.1810
     24  H         18.2830  -21.6110   -7.4540 H       1  UNL1        0.1460
     25  C         17.3150  -22.6400   -5.9980 C.2     1  UNL1        0.0230
     26  C         17.5250  -23.4100   -4.8570 C.2     1  UNL1        0.0240
     27  C         16.4920  -23.5780   -3.9360 C.2     1  UNL1        0.0020
     28  C         15.2450  -22.9930   -4.1670 C.2     1  UNL1        0.0070
     29  C         15.0150  -22.2510   -5.3330 C.2     1  UNL1       -0.0600
     30  C         13.6780  -21.6160   -5.5770 C.3     1  UNL1        0.0480
     31  C         16.0630  -22.0710   -6.2460 C.2     1  UNL1        0.0310
@<TRIPOS>BOND
     1    19    18    1
     2    18    16    1
     3    11     8    2
     4    16    17    1
     5    16    15    2
     6    17    12    2
     7     2     3    1
     8     2     1    2
     9     8     1    1
    10     8     9   am
    11    15    14    1
    12     3     4    2
    13    12     9    1
    14    12    13    1
    15     1     7    1
    16     9    10    1
    17    14    13    2
    18     4     5    1
    19     4     6    1
    20     7     6    2
    21     6    20    1
    22    20    21    2
    23    20    22    2
    24    20    23    1
    25    24    23    1
    26    23    25    1
    27    31    25    2
    28    31    29    1
    29    25    26    1
    30    30    29    1
    31    29    28    2
    32    26    27    2
    33    28    27    1
