@<TRIPOS>MOLECULE
25332_out_ligand_01.pdbqt
 31 33 0 0 0
SMALL
GASTEIGER

@<TRIPOS>ATOM
      1  C         17.6300  -23.5670   -8.5900 C.2     1  UNL1        0.0860
      2  C         19.0020  -23.8560   -8.5010 C.2     1  UNL1        0.0420
      3  C         19.9040  -23.3220   -9.4260 C.2     1  UNL1        0.0330
      4  C         19.4330  -22.5010  -10.4510 C.2     1  UNL1        0.0170
      5  C         18.0640  -22.2360  -10.5580 C.2     1  UNL1        0.0090
      6  C         17.1390  -22.7670   -9.6380 C.2     1  UNL1       -0.0390
      7  C         15.6850  -22.4440   -9.8420 C.3     1  UNL1        0.0500
      8  S         16.6030  -24.3000   -7.3190 S.O2    1  UNL1        0.2630
      9  O         17.4880  -25.0690   -6.4650 O.2     1  UNL1       -0.2000
     10  O         15.4410  -24.9210   -7.9130 O.2     1  UNL1       -0.2000
     11  N         16.1150  -22.9700   -6.4010 N.pl3   1  UNL1       -0.2800
     12  H         15.1160  -22.9790   -6.2070 H       1  UNL1        0.1790
     13  C         16.9920  -22.3760   -5.4460 C.2     1  UNL1        0.0480
     14  C         18.0300  -21.5430   -5.8720 C.2     1  UNL1        0.0300
     15  C         18.9000  -20.9610   -4.9500 C.2     1  UNL1        0.0020
     16  C         18.7280  -21.1980   -3.5910 C.2     1  UNL1        0.0010
     17  C         17.6790  -22.0060   -3.1540 C.2     1  UNL1        0.0090
     18  C         16.7930  -22.5980   -4.0700 C.2     1  UNL1       -0.0350
     19  C         15.6600  -23.4350   -3.5440 C.3     1  UNL1        0.0500
     20  C         21.3500  -23.6200   -9.2510 C.2     1  UNL1        0.2510
     21  O         21.7020  -24.7510   -8.9380 O.2     1  UNL1       -0.2680
     22  N         22.2180  -22.5770   -9.4880 N.am    1  UNL1       -0.3530
     23  H         21.8730  -21.7550   -9.9630 H       1  UNL1        0.1630
     24  C         23.6500  -22.7790   -9.4960 C.3     1  UNL1        0.1610
     25  C         24.2530  -22.2800  -10.7860 C.2     1  UNL1       -0.0400
     26  C         23.7750  -22.7520  -12.0170 C.2     1  UNL1        0.0100
     27  C         24.3120  -22.2790  -13.2170 C.2     1  UNL1        0.0240
     28  C         25.3270  -21.3270  -13.1890 C.2     1  UNL1        0.0340
     29 CL         25.9910  -20.7410  -14.6650 Cl      1  UNL1       -0.0840
     30  C         25.8090  -20.8420  -11.9750 C.2     1  UNL1        0.0240
     31  C         25.2710  -21.3150  -10.7750 C.2     1  UNL1        0.0100
@<TRIPOS>BOND
     1    29    28    1
     2    27    28    2
     3    27    26    1
     4    28    30    1
     5    26    25    2
     6    30    31    2
     7    25    31    1
     8    25    24    1
     9     5     4    2
    10     5     6    1
    11     4     3    1
    12    23    22    1
    13     7     6    1
    14     6     1    2
    15    24    22    1
    16    22    20   am
    17     3    20    1
    18     3     2    2
    19    20    21    2
    20     1     2    1
    21     1     8    1
    22    10     8    2
    23     8     9    2
    24     8    11    1
    25    11    12    1
    26    11    13    1
    27    14    13    2
    28    14    15    1
    29    13    18    1
    30    15    16    2
    31    18    19    1
    32    18    17    2
    33    16    17    1
