@<TRIPOS>MOLECULE
25335_out_ligand_01.pdbqt
 31 33 0 0 0
SMALL
GASTEIGER

@<TRIPOS>ATOM
      1  C         17.5700  -22.9360   -9.1150 C.2     1  UNL1        0.0860
      2  C         18.9670  -22.9090   -9.2680 C.2     1  UNL1        0.0420
      3  C         19.5490  -22.1670  -10.2980 C.2     1  UNL1        0.0330
      4  C         18.7380  -21.4590  -11.1870 C.2     1  UNL1        0.0170
      5  C         17.3490  -21.4770  -11.0310 C.2     1  UNL1        0.0090
      6  C         16.7410  -22.2140   -9.9980 C.2     1  UNL1       -0.0390
      7  C         15.2420  -22.1660   -9.8870 C.3     1  UNL1        0.0500
      8  S         16.9210  -23.8830   -7.7390 S.O2    1  UNL1        0.2630
      9  O         18.0350  -24.4750   -7.0280 O.2     1  UNL1       -0.2000
     10  O         15.8550  -24.7250   -8.2410 O.2     1  UNL1       -0.2000
     11  N         16.2790  -22.7020   -6.7240 N.pl3   1  UNL1       -0.2800
     12  H         15.2640  -22.7270   -6.6800 H       1  UNL1        0.1790
     13  C         17.0060  -22.2520   -5.5820 C.2     1  UNL1        0.0480
     14  C         18.1280  -21.4350   -5.7490 C.2     1  UNL1        0.0300
     15  C         18.8720  -21.0170   -4.6460 C.2     1  UNL1        0.0020
     16  C         18.4910  -21.4040   -3.3660 C.2     1  UNL1        0.0010
     17  C         17.3610  -22.2000   -3.1890 C.2     1  UNL1        0.0090
     18  C         16.5990  -22.6260   -4.2890 C.2     1  UNL1       -0.0350
     19  C         15.3940  -23.4900   -4.0420 C.3     1  UNL1        0.0500
     20  C         21.0310  -22.1790  -10.4370 C.2     1  UNL1        0.2560
     21  O         21.7080  -22.1800   -9.4180 O.2     1  UNL1       -0.2670
     22  N         21.4910  -22.1540  -11.7420 N.am    1  UNL1       -0.3230
     23  H         20.7960  -22.0240  -12.4660 H       1  UNL1        0.1690
     24  C         22.8340  -22.1940  -12.1740 C.2     1  UNL1        0.0360
     25  C         23.8410  -22.9070  -11.5210 C.2     1  UNL1        0.0310
     26  C         25.1510  -22.9020  -12.0150 C.2     1  UNL1        0.0280
     27  C         25.4670  -22.1870  -13.1700 C.2     1  UNL1        0.0550
     28 CL         27.1020  -22.2280  -13.7260 Cl      1  UNL1       -0.0830
     29  C         24.4650  -21.4750  -13.8330 C.2     1  UNL1        0.0580
     30 CL         24.7700  -20.5650  -15.2710 Cl      1  UNL1       -0.0820
     31  C         23.1550  -21.4800  -13.3350 C.2     1  UNL1        0.0550
@<TRIPOS>BOND
     1    30    29    1
     2    29    31    1
     3    29    27    2
     4    28    27    1
     5    31    24    2
     6    27    26    1
     7    23    22    1
     8    24    22    1
     9    24    25    1
    10    26    25    2
    11    22    20   am
    12     4     5    2
    13     4     3    1
    14     5     6    1
    15    20     3    1
    16    20    21    2
    17     3     2    2
    18     6     7    1
    19     6     1    2
    20     2     1    1
    21     1     8    1
    22    10     8    2
    23     8     9    2
    24     8    11    1
    25    11    12    1
    26    11    13    1
    27    14    13    2
    28    14    15    1
    29    13    18    1
    30    15    16    2
    31    18    19    1
    32    18    17    2
    33    16    17    1
