@<TRIPOS>MOLECULE
25336_out_ligand_01.pdbqt
 32 34 0 0 0
SMALL
GASTEIGER

@<TRIPOS>ATOM
      1  C         17.6650  -23.5980   -8.5630 C.2     1  UNL1        0.0810
      2  C         19.0450  -23.8570   -8.5230 C.2     1  UNL1        0.0420
      3  C         19.8970  -23.3110   -9.4890 C.2     1  UNL1        0.0330
      4  C         19.3620  -22.5200  -10.5100 C.2     1  UNL1        0.0170
      5  C         17.9900  -22.2540  -10.5440 C.2     1  UNL1        0.0090
      6  C         17.1210  -22.7780   -9.5720 C.2     1  UNL1       -0.0390
      7  C         15.6550  -22.4640   -9.6880 C.3     1  UNL1        0.0500
      8  S         16.6470  -24.3540   -7.2950 S.O2    1  UNL1        0.2460
      9  O         15.5300  -24.9910   -7.9610 O.2     1  UNL1       -0.2060
     10  O         17.5180  -25.0930   -6.4100 O.2     1  UNL1       -0.2060
     11  N         16.0270  -22.9710   -6.5070 N.pl3   1  UNL1       -0.1810
     12  H         15.1180  -23.2180   -6.1100 H       1  UNL1        0.1460
     13  C         16.8950  -22.4420   -5.4870 C.2     1  UNL1        0.0290
     14  C         16.6480  -22.6970   -4.1290 C.2     1  UNL1       -0.0400
     15  C         17.4940  -22.1140   -3.1730 C.2     1  UNL1        0.0090
     16  C         15.5050  -23.5530   -3.6690 C.3     1  UNL1        0.0500
     17  C         18.5710  -21.3130   -3.5610 C.2     1  UNL1        0.0070
     18  C         18.8250  -21.0740   -4.9140 C.2     1  UNL1       -0.0600
     19  C         19.9550  -20.1810   -5.3340 C.3     1  UNL1        0.0480
     20  C         17.9700  -21.6290   -5.8710 C.2     1  UNL1        0.0310
     21  C         21.3510  -23.6320   -9.4150 C.2     1  UNL1        0.2510
     22  O         21.7200  -24.6590   -8.8570 O.2     1  UNL1       -0.2680
     23  N         22.2170  -22.7170   -9.9760 N.am    1  UNL1       -0.3570
     24  H         21.8730  -21.8060  -10.2470 H       1  UNL1        0.1620
     25  C         23.6570  -22.8840   -9.8750 C.3     1  UNL1        0.1270
     26  C         24.4300  -21.8430  -10.6960 C.3     1  UNL1        0.0530
     27  C         24.5850  -22.2370  -12.1490 C.2     1  UNL1       -0.0820
     28  C         23.9720  -21.5570  -13.1370 C.2     1  UNL1       -0.0240
     29  C         24.0990  -21.9060  -14.5920 C.3     1  UNL1        0.0270
     30  C         25.2340  -22.8890  -14.8800 C.3     1  UNL1        0.0040
     31  C         25.2620  -24.0110  -13.8500 C.3     1  UNL1        0.0050
     32  C         25.4340  -23.4580  -12.4340 C.3     1  UNL1        0.0340
@<TRIPOS>BOND
     1    30    29    1
     2    30    31    1
     3    29    28    1
     4    31    32    1
     5    28    27    2
     6    32    27    1
     7    27    26    1
     8    26    25    1
     9     5     4    2
    10     5     6    1
    11     4     3    1
    12    24    23    1
    13    23    25    1
    14    23    21   am
    15     7     6    1
    16     6     1    2
    17     3    21    1
    18     3     2    2
    19    21    22    2
    20     1     2    1
    21     1     8    1
    22     9     8    2
    23     8    11    1
    24     8    10    2
    25    11    12    1
    26    11    13    1
    27    20    13    2
    28    20    18    1
    29    13    14    1
    30    19    18    1
    31    18    17    2
    32    14    16    1
    33    14    15    2
    34    17    15    1
