@<TRIPOS>MOLECULE
25338_out_ligand_01.pdbqt
 29 32 0 0 0
SMALL
GASTEIGER

@<TRIPOS>ATOM
      1  S         23.0370  -22.8000   -9.6540 S.O2    1  UNL1        0.2640
      2  O         23.7070  -23.7530   -8.7950 O.2     1  UNL1       -0.2000
      3  O         23.3950  -21.3970   -9.6200 O.2     1  UNL1       -0.2000
      4  N         23.2350  -23.3000  -11.2650 N.pl3   1  UNL1       -0.2810
      5  H         22.3420  -23.2380  -11.7550 H       1  UNL1        0.1790
      6  C         24.3990  -22.8620  -11.9530 C.2     1  UNL1        0.0440
      7  C         25.6610  -23.2720  -11.5190 C.2     1  UNL1        0.0300
      8  C         26.8110  -22.7980  -12.1550 C.2     1  UNL1        0.0040
      9  C         26.6990  -21.9140  -13.2260 C.2     1  UNL1        0.0250
     10  C         25.4300  -21.5160  -13.6590 C.2     1  UNL1        0.0760
     11  C         24.2750  -21.9740  -13.0190 C.2     1  UNL1        0.0540
     12  S         25.2850  -20.3880  -15.0170 S.O2    1  UNL1        0.2390
     13  O         25.8150  -21.0260  -16.2000 O.2     1  UNL1       -0.2060
     14  O         25.7050  -19.0780  -14.5790 O.2     1  UNL1       -0.2060
     15  N         23.6160  -20.3420  -15.2340 N.3     1  UNL1       -0.2250
     16  H         23.2720  -19.4190  -14.9640 H       1  UNL1        0.1360
     17  H         23.3180  -20.6030  -16.1740 H       1  UNL1        0.1360
     18  C         21.2850  -22.9210   -9.3980 C.2     1  UNL1        0.0900
     19  C         20.8250  -23.7550   -8.3500 C.2     1  UNL1        0.0270
     20  C         19.4550  -23.9130   -8.1070 C.2     1  UNL1        0.0090
     21  C         18.5590  -23.2350   -8.9150 C.2     1  UNL1       -0.0460
     22  C         19.0240  -22.4260   -9.9230 C.2     1  UNL1       -0.0120
     23  C         17.0590  -23.2370   -8.8560 C.2     1  UNL1        0.0440
     24  C         17.9670  -21.8570  -10.5890 C.2     1  UNL1       -0.0460
     25  C         20.3730  -22.2120  -10.2260 C.2     1  UNL1       -0.0020
     26  C         18.2050  -21.0000  -11.6490 C.2     1  UNL1        0.0080
     27  C         16.6510  -22.2910  -10.0120 C.2     1  UNL1        0.0440
     28  C         19.5310  -20.7340  -12.0090 C.2     1  UNL1        0.0020
     29  C         20.6040  -21.3280  -11.3130 C.2     1  UNL1        0.0140
@<TRIPOS>BOND
     1    13    12    2
     2    17    15    1
     3    15    12    1
     4    15    16    1
     5    12    14    2
     6    12    10    1
     7    10     9    2
     8    10    11    1
     9     9     8    1
    10    11     6    2
    11     8     7    2
    12    28    26    1
    13    28    29    2
    14     6     7    1
    15     6     4    1
    16     5     4    1
    17    26    24    2
    18    29    25    1
    19     4     1    1
    20    24    27    1
    21    24    22    1
    22    25    22    1
    23    25    18    2
    24    27    23    2
    25    22    21    2
    26     1     3    2
    27     1    18    1
    28     1     2    2
    29    18    19    1
    30    21    23    1
    31    21    20    1
    32    19    20    2
