@<TRIPOS>MOLECULE
25344_out_ligand_01.pdbqt
 37 40 0 0 0
SMALL
GASTEIGER

@<TRIPOS>ATOM
      1  C         16.9140  -21.0120  -11.3120 C.3     1  UNL1        0.0500
      2  C         18.2040  -21.6660  -10.9030 C.2     1  UNL1       -0.0390
      3  C         19.3830  -21.2860  -11.5690 C.2     1  UNL1        0.0090
      4  C         20.6200  -21.8490  -11.2420 C.2     1  UNL1        0.0170
      5  C         20.7050  -22.8070  -10.2280 C.2     1  UNL1        0.0330
      6  C         19.5470  -23.1740   -9.5330 C.2     1  UNL1        0.0420
      7  C         18.3000  -22.6270   -9.8770 C.2     1  UNL1        0.0860
      8  C         21.9940  -23.4480   -9.8360 C.2     1  UNL1        0.2560
      9  O         21.9490  -24.4330   -9.1070 O.2     1  UNL1       -0.2670
     10  N         23.1300  -22.8670  -10.3620 N.am    1  UNL1       -0.3220
     11  H         23.0060  -22.1030  -11.0250 H       1  UNL1        0.1690
     12  C         24.4730  -23.3060  -10.2370 C.2     1  UNL1        0.0500
     13  C         24.9230  -24.0620   -9.1490 C.2     1  UNL1        0.0300
     14  C         26.2380  -24.5420   -9.1030 C.2     1  UNL1        0.0020
     15  C         27.1210  -24.2800  -10.1470 C.2     1  UNL1        0.0010
     16  C         26.7000  -23.5100  -11.2280 C.2     1  UNL1        0.0190
     17  C         25.3950  -22.9960  -11.2590 C.2     1  UNL1        0.0590
     18  C         24.9830  -22.1350  -12.3980 C.2     1  UNL1        0.2560
     19  O         24.8460  -20.9270  -12.2010 O.2     1  UNL1       -0.2670
     20  N         24.8280  -22.7040  -13.6460 N.am    1  UNL1       -0.3480
     21  C         25.2670  -24.0290  -14.0860 C.3     1  UNL1        0.1260
     22  C         24.4010  -21.9000  -14.7800 C.3     1  UNL1        0.1260
     23  C         25.4090  -23.8960  -15.5950 C.3     1  UNL1        0.0210
     24  C         24.3290  -22.8780  -15.9430 C.3     1  UNL1        0.0210
     25  S         16.8810  -23.1740   -8.9340 S.O2    1  UNL1        0.2630
     26  O         15.7480  -23.2880   -9.8270 O.2     1  UNL1       -0.2000
     27  O         17.2860  -24.3080   -8.1310 O.2     1  UNL1       -0.2000
     28  N         16.6070  -21.9210   -7.8530 N.pl3   1  UNL1       -0.2800
     29  H         16.2180  -21.1050   -8.3150 H       1  UNL1        0.1790
     30  C         16.3920  -22.0990   -6.4490 C.2     1  UNL1        0.0490
     31  C         15.1400  -22.4760   -5.9510 C.2     1  UNL1        0.0310
     32  C         14.9400  -22.6500   -4.5840 C.2     1  UNL1        0.0030
     33  C         15.9980  -22.4770   -3.6990 C.2     1  UNL1        0.0070
     34  C         17.2790  -22.1480   -4.1680 C.2     1  UNL1       -0.0540
     35  C         18.3910  -22.0000   -3.1600 C.3     1  UNL1        0.0490
     36  C         17.4930  -21.9850   -5.5600 C.2     1  UNL1       -0.0290
     37  C         18.8720  -21.6580   -6.0870 C.3     1  UNL1        0.0510
@<TRIPOS>BOND
     1    24    23    1
     2    24    22    1
     3    23    21    1
     4    22    20    1
     5    21    20    1
     6    20    18   am
     7    18    19    2
     8    18    17    1
     9     3     4    1
    10     3     2    2
    11     1     2    1
    12    17    16    1
    13    17    12    2
    14     4     5    2
    15    16    15    2
    16    11    10    1
    17     2     7    1
    18    10    12    1
    19    10     8   am
    20    12    13    1
    21     5     8    1
    22     5     6    1
    23    15    14    1
    24     7     6    2
    25     7    25    1
    26     8     9    2
    27    26    25    2
    28    13    14    2
    29    25    27    2
    30    25    28    1
    31    29    28    1
    32    28    30    1
    33    30    31    2
    34    30    36    1
    35    37    36    1
    36    31    32    1
    37    36    34    2
    38    32    33    2
    39    34    33    1
    40    34    35    1
