@<TRIPOS>MOLECULE
25347_out_ligand_01.pdbqt
 31 33 0 0 0
SMALL
GASTEIGER

@<TRIPOS>ATOM
      1  C         17.5130  -23.4380   -8.7060 C.2     1  UNL1        0.0860
      2  C         18.9160  -23.4940   -8.6500 C.2     1  UNL1        0.0420
      3  C         19.6880  -22.8110   -9.5920 C.2     1  UNL1        0.0330
      4  C         19.0590  -22.0740  -10.5980 C.2     1  UNL1        0.0170
      5  C         17.6640  -22.0110  -10.6510 C.2     1  UNL1        0.0090
      6  C         16.8670  -22.6930   -9.7140 C.2     1  UNL1       -0.0390
      7  C         15.3730  -22.5650   -9.8280 C.3     1  UNL1        0.0500
      8  S         16.6080  -24.3240   -7.4390 S.O2    1  UNL1        0.2630
      9  O         15.4970  -25.0060   -8.0680 O.2     1  UNL1       -0.2000
     10  O         17.5610  -25.0650   -6.6390 O.2     1  UNL1       -0.2000
     11  N         16.0130  -23.0940   -6.4500 N.pl3   1  UNL1       -0.2810
     12  H         15.0260  -23.2070   -6.2390 H       1  UNL1        0.1790
     13  C         16.8510  -22.5140   -5.4570 C.2     1  UNL1        0.0430
     14  C         16.6170  -22.7130   -4.0970 C.2     1  UNL1        0.0300
     15  C         17.4370  -22.0950   -3.1530 C.2     1  UNL1        0.0030
     16  C         18.5010  -21.2930   -3.5660 C.2     1  UNL1        0.0070
     17  C         18.7630  -21.1090   -4.9290 C.2     1  UNL1       -0.0600
     18  C         19.8890  -20.2240   -5.3760 C.3     1  UNL1        0.0480
     19  C         17.9240  -21.7180   -5.8720 C.2     1  UNL1        0.0370
     20  C         21.1690  -22.9110   -9.5030 C.2     1  UNL1        0.2510
     21  O         21.7190  -22.8880   -8.4080 O.2     1  UNL1       -0.2680
     22  N         21.8430  -22.9910  -10.7030 N.am    1  UNL1       -0.3530
     23  H         21.3460  -22.7500  -11.5480 H       1  UNL1        0.1630
     24  C         23.2850  -22.8800  -10.7580 C.3     1  UNL1        0.1620
     25  C         23.7100  -22.0870  -11.9730 C.2     1  UNL1       -0.0350
     26  C         22.7250  -21.7370  -12.9160 C.2     1  UNL1        0.0090
     27  C         23.0540  -21.0280  -14.0700 C.2     1  UNL1        0.0010
     28  C         24.3730  -20.6590  -14.3020 C.2     1  UNL1        0.0010
     29  C         25.3640  -21.0050  -13.3840 C.2     1  UNL1        0.0070
     30  C         25.0520  -21.7290  -12.2200 C.2     1  UNL1       -0.0540
     31  C         26.1590  -22.0750  -11.2620 C.3     1  UNL1        0.0490
@<TRIPOS>BOND
     1    28    27    2
     2    28    29    1
     3    27    26    1
     4    29    30    2
     5    26    25    2
     6    30    25    1
     7    30    31    1
     8    25    24    1
     9    23    22    1
    10    24    22    1
    11    22    20   am
    12     5     4    2
    13     5     6    1
    14     4     3    1
    15     7     6    1
    16     6     1    2
    17     3    20    1
    18     3     2    2
    19    20    21    2
    20     1     2    1
    21     1     8    1
    22     9     8    2
    23     8    10    2
    24     8    11    1
    25    11    12    1
    26    11    13    1
    27    19    13    2
    28    19    17    1
    29    13    14    1
    30    18    17    1
    31    17    16    2
    32    14    15    2
    33    16    15    1
