@<TRIPOS>MOLECULE
25340_out_ligand_01.pdbqt
 29 31 0 0 0
SMALL
GASTEIGER

@<TRIPOS>ATOM
      1  C         17.6620  -23.2540   -8.8570 C.2     1  UNL1        0.0810
      2  C         19.0560  -23.4180   -8.9110 C.2     1  UNL1        0.0420
      3  C         19.7940  -22.8460   -9.9520 C.2     1  UNL1        0.0330
      4  C         19.1320  -22.1410  -10.9620 C.2     1  UNL1        0.0170
      5  C         17.7440  -21.9830  -10.9100 C.2     1  UNL1        0.0090
      6  C         16.9880  -22.5230   -9.8560 C.2     1  UNL1       -0.0390
      7  C         15.4960  -22.3320   -9.8790 C.3     1  UNL1        0.0500
      8  S         16.7870  -24.0240   -7.4970 S.O2    1  UNL1        0.2460
      9  O         17.7700  -24.6330   -6.6270 O.2     1  UNL1       -0.2060
     10  O         15.6890  -24.7820   -8.0540 O.2     1  UNL1       -0.2060
     11  N         16.2110  -22.6380   -6.6800 N.pl3   1  UNL1       -0.1810
     12  H         16.1520  -21.8830   -7.3610 H       1  UNL1        0.1460
     13  C         16.9920  -22.2540   -5.5340 C.2     1  UNL1        0.0280
     14  C         18.1370  -21.4780   -5.7430 C.2     1  UNL1        0.0250
     15  C         18.9140  -21.0580   -4.6640 C.2     1  UNL1        0.0020
     16  C         18.5470  -21.4070   -3.3700 C.2     1  UNL1        0.0010
     17  C         17.4020  -22.1760   -3.1530 C.2     1  UNL1        0.0080
     18  C         16.6080  -22.6080   -4.2280 C.2     1  UNL1       -0.0400
     19  C         15.3780  -23.4230   -3.9400 C.3     1  UNL1        0.0500
     20  C         21.2730  -23.0390   -9.9670 C.2     1  UNL1        0.2560
     21  O         21.7660  -23.8130   -9.1580 O.2     1  UNL1       -0.2670
     22  N         21.9580  -22.2740  -10.8920 N.am    1  UNL1       -0.3220
     23  H         21.4340  -21.5850  -11.4130 H       1  UNL1        0.1690
     24  C         23.3510  -22.2920  -11.1270 C.2     1  UNL1        0.0520
     25  C         23.8320  -23.1690  -12.1020 C.2     1  UNL1        0.0320
     26  C         25.1990  -23.2320  -12.3710 C.2     1  UNL1        0.0210
     27  C         26.0490  -22.4140  -11.6500 C.2     1  UNL1        0.1160
     28  N         25.6280  -21.5570  -10.6980 N.2     1  UNL1       -0.2710
     29  C         24.2910  -21.5130  -10.4570 C.2     1  UNL1        0.1450
@<TRIPOS>BOND
     1    26    25    1
     2    26    27    2
     3    25    24    2
     4    27    28    1
     5    23    22    1
     6    24    22    1
     7    24    29    1
     8     4     5    2
     9     4     3    1
    10     5     6    1
    11    22    20   am
    12    28    29    2
    13    20     3    1
    14    20    21    2
    15     3     2    2
    16     7     6    1
    17     6     1    2
    18     2     1    1
    19     1     8    1
    20    10     8    2
    21     8    11    1
    22     8     9    2
    23    12    11    1
    24    11    13    1
    25    14    13    2
    26    14    15    1
    27    13    18    1
    28    15    16    2
    29    18    19    1
    30    18    17    2
    31    16    17    1
