@<TRIPOS>MOLECULE
25355_out_ligand_01.pdbqt
 31 33 0 0 0
SMALL
GASTEIGER

@<TRIPOS>ATOM
      1  C         17.5770  -23.5910   -8.5970 C.2     1  UNL1        0.0860
      2  C         18.9510  -23.8870   -8.5090 C.2     1  UNL1        0.0420
      3  C         19.8520  -23.3380   -9.4230 C.2     1  UNL1        0.0330
      4  C         19.3860  -22.4760  -10.4160 C.2     1  UNL1        0.0170
      5  C         18.0210  -22.1990  -10.5190 C.2     1  UNL1        0.0090
      6  C         17.0910  -22.7570   -9.6220 C.2     1  UNL1       -0.0390
      7  C         15.6380  -22.4340   -9.8290 C.3     1  UNL1        0.0500
      8  S         16.5380  -24.3630   -7.3570 S.O2    1  UNL1        0.2630
      9  O         15.4030  -25.0030   -7.9810 O.2     1  UNL1       -0.2000
     10  O         17.4260  -25.1170   -6.4940 O.2     1  UNL1       -0.2000
     11  N         16.0090  -23.0520   -6.4360 N.pl3   1  UNL1       -0.2810
     12  H         15.0160  -23.1000   -6.2150 H       1  UNL1        0.1790
     13  C         16.8790  -22.4820   -5.4690 C.2     1  UNL1        0.0430
     14  C         16.6340  -22.6560   -4.1090 C.2     1  UNL1        0.0300
     15  C         17.4690  -22.0510   -3.1720 C.2     1  UNL1        0.0030
     16  C         18.5490  -21.2720   -3.5950 C.2     1  UNL1        0.0070
     17  C         18.8100  -21.1050   -4.9600 C.2     1  UNL1       -0.0600
     18  C         19.9480  -20.2370   -5.4150 C.3     1  UNL1        0.0480
     19  C         17.9610  -21.7080   -5.8960 C.2     1  UNL1        0.0370
     20  C         21.3080  -23.6280   -9.3560 C.2     1  UNL1        0.2510
     21  O         21.7000  -24.6920   -8.8930 O.2     1  UNL1       -0.2680
     22  N         22.1430  -22.6300   -9.8110 N.am    1  UNL1       -0.3530
     23  H         21.7650  -21.7020   -9.9470 H       1  UNL1        0.1630
     24  C         23.5780  -22.7190   -9.6450 C.3     1  UNL1        0.1610
     25  C         24.2880  -22.2630  -10.8950 C.2     1  UNL1       -0.0400
     26  C         25.3250  -21.3200  -10.8130 C.2     1  UNL1        0.0100
     27  C         25.9700  -20.8730  -11.9680 C.2     1  UNL1        0.0240
     28  C         25.5770  -21.3610  -13.2110 C.2     1  UNL1        0.0340
     29 CL         26.3680  -20.8090  -14.6370 Cl      1  UNL1       -0.0840
     30  C         24.5410  -22.2880  -13.3110 C.2     1  UNL1        0.0240
     31  C         23.8950  -22.7360  -12.1560 C.2     1  UNL1        0.0100
@<TRIPOS>BOND
     1    29    28    1
     2    30    28    2
     3    30    31    1
     4    28    27    1
     5    31    25    2
     6    27    26    2
     7    25    26    1
     8    25    24    1
     9     5     4    2
    10     5     6    1
    11     4     3    1
    12    23    22    1
    13     7     6    1
    14    22    24    1
    15    22    20   am
    16     6     1    2
    17     3    20    1
    18     3     2    2
    19    20    21    2
    20     1     2    1
    21     1     8    1
    22     9     8    2
    23     8    10    2
    24     8    11    1
    25    11    12    1
    26    11    13    1
    27    19    13    2
    28    19    17    1
    29    13    14    1
    30    18    17    1
    31    17    16    2
    32    14    15    2
    33    16    15    1
