@<TRIPOS>MOLECULE
25357_out_ligand_01.pdbqt
 30 33 0 0 0
SMALL
GASTEIGER

@<TRIPOS>ATOM
      1  C         17.7460  -23.3070   -8.7690 C.2     1  UNL1        0.0810
      2  C         19.1330  -23.5210   -8.7830 C.2     1  UNL1        0.0420
      3  C         19.9230  -22.9720   -9.7990 C.2     1  UNL1        0.0330
      4  C         19.3190  -22.2360  -10.8210 C.2     1  UNL1        0.0170
      5  C         17.9370  -22.0310  -10.8130 C.2     1  UNL1        0.0090
      6  C         17.1290  -22.5550   -9.7880 C.2     1  UNL1       -0.0390
      7  C         15.6480  -22.3120   -9.8580 C.3     1  UNL1        0.0500
      8  S         16.8090  -24.0480   -7.4320 S.O2    1  UNL1        0.2460
      9  O         17.7600  -24.6380   -6.5120 O.2     1  UNL1       -0.2060
     10  O         15.7360  -24.8260   -8.0110 O.2     1  UNL1       -0.2060
     11  N         16.1840  -22.6540   -6.6600 N.pl3   1  UNL1       -0.1810
     12  H         16.1470  -21.9100   -7.3600 H       1  UNL1        0.1460
     13  C         16.9620  -22.2250   -5.5240 C.2     1  UNL1        0.0280
     14  C         18.1090  -21.4520   -5.7420 C.2     1  UNL1        0.0250
     15  C         18.9030  -21.0500   -4.6690 C.2     1  UNL1        0.0020
     16  C         18.5580  -21.4270   -3.3740 C.2     1  UNL1        0.0010
     17  C         17.4180  -22.2010   -3.1530 C.2     1  UNL1        0.0080
     18  C         16.6020  -22.6050   -4.2240 C.2     1  UNL1       -0.0400
     19  C         15.3840  -23.4340   -3.9430 C.3     1  UNL1        0.0500
     20  C         21.3880  -23.2300   -9.7760 C.2     1  UNL1        0.2520
     21  O         21.8600  -23.9920   -8.9400 O.2     1  UNL1       -0.2680
     22  N         22.1450  -22.5580  -10.7140 N.am    1  UNL1       -0.3520
     23  H         21.6980  -21.9360  -11.3720 H       1  UNL1        0.1630
     24  C         23.5650  -22.8270  -10.8670 C.3     1  UNL1        0.0890
     25  C         24.4320  -21.6330  -10.4160 C.3     1  UNL1        0.0300
     26  C         25.2240  -21.2770  -11.6880 C.3     1  UNL1       -0.0120
     27  C         26.2510  -22.3870  -11.9650 C.3     1  UNL1        0.0050
     28  C         24.1910  -21.5280  -12.7840 C.3     1  UNL1        0.0110
     29  C         25.3760  -23.5580  -12.4390 C.3     1  UNL1        0.0070
     30  C         23.9530  -22.9790  -12.3590 C.3     1  UNL1        0.0090
@<TRIPOS>BOND
     1    28    30    1
     2    28    26    1
     3    29    30    1
     4    29    27    1
     5    30    24    1
     6    27    26    1
     7    26    25    1
     8    23    22    1
     9    24    22    1
    10    24    25    1
    11     4     5    2
    12     4     3    1
    13     5     6    1
    14    22    20   am
    15     7     6    1
    16     3    20    1
    17     3     2    2
    18     6     1    2
    19    20    21    2
    20     2     1    1
    21     1     8    1
    22    10     8    2
    23     8    11    1
    24     8     9    2
    25    12    11    1
    26    11    13    1
    27    14    13    2
    28    14    15    1
    29    13    18    1
    30    15    16    2
    31    18    19    1
    32    18    17    2
    33    16    17    1
