@<TRIPOS>MOLECULE
25352_out_ligand_01.pdbqt
 32 34 0 0 0
SMALL
GASTEIGER

@<TRIPOS>ATOM
      1  C         20.1060  -21.7660  -11.3330 C.2     1  UNL1        0.0330
      2  C         19.0180  -21.1520  -11.9620 C.2     1  UNL1        0.0170
      3  C         17.7330  -21.2990  -11.4320 C.2     1  UNL1        0.0090
      4  C         17.5030  -22.0720  -10.2790 C.2     1  UNL1       -0.0390
      5  C         16.0940  -22.1720   -9.7640 C.3     1  UNL1        0.0500
      6  C         18.6070  -22.6930   -9.6600 C.2     1  UNL1        0.0860
      7  C         19.9000  -22.5380  -10.1870 C.2     1  UNL1        0.0420
      8  C         21.4860  -21.6480  -11.8760 C.2     1  UNL1        0.2560
      9  N         22.4600  -22.2700  -11.1150 N.am    1  UNL1       -0.3230
     10  H         22.1380  -22.8320  -10.3390 H       1  UNL1        0.1690
     11  O         21.6400  -21.0530  -12.9350 O.2     1  UNL1       -0.2670
     12  C         23.8510  -22.2880  -11.3590 C.2     1  UNL1        0.0350
     13  C         24.7680  -21.4850  -10.6800 C.2     1  UNL1        0.0290
     14  C         26.1330  -21.5660  -10.9690 C.2     1  UNL1        0.0030
     15  C         26.5920  -22.4530  -11.9400 C.2     1  UNL1        0.0150
     16  C         25.6880  -23.2660  -12.6310 C.2     1  UNL1        0.0110
     17  C         24.3190  -23.1820  -12.3350 C.2     1  UNL1        0.0440
     18  C         26.2250  -24.2030  -13.6640 C.2     1  UNL1        0.1550
     19  C         25.9240  -23.9390  -15.1170 C.3     1  UNL1        0.0960
     20  O         26.8970  -25.1730  -13.3220 O.2     1  UNL1       -0.2930
     21  S         18.4430  -23.6860   -8.1770 S.O2    1  UNL1        0.2630
     22  O         19.7000  -24.3670   -7.9520 O.2     1  UNL1       -0.2000
     23  O         17.2120  -24.4390   -8.2750 O.2     1  UNL1       -0.2000
     24  N         18.2950  -22.5360   -6.9520 N.pl3   1  UNL1       -0.2810
     25  H         18.6000  -21.6120   -7.2440 H       1  UNL1        0.1790
     26  C         17.2260  -22.6260   -6.0160 C.2     1  UNL1        0.0430
     27  C         17.4670  -23.2440   -4.7880 C.2     1  UNL1        0.0300
     28  C         16.4570  -23.3060   -3.8290 C.2     1  UNL1        0.0030
     29  C         15.2030  -22.7570   -4.0970 C.2     1  UNL1        0.0070
     30  C         14.9420  -22.1610   -5.3360 C.2     1  UNL1       -0.0600
     31  C         13.6090  -21.5330   -5.6140 C.3     1  UNL1        0.0480
     32  C         15.9640  -22.0980   -6.2930 C.2     1  UNL1        0.0370
@<TRIPOS>BOND
     1    19    18    1
     2    18    20    2
     3    18    16    1
     4    11     8    2
     5    16    17    1
     6    16    15    2
     7    17    12    2
     8     2     3    1
     9     2     1    2
    10    15    14    1
    11     8     1    1
    12     8     9   am
    13     3     4    2
    14    12     9    1
    15    12    13    1
    16     1     7    1
    17     9    10    1
    18    14    13    2
    19     4     5    1
    20     4     6    1
    21     7     6    2
    22     6    21    1
    23    23    21    2
    24    21    22    2
    25    21    24    1
    26    25    24    1
    27    24    26    1
    28    32    26    2
    29    32    30    1
    30    26    27    1
    31    31    30    1
    32    30    29    2
    33    27    28    2
    34    29    28    1
