@<TRIPOS>MOLECULE
25358_out_ligand_01.pdbqt
 31 34 0 0 0
SMALL
GASTEIGER

@<TRIPOS>ATOM
      1  C         16.9960  -21.0740  -11.2640 C.3     1  UNL1        0.0500
      2  C         18.4050  -21.5070  -10.9690 C.2     1  UNL1       -0.0390
      3  C         19.4400  -20.9470  -11.7400 C.2     1  UNL1        0.0090
      4  C         20.7730  -21.3110  -11.5350 C.2     1  UNL1        0.0170
      5  C         21.1000  -22.2330  -10.5370 C.2     1  UNL1        0.0330
      6  C         20.0870  -22.7940   -9.7530 C.2     1  UNL1        0.0420
      7  C         18.7450  -22.4340   -9.9650 C.2     1  UNL1        0.0810
      8  S         17.5260  -23.2000   -8.8990 S.O2    1  UNL1        0.2460
      9  O         18.1960  -24.1480   -8.0390 O.2     1  UNL1       -0.2060
     10  O         16.4120  -23.6030   -9.7330 O.2     1  UNL1       -0.2060
     11  N         17.0070  -21.8380   -8.0130 N.pl3   1  UNL1       -0.1810
     12  H         16.1600  -21.4890   -8.4610 H       1  UNL1        0.1460
     13  C         16.7900  -22.0850   -6.6130 C.2     1  UNL1        0.0290
     14  C         15.5060  -22.5070   -6.2520 C.2     1  UNL1        0.0250
     15  C         15.1850  -22.7240   -4.9180 C.2     1  UNL1        0.0020
     16  C         16.1400  -22.4980   -3.9330 C.2     1  UNL1        0.0070
     17  C         17.4290  -22.0510   -4.2690 C.2     1  UNL1       -0.0540
     18  C         18.4120  -21.8030   -3.1530 C.3     1  UNL1        0.0490
     19  C         17.7780  -21.8620   -5.6300 C.2     1  UNL1       -0.0340
     20  C         19.1570  -21.3670   -5.9860 C.3     1  UNL1        0.0500
     21  C         22.4980  -22.6880  -10.3190 C.2     1  UNL1        0.2520
     22  O         22.7160  -23.6640   -9.6120 O.2     1  UNL1       -0.2680
     23  N         23.4860  -21.9560  -10.9430 N.am    1  UNL1       -0.3520
     24  H         23.2500  -21.1010  -11.4250 H       1  UNL1        0.1630
     25  C         24.8720  -22.3670  -10.8870 C.3     1  UNL1        0.0890
     26  C         25.8640  -21.1900  -10.9720 C.3     1  UNL1        0.0300
     27  C         26.7630  -21.5820  -12.1610 C.3     1  UNL1       -0.0120
     28  C         25.9650  -21.4050  -13.4630 C.3     1  UNL1        0.0050
     29  C         26.8230  -23.1050  -12.0300 C.3     1  UNL1        0.0110
     30  C         24.9740  -22.5770  -13.4200 C.3     1  UNL1        0.0070
     31  C         25.3020  -23.2590  -12.0770 C.3     1  UNL1        0.0090
@<TRIPOS>BOND
     1    28    30    1
     2    28    27    1
     3    30    31    1
     4    27    29    1
     5    27    26    1
     6    31    29    1
     7    31    25    1
     8     3     4    1
     9     3     2    2
    10     4     5    2
    11    24    23    1
    12     1     2    1
    13    26    25    1
    14     2     7    1
    15    23    25    1
    16    23    21   am
    17     5    21    1
    18     5     6    1
    19    21    22    2
    20     7     6    2
    21     7     8    1
    22    10     8    2
    23     8     9    2
    24     8    11    1
    25    12    11    1
    26    11    13    1
    27    13    14    2
    28    13    19    1
    29    14    15    1
    30    20    19    1
    31    19    17    2
    32    15    16    2
    33    17    16    1
    34    17    18    1
