@<TRIPOS>MOLECULE
25351_out_ligand_01.pdbqt
 33 36 0 0 0
SMALL
GASTEIGER

@<TRIPOS>ATOM
      1  C         17.4500  -23.1620   -8.9910 C.2     1  UNL1        0.1020
      2  C         18.8470  -23.2600   -9.1510 C.2     1  UNL1        0.0440
      3  C         19.4980  -22.5980  -10.1980 C.2     1  UNL1        0.0340
      4  C         18.7460  -21.8720  -11.1220 C.2     1  UNL1        0.0190
      5  C         17.3570  -21.7900  -10.9740 C.2     1  UNL1        0.0260
      6  C         16.6990  -22.4290   -9.9120 C.2     1  UNL1        0.0570
      7 CL         14.9890  -22.2130   -9.8690 Cl      1  UNL1       -0.0830
      8  C         20.9810  -22.7180  -10.3030 C.2     1  UNL1        0.2560
      9  O         21.5480  -23.4920   -9.5430 O.2     1  UNL1       -0.2670
     10  N         21.5720  -21.8860  -11.2360 N.am    1  UNL1       -0.3230
     11  H         20.9800  -21.2020  -11.6900 H       1  UNL1        0.1690
     12  C         22.9420  -21.8160  -11.5690 C.2     1  UNL1        0.0370
     13  C         23.9710  -21.7320  -10.6270 C.2     1  UNL1        0.0320
     14  C         25.3080  -21.6630  -11.0370 C.2     1  UNL1        0.0420
     15  C         25.6230  -21.6760  -12.3910 C.2     1  UNL1        0.1020
     16  C         24.6040  -21.7930  -13.3390 C.2     1  UNL1        0.1040
     17  O         26.9510  -21.5790  -12.7200 O.2     1  UNL1       -0.3460
     18  C         23.2700  -21.8500  -12.9300 C.2     1  UNL1        0.0690
     19  O         24.8370  -21.8500  -14.6900 O.2     1  UNL1       -0.3460
     20  C         26.2160  -22.1220  -14.9700 C.3     1  UNL1        0.2020
     21  C         27.1210  -21.2590  -14.1060 C.3     1  UNL1        0.2020
     22  S         16.7550  -24.0410   -7.6110 S.O2    1  UNL1        0.2650
     23  O         15.6540  -24.8750   -8.0320 O.2     1  UNL1       -0.2000
     24  O         17.8660  -24.6290   -6.8880 O.2     1  UNL1       -0.2000
     25  N         16.1850  -22.8080   -6.6140 N.pl3   1  UNL1       -0.2800
     26  H         15.1700  -22.8020   -6.5370 H       1  UNL1        0.1790
     27  C         16.9660  -22.3180   -5.5290 C.2     1  UNL1        0.0480
     28  C         18.0760  -21.5070   -5.7820 C.2     1  UNL1        0.0300
     29  C         18.8670  -21.0400   -4.7320 C.2     1  UNL1        0.0020
     30  C         18.5450  -21.3740   -3.4200 C.2     1  UNL1        0.0010
     31  C         17.4260  -22.1650   -3.1570 C.2     1  UNL1        0.0090
     32  C         16.6160  -22.6390   -4.2050 C.2     1  UNL1       -0.0350
     33  C         15.4140  -23.4780   -3.8680 C.3     1  UNL1        0.0500
@<TRIPOS>BOND
     1    20    19    1
     2    20    21    1
     3    19    16    1
     4    21    17    1
     5    16    18    1
     6    16    15    2
     7    18    12    2
     8    17    15    1
     9    15    14    1
    10    11    10    1
    11    12    10    1
    12    12    13    1
    13    10     8   am
    14     4     5    2
    15     4     3    1
    16    14    13    2
    17     5     6    1
    18     8     3    1
    19     8     9    2
    20     3     2    2
    21     6     7    1
    22     6     1    2
    23     2     1    1
    24     1    22    1
    25    23    22    2
    26    22    24    2
    27    22    25    1
    28    25    26    1
    29    25    27    1
    30    28    27    2
    31    28    29    1
    32    27    32    1
    33    29    30    2
    34    32    33    1
    35    32    31    2
    36    30    31    1
