@<TRIPOS>MOLECULE
25361_out_ligand_01.pdbqt
 30 32 0 0 0
SMALL
GASTEIGER

@<TRIPOS>ATOM
      1  C         18.5540  -22.2230  -10.1410 C.2     1  UNL1        0.0810
      2  C         19.8490  -22.7550  -10.0390 C.2     1  UNL1        0.0420
      3  C         20.8670  -22.2930  -10.8780 C.2     1  UNL1        0.0330
      4  C         20.5970  -21.2890  -11.8110 C.2     1  UNL1        0.0170
      5  C         19.3070  -20.7600  -11.9140 C.2     1  UNL1        0.0090
      6  C         18.2670  -21.2120  -11.0810 C.2     1  UNL1       -0.0390
      7  C         16.9030  -20.6040  -11.2530 C.3     1  UNL1        0.0500
      8  S         17.2990  -22.8910   -9.0550 S.O2    1  UNL1        0.2460
      9  O         16.5150  -21.7860   -8.5500 O.2     1  UNL1       -0.2060
     10  O         16.6810  -24.0140   -9.7260 O.2     1  UNL1       -0.2060
     11  N         18.2770  -23.5470   -7.8170 N.pl3   1  UNL1       -0.1810
     12  H         17.9070  -24.4760   -7.6050 H       1  UNL1        0.1460
     13  C         18.3260  -22.7400   -6.6330 C.2     1  UNL1        0.0230
     14  C         19.2580  -21.7060   -6.5280 C.2     1  UNL1        0.0240
     15  C         19.3350  -20.9630   -5.3500 C.2     1  UNL1        0.0020
     16  C         18.4890  -21.2570   -4.2790 C.2     1  UNL1        0.0070
     17  C         17.5550  -22.2960   -4.3760 C.2     1  UNL1       -0.0600
     18  C         16.6830  -22.6490   -3.2080 C.3     1  UNL1        0.0480
     19  C         17.4940  -23.0480   -5.5560 C.2     1  UNL1        0.0310
     20  C         22.2290  -22.8650  -10.7180 C.2     1  UNL1        0.2520
     21  O         22.4500  -23.6600   -9.8130 O.2     1  UNL1       -0.2680
     22  N         23.1700  -22.4600  -11.6400 N.am    1  UNL1       -0.3520
     23  H         22.9050  -21.8300  -12.3830 H       1  UNL1        0.1630
     24  C         24.5620  -22.8930  -11.5620 C.3     1  UNL1        0.0840
     25  C         25.4740  -21.7030  -11.2120 C.3     1  UNL1        0.0250
     26  C         26.9140  -21.8330  -11.7010 C.2     1  UNL1        0.0020
     27  C         27.1210  -21.6620  -13.2150 C.2     1  UNL1        0.0000
     28  C         25.8590  -21.6070  -14.0740 C.3     1  UNL1        0.0000
     29  C         25.0510  -22.9010  -14.1180 C.3     1  UNL1        0.0020
     30  C         24.9530  -23.6890  -12.8140 C.3     1  UNL1        0.0250
@<TRIPOS>BOND
     1    29    28    1
     2    29    30    1
     3    28    27    1
     4    27    26    2
     5    30    24    1
     6    23    22    1
     7     5     4    2
     8     5     6    1
     9     4     3    1
    10    26    25    1
    11    22    24    1
    12    22    20   am
    13    24    25    1
    14     7     6    1
    15     6     1    2
    16     3    20    1
    17     3     2    2
    18    20    21    2
    19     1     2    1
    20     1     8    1
    21    10     8    2
    22     8     9    2
    23     8    11    1
    24    11    12    1
    25    11    13    1
    26    13    14    2
    27    13    19    1
    28    14    15    1
    29    19    17    2
    30    15    16    2
    31    17    16    1
    32    17    18    1
