@<TRIPOS>MOLECULE
25364_out_ligand_01.pdbqt
 33 36 0 0 0
SMALL
GASTEIGER

@<TRIPOS>ATOM
      1  C         19.0400  -22.8260   -9.7070 C.2     1  UNL1        0.0860
      2  C         19.7510  -22.1920  -10.7400 C.2     1  UNL1        0.0420
      3  C         21.1100  -22.4600  -10.9260 C.2     1  UNL1        0.0330
      4  C         21.7640  -23.3530  -10.0740 C.2     1  UNL1        0.0170
      5  C         21.0540  -23.9920   -9.0550 C.2     1  UNL1        0.0090
      6  C         19.6850  -23.7410   -8.8510 C.2     1  UNL1       -0.0390
      7  C         18.9890  -24.4810   -7.7420 C.3     1  UNL1        0.0500
      8  S         17.2940  -22.4430   -9.5720 S.O2    1  UNL1        0.2630
      9  O         16.9270  -21.6190  -10.7050 O.2     1  UNL1       -0.2000
     10  O         16.5760  -23.6730   -9.3110 O.2     1  UNL1       -0.2000
     11  N         17.2050  -21.5310   -8.1570 N.pl3   1  UNL1       -0.2800
     12  H         16.8990  -20.5760   -8.3230 H       1  UNL1        0.1790
     13  C         16.8770  -22.1530   -6.9160 C.2     1  UNL1        0.0480
     14  C         15.6520  -22.8060   -6.7690 C.2     1  UNL1        0.0310
     15  C         15.2940  -23.3810   -5.5500 C.2     1  UNL1        0.0090
     16  C         16.1620  -23.3170   -4.4580 C.2     1  UNL1       -0.0610
     17  C         15.7720  -23.9430   -3.1530 C.3     1  UNL1        0.0480
     18  C         17.4050  -22.6930   -4.6160 C.2     1  UNL1        0.0150
     19  C         17.7800  -22.1100   -5.8390 C.2     1  UNL1       -0.0340
     20  C         19.1200  -21.4390   -5.9400 C.3     1  UNL1        0.0500
     21  C         21.8350  -21.7540  -12.0180 C.2     1  UNL1        0.2560
     22  O         21.2110  -20.9520  -12.7000 O.2     1  UNL1       -0.2670
     23  N         23.1620  -22.1190  -12.1590 N.am    1  UNL1       -0.3230
     24  H         23.4860  -22.8930  -11.5940 H       1  UNL1        0.1690
     25  C         24.1020  -21.5960  -13.0730 C.2     1  UNL1        0.0370
     26  C         25.3660  -21.1030  -12.7000 C.2     1  UNL1        0.0320
     27  C         26.2600  -20.6020  -13.6570 C.2     1  UNL1        0.0420
     28  C         25.8620  -20.6110  -14.9740 C.2     1  UNL1        0.1050
     29  C         24.6330  -21.0950  -15.3480 C.2     1  UNL1        0.1070
     30  O         26.5920  -20.1690  -16.0310 O.2     1  UNL1       -0.3230
     31  C         23.7340  -21.5930  -14.4270 C.2     1  UNL1        0.0690
     32  O         24.4330  -21.0190  -16.6920 O.2     1  UNL1       -0.3230
     33  C         25.6770  -20.4230  -17.1170 C.3     1  UNL1        0.3520
@<TRIPOS>BOND
     1    33    32    1
     2    33    30    1
     3    32    29    1
     4    30    28    1
     5    29    28    2
     6    29    31    1
     7    28    27    1
     8    31    25    2
     9    27    26    2
    10    25    26    1
    11    25    23    1
    12    22    21    2
    13    23    21   am
    14    23    24    1
    15    21     3    1
    16     3     2    1
    17     3     4    2
    18     2     1    2
    19     9     8    2
    20     4     5    1
    21     1     8    1
    22     1     6    1
    23     8    10    2
    24     8    11    1
    25     5     6    2
    26     6     7    1
    27    12    11    1
    28    11    13    1
    29    13    14    2
    30    13    19    1
    31    14    15    1
    32    20    19    1
    33    19    18    2
    34    15    16    2
    35    18    16    1
    36    16    17    1
