@<TRIPOS>MOLECULE
25360_out_ligand_01.pdbqt
 31 33 0 0 0
SMALL
GASTEIGER

@<TRIPOS>ATOM
      1  C         17.4170  -23.3690   -8.7590 C.2     1  UNL1        0.0860
      2  C         18.8160  -23.4980   -8.8240 C.2     1  UNL1        0.0420
      3  C         19.5390  -22.8620   -9.8340 C.2     1  UNL1        0.0330
      4  C         18.8690  -22.0870  -10.7830 C.2     1  UNL1        0.0170
      5  C         17.4810  -21.9380  -10.7040 C.2     1  UNL1        0.0090
      6  C         16.7310  -22.5690   -9.6920 C.2     1  UNL1       -0.0390
      7  C         15.2440  -22.3570   -9.6840 C.3     1  UNL1        0.0500
      8  S         16.6200  -24.2820   -7.4380 S.O2    1  UNL1        0.2630
      9  O         17.6020  -25.0230   -6.6800 O.2     1  UNL1       -0.2000
     10  O         15.4820  -24.9540   -8.0320 O.2     1  UNL1       -0.2000
     11  N         15.9870  -23.0570   -6.4590 N.pl3   1  UNL1       -0.2810
     12  H         15.3540  -22.4450   -6.9700 H       1  UNL1        0.1790
     13  C         16.8150  -22.4690   -5.4620 C.2     1  UNL1        0.0430
     14  C         16.5870  -22.7080   -4.1090 C.2     1  UNL1        0.0300
     15  C         17.4410  -22.1590   -3.1530 C.2     1  UNL1        0.0030
     16  C         18.5220  -21.3710   -3.5510 C.2     1  UNL1        0.0070
     17  C         18.7500  -21.1120   -4.9070 C.2     1  UNL1       -0.0600
     18  C         19.9320  -20.2960   -5.3390 C.3     1  UNL1        0.0480
     19  C         17.8930  -21.6740   -5.8610 C.2     1  UNL1        0.0370
     20  C         21.0080  -23.0800   -9.8980 C.2     1  UNL1        0.2560
     21  O         21.5020  -23.8670   -9.0980 O.2     1  UNL1       -0.2670
     22  N         21.6690  -22.3330  -10.8530 N.am    1  UNL1       -0.3230
     23  H         21.1250  -21.6350  -11.3450 H       1  UNL1        0.1690
     24  C         23.0470  -22.3650  -11.1560 C.2     1  UNL1        0.0380
     25  C         23.8810  -21.5020  -10.4280 C.2     1  UNL1        0.0320
     26  C         25.2580  -21.4670  -10.6700 C.2     1  UNL1        0.0480
     27  C         25.8020  -22.2950  -11.6430 C.2     1  UNL1        0.1540
     28  F         27.1210  -22.2590  -11.8740 F       1  UNL1       -0.2030
     29  C         24.9840  -23.1490  -12.3690 C.2     1  UNL1        0.1570
     30  F         25.5130  -23.9430  -13.3110 F       1  UNL1       -0.2030
     31  C         23.6100  -23.1900  -12.1330 C.2     1  UNL1        0.0750
@<TRIPOS>BOND
     1    30    29    1
     2    29    31    1
     3    29    27    2
     4    31    24    2
     5    28    27    1
     6    27    26    1
     7    23    22    1
     8    24    22    1
     9    24    25    1
    10    22    20   am
    11     4     5    2
    12     4     3    1
    13     5     6    1
    14    26    25    2
    15    20     3    1
    16    20    21    2
    17     3     2    2
    18     6     7    1
    19     6     1    2
    20     2     1    1
    21     1     8    1
    22    10     8    2
    23     8     9    2
    24     8    11    1
    25    12    11    1
    26    11    13    1
    27    19    13    2
    28    19    17    1
    29    13    14    1
    30    18    17    1
    31    17    16    2
    32    14    15    2
    33    16    15    1
