@<TRIPOS>MOLECULE
25366_out_ligand_01.pdbqt
 30 32 0 0 0
SMALL
GASTEIGER

@<TRIPOS>ATOM
      1  C         17.8380  -23.2410   -8.9140 C.2     1  UNL1        0.0860
      2  C         19.2280  -23.4420   -8.9740 C.2     1  UNL1        0.0420
      3  C         19.9830  -22.8530   -9.9900 C.2     1  UNL1        0.0330
      4  C         19.3510  -22.0750  -10.9620 C.2     1  UNL1        0.0170
      5  C         17.9690  -21.8730  -10.9010 C.2     1  UNL1        0.0090
      6  C         17.1890  -22.4470   -9.8800 C.2     1  UNL1       -0.0390
      7  C         15.7100  -22.1780   -9.8880 C.3     1  UNL1        0.0500
      8  S         16.9940  -24.0290   -7.5470 S.O2    1  UNL1        0.2630
      9  O         17.9340  -24.7390   -6.7110 O.2     1  UNL1       -0.2000
     10  O         15.8540  -24.7230   -8.1100 O.2     1  UNL1       -0.2000
     11  N         16.3610  -22.7130   -6.7000 N.pl3   1  UNL1       -0.2800
     12  H         15.3430  -22.7400   -6.6710 H       1  UNL1        0.1790
     13  C         17.0480  -22.2540   -5.5420 C.2     1  UNL1        0.0480
     14  C         18.1820  -21.4560   -5.7190 C.2     1  UNL1        0.0300
     15  C         18.9130  -21.0190   -4.6150 C.2     1  UNL1        0.0020
     16  C         18.5160  -21.3840   -3.3330 C.2     1  UNL1        0.0010
     17  C         17.3830  -22.1810   -3.1530 C.2     1  UNL1        0.0090
     18  C         16.6280  -22.6190   -4.2530 C.2     1  UNL1       -0.0350
     19  C         15.4310  -23.4960   -4.0170 C.3     1  UNL1        0.0500
     20  C         21.4480  -23.1070  -10.0280 C.2     1  UNL1        0.2560
     21  O         21.9080  -23.9350   -9.2530 O.2     1  UNL1       -0.2670
     22  N         22.1460  -22.3370  -10.9400 N.am    1  UNL1       -0.3230
     23  H         21.6300  -21.6060  -11.4120 H       1  UNL1        0.1690
     24  C         23.5280  -22.3920  -11.2200 C.2     1  UNL1        0.0370
     25  C         24.3510  -21.4680  -10.5560 C.2     1  UNL1        0.0290
     26  C         25.7320  -21.4480  -10.7780 C.2     1  UNL1        0.0050
     27  C         26.3000  -22.3520  -11.6700 C.2     1  UNL1        0.0420
     28  C         25.4850  -23.2630  -12.3280 C.2     1  UNL1        0.1180
     29  F         26.0360  -24.1300  -13.1890 F       1  UNL1       -0.2060
     30  C         24.1080  -23.2910  -12.1130 C.2     1  UNL1        0.0710
@<TRIPOS>BOND
     1    29    28    1
     2    28    30    1
     3    28    27    2
     4    30    24    2
     5    27    26    1
     6    23    22    1
     7    24    22    1
     8    24    25    1
     9     4     5    2
    10     4     3    1
    11    22    20   am
    12     5     6    1
    13    26    25    2
    14    20     3    1
    15    20    21    2
    16     3     2    2
    17     7     6    1
    18     6     1    2
    19     2     1    1
    20     1     8    1
    21    10     8    2
    22     8     9    2
    23     8    11    1
    24    11    12    1
    25    11    13    1
    26    14    13    2
    27    14    15    1
    28    13    18    1
    29    15    16    2
    30    18    19    1
    31    18    17    2
    32    16    17    1
