@<TRIPOS>MOLECULE
25365_out_ligand_01.pdbqt
 31 33 0 0 0
SMALL
GASTEIGER

@<TRIPOS>ATOM
      1  C         19.3860  -22.4880  -10.4660 C.2     1  UNL1        0.0330
      2  C         18.5800  -21.7170  -11.3030 C.2     1  UNL1        0.0170
      3  C         17.2040  -21.6440  -11.0700 C.2     1  UNL1        0.0090
      4  C         16.6060  -22.3180   -9.9880 C.2     1  UNL1       -0.0390
      5  C         15.1180  -22.1970   -9.8250 C.3     1  UNL1        0.0500
      6  C         17.4360  -23.0640   -9.1290 C.2     1  UNL1        0.0860
      7  C         18.8150  -23.1610   -9.3840 C.2     1  UNL1        0.0420
      8  C         20.8590  -22.5770  -10.6560 C.2     1  UNL1        0.2560
      9  N         21.3460  -21.8850  -11.7490 N.am    1  UNL1       -0.3230
     10  H         20.6630  -21.4760  -12.3740 H       1  UNL1        0.1690
     11  O         21.4970  -23.2610   -9.8660 O.2     1  UNL1       -0.2670
     12  C         22.6920  -21.7590  -12.1500 C.2     1  UNL1        0.0350
     13  C         22.9400  -21.5870  -13.5210 C.2     1  UNL1        0.0370
     14  C         24.2480  -21.4460  -14.0210 C.2     1  UNL1       -0.0430
     15  C         24.4530  -21.2700  -15.5000 C.3     1  UNL1        0.0490
     16  C         25.3170  -21.4770  -13.1140 C.2     1  UNL1        0.0170
     17  C         25.0780  -21.6430  -11.7480 C.2     1  UNL1        0.0220
     18 BR         27.1210  -21.2940  -13.6760 Br      1  UNL1       -0.0510
     19  C         23.7720  -21.7820  -11.2700 C.2     1  UNL1        0.0310
     20  S         16.8520  -23.9580   -7.6910 S.O2    1  UNL1        0.2630
     21  O         15.7600  -24.8300   -8.0570 O.2     1  UNL1       -0.2000
     22  O         18.0270  -24.4930   -7.0330 O.2     1  UNL1       -0.2000
     23  N         16.2730  -22.7340   -6.6840 N.pl3   1  UNL1       -0.2800
     24  H         15.2570  -22.7230   -6.6310 H       1  UNL1        0.1790
     25  C         17.0200  -22.3030   -5.5470 C.2     1  UNL1        0.0480
     26  C         18.1370  -21.4790   -5.7160 C.2     1  UNL1        0.0300
     27  C         18.8820  -21.0580   -4.6150 C.2     1  UNL1        0.0020
     28  C         18.5080  -21.4490   -3.3340 C.2     1  UNL1        0.0010
     29  C         17.3790  -22.2480   -3.1530 C.2     1  UNL1        0.0090
     30  C         16.6170  -22.6790   -4.2530 C.2     1  UNL1       -0.0350
     31  C         15.3920  -23.5130   -4.0000 C.3     1  UNL1        0.0500
@<TRIPOS>BOND
     1    15    14    1
     2    14    13    1
     3    14    16    2
     4    18    16    1
     5    13    12    2
     6    16    17    1
     7    10     9    1
     8    12     9    1
     9    12    19    1
    10     9     8   am
    11    17    19    2
    12     2     3    1
    13     2     1    2
    14     3     4    2
    15     8     1    1
    16     8    11    2
    17     1     7    1
    18     4     5    1
    19     4     6    1
    20     7     6    2
    21     6    20    1
    22    21    20    2
    23    20    22    2
    24    20    23    1
    25    23    24    1
    26    23    25    1
    27    26    25    2
    28    26    27    1
    29    25    30    1
    30    27    28    2
    31    30    31    1
    32    30    29    2
    33    28    29    1
