@<TRIPOS>MOLECULE
25367_out_ligand_01.pdbqt
 34 37 0 0 0
SMALL
GASTEIGER

@<TRIPOS>ATOM
      1  C         20.9810  -22.2290  -10.7990 C.2     1  UNL1        0.0340
      2  C         19.9020  -21.4260  -11.1790 C.2     1  UNL1        0.0310
      3  C         18.6200  -21.6710  -10.6770 C.2     1  UNL1        0.0270
      4  C         18.4200  -22.7200   -9.7790 C.2     1  UNL1        0.0750
      5  C         19.4840  -23.5390   -9.3980 C.2     1  UNL1        0.0270
      6  C         20.7600  -23.2900   -9.9070 C.2     1  UNL1        0.0310
      7  S         16.7950  -23.0510   -9.1350 S.O2    1  UNL1        0.2450
      8  O         16.0650  -23.7560  -10.1650 O.2     1  UNL1       -0.2060
      9  O         16.3000  -21.8310   -8.5320 O.2     1  UNL1       -0.2060
     10  N         17.1960  -24.1010   -7.8530 N.pl3   1  UNL1       -0.1810
     11  H         18.2080  -24.2280   -7.8700 H       1  UNL1        0.1460
     12  C         16.7570  -23.6500   -6.5550 C.2     1  UNL1        0.0340
     13  C         15.5420  -24.1690   -6.0950 C.2     1  UNL1        0.0250
     14  C         15.0360  -23.7760   -4.8610 C.2     1  UNL1        0.0030
     15  C         15.7400  -22.8570   -4.0860 C.2     1  UNL1        0.0120
     16  C         16.9510  -22.3080   -4.5360 C.2     1  UNL1       -0.0240
     17  C         17.6370  -21.3740   -3.7420 C.2     1  UNL1        0.0120
     18  C         17.4790  -22.6900   -5.7950 C.2     1  UNL1       -0.0040
     19  C         18.8340  -20.8050   -4.1710 C.2     1  UNL1        0.0010
     20  C         19.3620  -21.1610   -5.4050 C.2     1  UNL1        0.0010
     21  C         18.6950  -22.0900   -6.2070 C.2     1  UNL1        0.0140
     22  N         22.3000  -22.0480  -11.2590 N.am    1  UNL1       -0.3270
     23  C         23.3870  -21.5510  -10.5590 C.2     1  UNL1        0.2310
     24  O         23.3970  -21.2170   -9.3770 O.2     1  UNL1       -0.2720
     25  H         22.4660  -22.2410  -12.2410 H       1  UNL1        0.1690
     26  C         24.6740  -21.5190  -11.3740 C.3     1  UNL1        0.1820
     27  S         25.3220  -23.1910  -11.7330 S.3     1  UNL1       -0.1210
     28  C         25.0770  -23.2750  -13.4990 C.2     1  UNL1        0.0010
     29  C         25.3460  -24.4360  -14.2310 C.2     1  UNL1        0.0200
     30  C         25.1360  -24.4640  -15.6140 C.2     1  UNL1        0.0250
     31  C         24.6470  -23.3330  -16.2630 C.2     1  UNL1        0.0340
     32 CL         24.3840  -23.3690  -17.9630 Cl      1  UNL1       -0.0840
     33  C         24.3610  -22.1760  -15.5430 C.2     1  UNL1        0.0250
     34  C         24.5720  -22.1490  -14.1610 C.2     1  UNL1        0.0200
@<TRIPOS>BOND
     1    32    31    1
     2    31    30    2
     3    31    33    1
     4    30    29    1
     5    33    34    2
     6    29    28    2
     7    34    28    1
     8    28    27    1
     9    25    22    1
    10    27    26    1
    11    26    23    1
    12    22     1    1
    13    22    23   am
    14     2     1    2
    15     2     3    1
    16     1     6    1
    17     3     4    2
    18    23    24    2
    19     8     7    2
    20     6     5    2
    21     4     5    1
    22     4     7    1
    23     7     9    2
    24     7    10    1
    25    11    10    1
    26    10    12    1
    27    12    13    2
    28    12    18    1
    29    21    18    1
    30    21    20    2
    31    13    14    1
    32    18    16    2
    33    20    19    1
    34    14    15    2
    35    16    15    1
    36    16    17    1
    37    19    17    2
