@<TRIPOS>MOLECULE
25377_out_ligand_01.pdbqt
 32 34 0 0 0
SMALL
GASTEIGER

@<TRIPOS>ATOM
      1  C         17.5450  -23.4130   -8.6460 C.2     1  UNL1        0.0810
      2  C         18.9490  -23.4380   -8.6070 C.2     1  UNL1        0.0420
      3  C         19.6990  -22.7770   -9.5890 C.2     1  UNL1        0.0330
      4  C         19.0330  -22.0670  -10.5940 C.2     1  UNL1        0.0170
      5  C         17.6360  -22.0370  -10.6280 C.2     1  UNL1        0.0090
      6  C         16.8670  -22.7090   -9.6620 C.2     1  UNL1       -0.0390
      7  C         15.3690  -22.6040   -9.7430 C.3     1  UNL1        0.0500
      8  S         16.6630  -24.2890   -7.3570 S.O2    1  UNL1        0.2460
      9  O         15.5580  -24.9930   -7.9740 O.2     1  UNL1       -0.2060
     10  O         17.6430  -24.9710   -6.5430 O.2     1  UNL1       -0.2060
     11  N         15.9800  -22.9750   -6.5020 N.pl3   1  UNL1       -0.1810
     12  H         15.0740  -23.2730   -6.1400 H       1  UNL1        0.1460
     13  C         16.8200  -22.4430   -5.4610 C.2     1  UNL1        0.0290
     14  C         16.6290  -22.7870   -4.1130 C.2     1  UNL1       -0.0400
     15  C         17.5020  -22.2470   -3.1540 C.2     1  UNL1        0.0090
     16  C         15.5280  -23.7040   -3.6580 C.3     1  UNL1        0.0500
     17  C         18.5470  -21.3960   -3.5270 C.2     1  UNL1        0.0070
     18  C         18.7480  -21.0750   -4.8710 C.2     1  UNL1       -0.0600
     19  C         19.8580  -20.1530   -5.2810 C.3     1  UNL1        0.0480
     20  C         17.8700  -21.5930   -5.8310 C.2     1  UNL1        0.0310
     21  C         21.1880  -22.8470   -9.4980 C.2     1  UNL1        0.2510
     22  O         21.7270  -22.8890   -8.3960 O.2     1  UNL1       -0.2680
     23  N         21.8870  -22.8910  -10.6840 N.am    1  UNL1       -0.3530
     24  H         21.4110  -22.8250  -11.5690 H       1  UNL1        0.1630
     25  C         23.3330  -22.8470  -10.7170 C.3     1  UNL1        0.1620
     26  C         23.8130  -22.0640  -11.9160 C.2     1  UNL1       -0.0350
     27  C         22.8820  -21.7670  -12.9290 C.2     1  UNL1        0.0090
     28  C         23.2570  -21.0520  -14.0640 C.2     1  UNL1        0.0010
     29  C         24.5750  -20.6330  -14.2100 C.2     1  UNL1        0.0010
     30  C         25.5160  -20.9340  -13.2250 C.2     1  UNL1        0.0070
     31  C         25.1540  -21.6590  -12.0770 C.2     1  UNL1       -0.0540
     32  C         26.2100  -21.9530  -11.0450 C.3     1  UNL1        0.0490
@<TRIPOS>BOND
     1    29    28    2
     2    29    30    1
     3    28    27    1
     4    30    31    2
     5    27    26    2
     6    31    26    1
     7    31    32    1
     8    26    25    1
     9    24    23    1
    10    25    23    1
    11    23    21   am
    12     5     4    2
    13     5     6    1
    14     4     3    1
    15     7     6    1
    16     6     1    2
    17     3    21    1
    18     3     2    2
    19    21    22    2
    20     1     2    1
    21     1     8    1
    22     9     8    2
    23     8    10    2
    24     8    11    1
    25    11    12    1
    26    11    13    1
    27    20    13    2
    28    20    18    1
    29    13    14    1
    30    19    18    1
    31    18    17    2
    32    14    16    1
    33    14    15    2
    34    17    15    1
