@<TRIPOS>MOLECULE
25375_out_ligand_01.pdbqt
 31 33 0 0 0
SMALL
GASTEIGER

@<TRIPOS>ATOM
      1  C         17.5510  -23.0640   -9.0010 C.2     1  UNL1        0.0810
      2  C         18.9420  -22.9910   -9.1790 C.2     1  UNL1        0.0420
      3  C         19.4800  -22.2820  -10.2590 C.2     1  UNL1        0.0330
      4  C         18.6260  -21.6120  -11.1390 C.2     1  UNL1        0.0170
      5  C         17.2420  -21.6780  -10.9570 C.2     1  UNL1        0.0090
      6  C         16.6800  -22.4130   -9.8980 C.2     1  UNL1       -0.0390
      7  C         15.1830  -22.4130   -9.7510 C.3     1  UNL1        0.0500
      8  S         16.9450  -23.9790   -7.5880 S.O2    1  UNL1        0.2460
      9  O         18.0810  -24.5270   -6.8830 O.2     1  UNL1       -0.2060
     10  O         15.8560  -24.8230   -8.0320 O.2     1  UNL1       -0.2060
     11  N         16.2220  -22.7260   -6.6930 N.pl3   1  UNL1       -0.1810
     12  H         15.3280  -23.0860   -6.3500 H       1  UNL1        0.1460
     13  C         16.9690  -22.2040   -5.5770 C.2     1  UNL1        0.0280
     14  C         18.1330  -21.4500   -5.7710 C.2     1  UNL1        0.0250
     15  C         18.9040  -21.0490   -4.6780 C.2     1  UNL1        0.0020
     16  C         18.5340  -21.4270   -3.3910 C.2     1  UNL1        0.0010
     17  C         17.4050  -22.2210   -3.1950 C.2     1  UNL1        0.0080
     18  C         16.6250  -22.6370   -4.2850 C.2     1  UNL1       -0.0400
     19  C         15.4230  -23.5080   -4.0410 C.3     1  UNL1        0.0500
     20  C         20.9630  -22.2360  -10.4120 C.2     1  UNL1        0.2560
     21  O         21.6500  -22.1770   -9.4000 O.2     1  UNL1       -0.2670
     22  N         21.4220  -22.3050  -11.7120 N.am    1  UNL1       -0.3200
     23  H         20.7480  -22.4770  -12.4500 H       1  UNL1        0.1690
     24  C         22.7640  -22.2530  -12.1520 C.2     1  UNL1        0.0740
     25  C         23.8150  -22.9640  -11.5710 C.2     1  UNL1        0.0340
     26  C         25.1140  -22.8410  -12.0800 C.2     1  UNL1        0.0210
     27  C         25.3650  -22.0040  -13.1690 C.2     1  UNL1        0.0140
     28 BR         27.1210  -21.8460  -13.8460 Br      1  UNL1       -0.0510
     29  C         24.3300  -21.2860  -13.7570 C.2     1  UNL1        0.0630
     30  C         23.0450  -21.4170  -13.2430 C.2     1  UNL1        0.1440
     31  F         22.0460  -20.7200  -13.8100 F       1  UNL1       -0.2040
@<TRIPOS>BOND
     1    28    27    1
     2    31    30    1
     3    29    30    1
     4    29    27    2
     5    30    24    2
     6    27    26    1
     7    23    22    1
     8    24    22    1
     9    24    25    1
    10    26    25    2
    11    22    20   am
    12     4     5    2
    13     4     3    1
    14     5     6    1
    15    20     3    1
    16    20    21    2
    17     3     2    2
    18     6     7    1
    19     6     1    2
    20     2     1    1
    21     1     8    1
    22    10     8    2
    23     8     9    2
    24     8    11    1
    25    11    12    1
    26    11    13    1
    27    14    13    2
    28    14    15    1
    29    13    18    1
    30    15    16    2
    31    18    19    1
    32    18    17    2
    33    16    17    1
