@<TRIPOS>MOLECULE
25374_out_ligand_01.pdbqt
 33 35 0 0 0
SMALL
GASTEIGER

@<TRIPOS>ATOM
      1  C         18.7030  -22.4000  -10.1160 C.2     1  UNL1        0.0810
      2  C         20.0280  -22.8650  -10.1300 C.2     1  UNL1        0.0420
      3  C         20.9590  -22.3040  -11.0070 C.2     1  UNL1        0.0330
      4  C         20.5680  -21.2860  -11.8820 C.2     1  UNL1        0.0170
      5  C         19.2490  -20.8230  -11.8660 C.2     1  UNL1        0.0090
      6  C         18.2940  -21.3730  -10.9920 C.2     1  UNL1       -0.0390
      7  C         16.8950  -20.8230  -11.0290 C.3     1  UNL1        0.0500
      8  C         22.3470  -22.8380  -11.0170 C.2     1  UNL1        0.2560
      9  O         22.6980  -23.5470  -10.0840 O.2     1  UNL1       -0.2670
     10  N         23.1120  -22.4340  -12.0960 N.am    1  UNL1       -0.3220
     11  H         22.6980  -21.7290  -12.6910 H       1  UNL1        0.1690
     12  C         24.4410  -22.8110  -12.4060 C.2     1  UNL1        0.0430
     13  C         24.7370  -23.7850  -13.3690 C.2     1  UNL1        0.0660
     14  C         26.0690  -24.1240  -13.6470 C.2     1  UNL1        0.1050
     15  C         27.1210  -23.4970  -12.9720 C.2     1  UNL1        0.0370
     16  C         26.8340  -22.5240  -12.0180 C.2     1  UNL1        0.0110
     17  C         25.5040  -22.1690  -11.7260 C.2     1  UNL1       -0.0350
     18  C         25.2680  -21.1140  -10.6770 C.3     1  UNL1        0.0500
     19  N         26.3700  -25.1400  -14.6630 N.pl3   1  UNL1       -0.1160
     20  O         25.8620  -24.9950  -15.7860 O.2     1  UNL1       -0.5320
     21  O         27.1020  -26.0870  -14.3430 O.2     1  UNL1       -0.5320
     22  S         17.5870  -23.1520   -8.9400 S.O2    1  UNL1        0.2460
     23  O         16.4270  -23.6480   -9.6460 O.2     1  UNL1       -0.2060
     24  O         18.3600  -24.0440   -8.1010 O.2     1  UNL1       -0.2060
     25  N         17.1340  -21.8460   -7.9620 N.pl3   1  UNL1       -0.1810
     26  H         17.8320  -21.1050   -8.0190 H       1  UNL1        0.1460
     27  C         16.6200  -22.1450   -6.6690 C.2     1  UNL1        0.0230
     28  C         15.2580  -22.3940   -6.5110 C.2     1  UNL1        0.0240
     29  C         14.7610  -22.7530   -5.2590 C.2     1  UNL1        0.0020
     30  C         15.6250  -22.8590   -4.1690 C.2     1  UNL1        0.0070
     31  C         16.9920  -22.5970   -4.3170 C.2     1  UNL1       -0.0600
     32  C         17.9270  -22.7550   -3.1540 C.3     1  UNL1        0.0480
     33  C         17.4880  -22.2560   -5.5820 C.2     1  UNL1        0.0310
@<TRIPOS>BOND
     1    20    19    2
     2    19    21    2
     3    19    14    1
     4    14    13    1
     5    14    15    2
     6    13    12    2
     7    15    16    1
     8    11    10    1
     9    12    10    1
    10    12    17    1
    11    10     8   am
    12    16    17    2
    13     4     5    2
    14     4     3    1
    15     5     6    1
    16    17    18    1
    17     7     6    1
    18     8     3    1
    19     8     9    2
    20     3     2    2
    21     6     1    2
    22     2     1    1
    23     1    22    1
    24    23    22    2
    25    22    24    2
    26    22    25    1
    27    26    25    1
    28    25    27    1
    29    27    28    2
    30    27    33    1
    31    28    29    1
    32    33    31    2
    33    29    30    2
    34    31    30    1
    35    31    32    1
