@<TRIPOS>MOLECULE
25379_out_ligand_01.pdbqt
 34 37 0 0 0
SMALL
GASTEIGER

@<TRIPOS>ATOM
      1  C         18.4600  -23.0530   -9.1610 C.2     1  UNL1        0.0970
      2  C         19.2850  -22.3620  -10.0660 C.2     1  UNL1        0.0430
      3  C         20.6550  -22.6450  -10.1260 C.2     1  UNL1        0.0340
      4  C         21.1980  -23.6300   -9.2970 C.2     1  UNL1        0.0190
      5  C         20.3730  -24.3140   -8.3990 C.2     1  UNL1        0.0260
      6  C         19.0020  -24.0290   -8.3230 C.2     1  UNL1        0.0570
      7 CL         18.0920  -24.9600   -7.1920 Cl      1  UNL1       -0.0830
      8  C         21.4910  -21.9110  -11.1140 C.2     1  UNL1        0.2560
      9  O         20.9730  -20.9790  -11.7150 O.2     1  UNL1       -0.2670
     10  N         22.7920  -22.3620  -11.2230 N.am    1  UNL1       -0.3230
     11  H         23.0950  -23.0660  -10.5620 H       1  UNL1        0.1690
     12  C         23.7910  -21.8860  -12.0990 C.2     1  UNL1        0.0370
     13  C         25.0280  -21.3920  -11.6770 C.2     1  UNL1        0.0320
     14  C         25.9690  -20.9380  -12.6090 C.2     1  UNL1        0.0420
     15  C         25.6780  -20.9770  -13.9690 C.2     1  UNL1        0.1020
     16  C         24.4330  -21.4410  -14.3980 C.2     1  UNL1        0.1040
     17  O         26.6540  -20.5380  -14.8250 O.2     1  UNL1       -0.3460
     18  C         23.5000  -21.9060  -13.4700 C.2     1  UNL1        0.0690
     19  O         24.0590  -21.4770  -15.7180 O.2     1  UNL1       -0.3460
     20  C         24.9310  -20.6830  -16.5300 C.3     1  UNL1        0.2020
     21  C         26.3860  -20.9440  -16.1720 C.3     1  UNL1        0.2020
     22  S         16.7370  -22.6250   -9.1070 S.O2    1  UNL1        0.2470
     23  O         16.0150  -23.8040   -8.6750 O.2     1  UNL1       -0.2050
     24  O         16.4120  -21.9640  -10.3500 O.2     1  UNL1       -0.2050
     25  N         16.6970  -21.5410   -7.7910 N.pl3   1  UNL1       -0.1810
     26  H         17.5900  -21.0550   -7.7530 H       1  UNL1        0.1460
     27  C         16.3830  -22.1600   -6.5290 C.2     1  UNL1        0.0290
     28  C         15.1090  -22.7220   -6.4070 C.2     1  UNL1        0.0250
     29  C         14.7370  -23.3830   -5.2420 C.2     1  UNL1        0.0020
     30  C         15.6480  -23.5060   -4.1980 C.2     1  UNL1        0.0070
     31  C         16.9420  -22.9710   -4.3080 C.2     1  UNL1       -0.0540
     32  C         17.8920  -23.1590   -3.1530 C.3     1  UNL1        0.0490
     33  C         17.3200  -22.2680   -5.4800 C.2     1  UNL1       -0.0340
     34  C         18.7220  -21.7260   -5.6000 C.3     1  UNL1        0.0500
@<TRIPOS>BOND
     1    20    21    1
     2    20    19    1
     3    21    17    1
     4    19    16    1
     5    17    15    1
     6    16    15    2
     7    16    18    1
     8    15    14    1
     9    18    12    2
    10    14    13    2
    11    12    13    1
    12    12    10    1
    13     9     8    2
    14    10     8   am
    15    10    11    1
    16     8     3    1
    17    24    22    2
    18     3     2    1
    19     3     4    2
    20     2     1    2
    21     4     5    1
    22     1    22    1
    23     1     6    1
    24    22    23    2
    25    22    25    1
    26     5     6    2
    27     6     7    1
    28    25    26    1
    29    25    27    1
    30    27    28    2
    31    27    33    1
    32    28    29    1
    33    34    33    1
    34    33    31    2
    35    29    30    2
    36    31    30    1
    37    31    32    1
