@<TRIPOS>MOLECULE
25385_out_ligand_01.pdbqt
 33 35 0 0 0
SMALL
GASTEIGER

@<TRIPOS>ATOM
      1  C         19.4340  -22.2610  -10.1950 C.2     1  UNL1        0.0330
      2  C         18.6070  -21.5830  -11.0920 C.2     1  UNL1        0.0170
      3  C         17.2190  -21.6420  -10.9370 C.2     1  UNL1        0.0090
      4  C         16.6260  -22.3910   -9.9020 C.2     1  UNL1       -0.0390
      5  C         15.1260  -22.3850   -9.8040 C.3     1  UNL1        0.0500
      6  C         17.4700  -23.0970   -9.0250 C.2     1  UNL1        0.0860
      7  C         18.8670  -23.0150   -9.1660 C.2     1  UNL1        0.0420
      8  C         20.9160  -22.2560  -10.3330 C.2     1  UNL1        0.2560
      9  N         21.3820  -22.2810  -11.6350 N.am    1  UNL1       -0.3230
     10  H         20.6910  -22.2000  -12.3710 H       1  UNL1        0.1690
     11  O         21.5850  -22.2060   -9.3090 O.2     1  UNL1       -0.2670
     12  C         22.7260  -22.3140  -12.0600 C.2     1  UNL1        0.0360
     13  C         23.7280  -23.0530  -11.4290 C.2     1  UNL1        0.0320
     14  C         25.0450  -23.0400  -11.9130 C.2     1  UNL1        0.0410
     15  C         25.3840  -22.2880  -13.0390 C.2     1  UNL1        0.0900
     16  C         24.3750  -21.5500  -13.6740 C.2     1  UNL1        0.0690
     17  C         23.0610  -21.5630  -13.1900 C.2     1  UNL1        0.0560
     18 CL         24.7060  -20.5930  -15.0780 Cl      1  UNL1       -0.0810
     19  O         26.6400  -22.2180  -13.5800 O.2     1  UNL1       -0.3540
     20  C         27.0650  -23.2960  -14.4030 C.3     1  UNL1        0.2100
     21  S         16.8900  -24.1130   -7.6700 S.O2    1  UNL1        0.2630
     22  O         15.7700  -24.8790   -8.1770 O.2     1  UNL1       -0.2000
     23  O         18.0040  -24.7820   -7.0380 O.2     1  UNL1       -0.2000
     24  N         16.2350  -22.9850   -6.6020 N.pl3   1  UNL1       -0.2800
     25  H         15.5140  -22.4100   -7.0270 H       1  UNL1        0.1790
     26  C         17.0220  -22.4380   -5.5470 C.2     1  UNL1        0.0490
     27  C         18.0680  -21.5620   -5.8590 C.2     1  UNL1        0.0370
     28  C         18.8430  -20.9730   -4.8540 C.2     1  UNL1       -0.0600
     29  C         19.9760  -20.0550   -5.2090 C.3     1  UNL1        0.0480
     30  C         18.5810  -21.2960   -3.5210 C.2     1  UNL1        0.0070
     31  C         17.5520  -22.1830   -3.2030 C.2     1  UNL1        0.0090
     32  C         16.7700  -22.7790   -4.2080 C.2     1  UNL1       -0.0350
     33  C         15.6620  -23.7050   -3.7870 C.3     1  UNL1        0.0500
@<TRIPOS>BOND
     1    18    16    1
     2    20    19    1
     3    16    17    1
     4    16    15    2
     5    19    15    1
     6    17    12    2
     7    15    14    1
     8    10     9    1
     9    12     9    1
    10    12    13    1
    11    14    13    2
    12     9     8   am
    13     2     3    1
    14     2     1    2
    15     3     4    2
    16     8     1    1
    17     8    11    2
    18     1     7    1
    19     4     5    1
    20     4     6    1
    21     7     6    2
    22     6    21    1
    23    22    21    2
    24    21    23    2
    25    21    24    1
    26    25    24    1
    27    24    26    1
    28    27    26    2
    29    27    28    1
    30    26    32    1
    31    29    28    1
    32    28    30    2
    33    32    33    1
    34    32    31    2
    35    30    31    1
