@<TRIPOS>MOLECULE
25388_out_ligand_01.pdbqt
 35 37 0 0 0
SMALL
GASTEIGER

@<TRIPOS>ATOM
      1  C         17.7150  -23.2850   -8.8960 C.2     1  UNL1        0.0860
      2  C         19.1110  -23.4340   -8.9890 C.2     1  UNL1        0.0420
      3  C         19.8190  -22.8300  -10.0300 C.2     1  UNL1        0.0330
      4  C         19.1330  -22.0860  -10.9920 C.2     1  UNL1        0.0170
      5  C         17.7480  -21.9320  -10.8970 C.2     1  UNL1        0.0090
      6  C         17.0140  -22.5240   -9.8510 C.2     1  UNL1       -0.0390
      7  C         15.5270  -22.3070   -9.8240 C.3     1  UNL1        0.0500
      8  C         21.2930  -23.0340  -10.1000 C.2     1  UNL1        0.2560
      9  O         21.7900  -23.8830   -9.3700 O.2     1  UNL1       -0.2670
     10  N         21.9540  -22.2070  -10.9880 N.am    1  UNL1       -0.3230
     11  H         21.4100  -21.4760  -11.4300 H       1  UNL1        0.1690
     12  C         23.3360  -22.1890  -11.2770 C.2     1  UNL1        0.0370
     13  C         24.2870  -21.5170  -10.5090 C.2     1  UNL1        0.0290
     14  C         25.6340  -21.5350  -10.8760 C.2     1  UNL1        0.0040
     15  C         26.0460  -22.2320  -12.0110 C.2     1  UNL1        0.0300
     16  C         25.1090  -22.9290  -12.7750 C.2     1  UNL1        0.0460
     17  C         23.7590  -22.8970  -12.4090 C.2     1  UNL1        0.0590
     18  N         25.4940  -23.6280  -13.9730 N.pl3   1  UNL1       -0.2810
     19  C         26.7050  -24.4680  -13.9320 C.3     1  UNL1        0.1690
     20  S         25.1290  -22.8840  -15.4620 S.O2    1  UNL1        0.2280
     21  C         26.5180  -21.7910  -15.6930 C.3     1  UNL1        0.1860
     22  O         23.9390  -22.0690  -15.3200 O.2     1  UNL1       -0.2060
     23  O         25.2040  -23.8990  -16.4950 O.2     1  UNL1       -0.2060
     24  S         16.9360  -24.0940   -7.5050 S.O2    1  UNL1        0.2630
     25  O         17.9190  -24.7810   -6.6970 O.2     1  UNL1       -0.2000
     26  O         15.7940  -24.8160   -8.0290 O.2     1  UNL1       -0.2000
     27  N         16.2970  -22.7940   -6.6360 N.pl3   1  UNL1       -0.2800
     28  H         15.2850  -22.8690   -6.5440 H       1  UNL1        0.1790
     29  C         17.0310  -22.2910   -5.5240 C.2     1  UNL1        0.0480
     30  C         18.1380  -21.4760   -5.7770 C.2     1  UNL1        0.0300
     31  C         18.9130  -20.9970   -4.7210 C.2     1  UNL1        0.0020
     32  C         18.5860  -21.3380   -3.4120 C.2     1  UNL1        0.0010
     33  C         17.4810  -22.1520   -3.1570 C.2     1  UNL1        0.0090
     34  C         16.6840  -22.6330   -4.2080 C.2     1  UNL1       -0.0350
     35  C         15.5180  -23.5280   -3.8930 C.3     1  UNL1        0.0500
@<TRIPOS>BOND
     1    23    20    2
     2    21    20    1
     3    20    22    2
     4    20    18    1
     5    18    19    1
     6    18    16    1
     7    16    17    1
     8    16    15    2
     9    17    12    2
    10    15    14    1
    11    11    10    1
    12    12    10    1
    13    12    13    1
    14     4     5    2
    15     4     3    1
    16    10     8   am
    17     5     6    1
    18    14    13    2
    19     8     3    1
    20     8     9    2
    21     3     2    2
    22     6     7    1
    23     6     1    2
    24     2     1    1
    25     1    24    1
    26    26    24    2
    27    24    25    2
    28    24    27    1
    29    27    28    1
    30    27    29    1
    31    30    29    2
    32    30    31    1
    33    29    34    1
    34    31    32    2
    35    34    35    1
    36    34    33    2
    37    32    33    1
