@<TRIPOS>MOLECULE
25384_out_ligand_01.pdbqt
 37 40 0 0 0
SMALL
GASTEIGER

@<TRIPOS>ATOM
      1  C         17.2330  -23.0680   -8.9350 C.2     1  UNL1        0.0860
      2  C         18.6050  -23.0060   -9.2430 C.2     1  UNL1        0.0420
      3  C         19.0550  -22.1890  -10.2810 C.2     1  UNL1        0.0330
      4  C         18.1410  -21.4510  -11.0360 C.2     1  UNL1        0.0170
      5  C         16.7800  -21.5100  -10.7280 C.2     1  UNL1        0.0090
      6  C         16.3020  -22.3090   -9.6730 C.2     1  UNL1       -0.0390
      7  C         14.8270  -22.2760   -9.3890 C.3     1  UNL1        0.0500
      8  C         20.5120  -22.1320  -10.5660 C.2     1  UNL1        0.2560
      9  O         21.2880  -22.1510   -9.6200 O.2     1  UNL1       -0.2670
     10  N         20.8240  -22.0100  -11.9080 N.am    1  UNL1       -0.3230
     11  H         20.0490  -21.8600  -12.5420 H       1  UNL1        0.1690
     12  C         22.1080  -21.9430  -12.4850 C.2     1  UNL1        0.0350
     13  C         23.1090  -22.7370  -11.9060 C.2     1  UNL1        0.0310
     14  C         24.4040  -22.7430  -12.4280 C.2     1  UNL1        0.0270
     15  C         24.7020  -21.9470  -13.5350 C.2     1  UNL1        0.0740
     16  C         23.7260  -21.1270  -14.1020 C.2     1  UNL1        0.0270
     17  C         22.4300  -21.1330  -13.5770 C.2     1  UNL1        0.0310
     18  S         26.3510  -21.9760  -14.1960 S.O2    1  UNL1        0.2430
     19  O         26.8000  -20.6130  -14.3840 O.2     1  UNL1       -0.2060
     20  O         27.1210  -22.9160  -13.4080 O.2     1  UNL1       -0.2060
     21  N         26.1040  -22.6560  -15.7300 N.3     1  UNL1       -0.2060
     22  C         25.1450  -23.7900  -15.8280 C.3     1  UNL1        0.1070
     23  C         24.2440  -23.4640  -17.0100 C.3     1  UNL1        0.0170
     24  C         25.0870  -22.5290  -17.8560 C.3     1  UNL1        0.0170
     25  C         25.7830  -21.6850  -16.8060 C.3     1  UNL1        0.1070
     26  S         16.7760  -24.1080   -7.5520 S.O2    1  UNL1        0.2630
     27  O         17.9530  -24.7420   -7.0030 O.2     1  UNL1       -0.2000
     28  O         15.6540  -24.9180   -7.9820 O.2     1  UNL1       -0.2000
     29  N         16.1390  -23.0020   -6.4640 N.pl3   1  UNL1       -0.2800
     30  H         15.1480  -23.1260   -6.2760 H       1  UNL1        0.1790
     31  C         16.9490  -22.3970   -5.4690 C.2     1  UNL1        0.0480
     32  C         18.0200  -21.5830   -5.8490 C.2     1  UNL1        0.0300
     33  C         18.8610  -21.0290   -4.8830 C.2     1  UNL1        0.0020
     34  C         18.6440  -21.3050   -3.5380 C.2     1  UNL1        0.0010
     35  C         17.5980  -22.1460   -3.1580 C.2     1  UNL1        0.0090
     36  C         16.7500  -22.7160   -4.1180 C.2     1  UNL1       -0.0350
     37  C         15.6380  -23.6250   -3.6770 C.3     1  UNL1        0.0500
@<TRIPOS>BOND
     1    24    23    1
     2    24    25    1
     3    23    22    1
     4    25    21    1
     5    22    21    1
     6    21    18    1
     7    19    18    2
     8    18    15    1
     9    18    20    2
    10    16    17    1
    11    16    15    2
    12    17    12    2
    13    15    14    1
    14    11    10    1
    15    12    10    1
    16    12    13    1
    17    14    13    2
    18    10     8   am
    19     4     5    2
    20     4     3    1
    21     5     6    1
    22     8     3    1
    23     8     9    2
    24     3     2    2
    25     6     7    1
    26     6     1    2
    27     2     1    1
    28     1    26    1
    29    28    26    2
    30    26    27    2
    31    26    29    1
    32    29    30    1
    33    29    31    1
    34    32    31    2
    35    32    33    1
    36    31    36    1
    37    33    34    2
    38    36    37    1
    39    36    35    2
    40    34    35    1
