@<TRIPOS>MOLECULE
25398_out_ligand_01.pdbqt
 33 36 0 0 0
SMALL
GASTEIGER

@<TRIPOS>ATOM
      1  C         17.1330  -22.2350  -10.1970 C.2     1  UNL1        0.1730
      2  N         16.4600  -21.2760  -10.7920 N.2     1  UNL1       -0.2350
      3  C         17.3910  -20.5150  -11.4300 C.2     1  UNL1        0.1370
      4  C         18.6490  -21.0220  -11.2290 C.2     1  UNL1        0.1180
      5  N         18.5080  -22.1150  -10.3880 N.pl3   1  UNL1       -0.3000
      6  C         19.6020  -22.8860   -9.8830 C.2     1  UNL1        0.0420
      7  C         19.3490  -23.9740   -9.0270 C.2     1  UNL1        0.0300
      8  C         20.4010  -24.7390   -8.5120 C.2     1  UNL1        0.0030
      9  C         21.7180  -24.4410   -8.8550 C.2     1  UNL1        0.0170
     10  C         21.9790  -23.3810   -9.7280 C.2     1  UNL1        0.0340
     11  C         20.9270  -22.6040  -10.2370 C.2     1  UNL1        0.0470
     12  C         23.3710  -23.0280  -10.1200 C.2     1  UNL1        0.2560
     13  O         24.2860  -23.5110   -9.4650 O.2     1  UNL1       -0.2670
     14  N         23.4670  -22.1550  -11.1860 N.am    1  UNL1       -0.3230
     15  H         22.6030  -21.7640  -11.5400 H       1  UNL1        0.1690
     16  C         24.6460  -21.6570  -11.7800 C.2     1  UNL1        0.0350
     17  C         25.6160  -20.9250  -11.0930 C.2     1  UNL1        0.0290
     18  C         26.7580  -20.4640  -11.7560 C.2     1  UNL1        0.0020
     19  C         26.9420  -20.7360  -13.1100 C.2     1  UNL1        0.0000
     20  C         25.9840  -21.4700  -13.8030 C.2     1  UNL1        0.0020
     21  C         24.8420  -21.9290  -13.1410 C.2     1  UNL1        0.0290
     22  S         16.3080  -23.5560   -9.4210 S.3     1  UNL1       -0.0840
     23  C         15.9440  -22.8250   -7.8040 C.3     1  UNL1        0.1660
     24  C         16.6420  -23.5850   -6.6970 C.2     1  UNL1        0.1690
     25  O         16.7220  -24.8100   -6.6520 O.2     1  UNL1       -0.2910
     26  C         17.2730  -22.7880   -5.6190 C.2     1  UNL1        0.0170
     27  C         16.8320  -22.8400   -4.2850 C.2     1  UNL1       -0.0480
     28  C         17.4530  -21.9990   -3.3510 C.2     1  UNL1        0.0080
     29  C         15.7210  -23.7410   -3.8280 C.3     1  UNL1        0.0490
     30  C         18.5090  -21.1610   -3.7270 C.2     1  UNL1        0.0070
     31  C         18.9750  -21.1520   -5.0450 C.2     1  UNL1       -0.0610
     32  C         20.0870  -20.2350   -5.4580 C.3     1  UNL1        0.0480
     33  C         18.3460  -21.9670   -5.9910 C.2     1  UNL1        0.0220
@<TRIPOS>BOND
     1    20    21    1
     2    20    19    2
     3    21    16    2
     4    19    18    1
     5    16    14    1
     6    16    17    1
     7    18    17    2
     8    15    14    1
     9     3     4    2
    10     3     2    1
    11     4     5    1
    12    14    12   am
    13     2     1    2
    14     5     1    1
    15     5     6    1
    16    11     6    2
    17    11    10    1
    18     1    22    1
    19    12    10    1
    20    12    13    2
    21     6     7    1
    22    10     9    2
    23    22    23    1
    24     7     8    2
    25     9     8    1
    26    23    24    1
    27    24    25    2
    28    24    26    1
    29    33    26    2
    30    33    31    1
    31    26    27    1
    32    32    31    1
    33    31    30    2
    34    27    29    1
    35    27    28    2
    36    30    28    1
