@<TRIPOS>MOLECULE
25392_out_ligand_01.pdbqt
 30 32 0 0 0
SMALL
GASTEIGER

@<TRIPOS>ATOM
      1  C         18.4330  -22.4840   -9.9230 C.2     1  UNL1        0.0860
      2  C         19.7770  -22.8910   -9.8690 C.2     1  UNL1        0.0420
      3  C         20.7180  -22.3430  -10.7430 C.2     1  UNL1        0.0330
      4  C         20.3150  -21.3960  -11.6870 C.2     1  UNL1        0.0170
      5  C         18.9800  -20.9880  -11.7390 C.2     1  UNL1        0.0090
      6  C         18.0170  -21.5180  -10.8610 C.2     1  UNL1       -0.0390
      7  C         16.6030  -21.0220  -10.9840 C.3     1  UNL1        0.0500
      8  S         17.3380  -23.2470   -8.7330 S.O2    1  UNL1        0.2630
      9  O         16.1290  -23.6020   -9.4500 O.2     1  UNL1       -0.2000
     10  O         18.0410  -24.2450   -7.9600 O.2     1  UNL1       -0.2000
     11  N         16.9180  -21.9500   -7.7370 N.pl3   1  UNL1       -0.2800
     12  H         16.2080  -21.3610   -8.1710 H       1  UNL1        0.1790
     13  C         16.8360  -22.1680   -6.3330 C.2     1  UNL1        0.0480
     14  C         15.6190  -22.6020   -5.8020 C.2     1  UNL1        0.0300
     15  C         15.4780  -22.7850   -4.4270 C.2     1  UNL1        0.0020
     16  C         16.5520  -22.5300   -3.5810 C.2     1  UNL1        0.0010
     17  C         17.7700  -22.0970   -4.1090 C.2     1  UNL1        0.0090
     18  C         17.9320  -21.9190   -5.4930 C.2     1  UNL1       -0.0350
     19  C         19.2500  -21.4250   -6.0170 C.3     1  UNL1        0.0500
     20  C         22.1270  -22.8180  -10.6620 C.2     1  UNL1        0.2560
     21  O         22.3950  -23.6900   -9.8440 O.2     1  UNL1       -0.2670
     22  N         23.0020  -22.1860  -11.5230 N.am    1  UNL1       -0.3220
     23  H         22.6490  -21.3980  -12.0560 H       1  UNL1        0.1690
     24  C         24.3830  -22.4370  -11.7010 C.2     1  UNL1        0.0520
     25  C         25.2020  -22.9500  -10.6910 C.2     1  UNL1        0.0310
     26  C         26.5630  -23.1820  -10.9240 C.2     1  UNL1        0.0020
     27  C         27.1210  -22.9050  -12.1700 C.2     1  UNL1        0.0020
     28  C         26.3210  -22.3970  -13.1890 C.2     1  UNL1        0.0210
     29  C         24.9610  -22.1660  -12.9560 C.2     1  UNL1        0.0370
     30 BR         23.9230  -21.4760  -14.3950 Br      1  UNL1       -0.0490
@<TRIPOS>BOND
     1    30    29    1
     2    28    29    1
     3    28    27    2
     4    29    24    2
     5    27    26    1
     6    23    22    1
     7     5     4    2
     8     5     6    1
     9    24    22    1
    10    24    25    1
    11     4     3    1
    12    22    20   am
    13     7     6    1
    14    26    25    2
    15     6     1    2
    16     3    20    1
    17     3     2    2
    18    20    21    2
    19     1     2    1
    20     1     8    1
    21     9     8    2
    22     8    10    2
    23     8    11    1
    24    12    11    1
    25    11    13    1
    26    13    14    2
    27    13    18    1
    28    19    18    1
    29    14    15    1
    30    18    17    2
    31    15    16    2
    32    17    16    1
