@<TRIPOS>MOLECULE
25395_out_ligand_01.pdbqt
 31 33 0 0 0
SMALL
GASTEIGER

@<TRIPOS>ATOM
      1  C         17.5550  -23.3570   -8.8950 C.2     1  UNL1        0.0970
      2  C         18.9480  -23.5500   -8.9430 C.2     1  UNL1        0.0430
      3  C         19.7110  -22.9570   -9.9570 C.2     1  UNL1        0.0340
      4  C         19.0850  -22.1550  -10.9160 C.2     1  UNL1        0.0190
      5  C         17.7010  -21.9670  -10.8650 C.2     1  UNL1        0.0260
      6  C         16.9280  -22.5680   -9.8600 C.2     1  UNL1        0.0570
      7 CL         15.2400  -22.2310   -9.9020 Cl      1  UNL1       -0.0830
      8  S         16.6490  -24.1770   -7.6050 S.O2    1  UNL1        0.2470
      9  O         15.6260  -24.9920   -8.2170 O.2     1  UNL1       -0.2050
     10  O         17.6270  -24.7600   -6.7080 O.2     1  UNL1       -0.2050
     11  N         15.9640  -22.8540   -6.7670 N.pl3   1  UNL1       -0.1810
     12  H         15.8090  -22.1090   -7.4470 H       1  UNL1        0.1460
     13  C         16.7930  -22.3620   -5.6950 C.2     1  UNL1        0.0290
     14  C         16.5020  -22.6770   -4.3610 C.2     1  UNL1       -0.0400
     15  C         17.3700  -22.2200   -3.3570 C.2     1  UNL1        0.0090
     16  C         15.3130  -23.5080   -3.9760 C.3     1  UNL1        0.0500
     17  C         18.4940  -21.4540   -3.6740 C.2     1  UNL1        0.0070
     18  C         18.7890  -21.1480   -5.0050 C.2     1  UNL1       -0.0600
     19  C         19.9890  -20.3140   -5.3420 C.3     1  UNL1        0.0480
     20  C         17.9270  -21.6010   -6.0110 C.2     1  UNL1        0.0310
     21  C         21.1850  -23.1690   -9.9560 C.2     1  UNL1        0.2560
     22  O         21.6500  -23.9340   -9.1220 O.2     1  UNL1       -0.2670
     23  N         21.8700  -22.4800  -10.9340 N.am    1  UNL1       -0.3220
     24  H         21.3280  -21.9690  -11.6220 H       1  UNL1        0.1690
     25  C         23.2670  -22.4580  -11.1670 C.2     1  UNL1        0.0520
     26  C         24.2020  -22.9400  -10.2460 C.2     1  UNL1        0.0310
     27  C         25.5710  -22.8890  -10.5290 C.2     1  UNL1        0.0020
     28  C         26.0250  -22.3550  -11.7330 C.2     1  UNL1        0.0020
     29  C         25.1080  -21.8670  -12.6600 C.2     1  UNL1        0.0210
     30  C         23.7390  -21.9160  -12.3770 C.2     1  UNL1        0.0370
     31 BR         22.5410  -21.2250  -13.6870 Br      1  UNL1       -0.0490
@<TRIPOS>BOND
     1    31    30    1
     2    29    30    1
     3    29    28    2
     4    30    25    2
     5    28    27    1
     6    24    23    1
     7    25    23    1
     8    25    26    1
     9    23    21   am
    10     4     5    2
    11     4     3    1
    12     5     6    1
    13    27    26    2
    14     3    21    1
    15     3     2    2
    16    21    22    2
    17     7     6    1
    18     6     1    2
    19     2     1    1
    20     1     8    1
    21     9     8    2
    22     8    11    1
    23     8    10    2
    24    12    11    1
    25    11    13    1
    26    20    13    2
    27    20    18    1
    28    13    14    1
    29    19    18    1
    30    18    17    2
    31    14    16    1
    32    14    15    2
    33    17    15    1
