@<TRIPOS>MOLECULE
25405_out_ligand_01.pdbqt
 31 34 0 0 0
SMALL
GASTEIGER

@<TRIPOS>ATOM
      1  C         20.6830  -22.5430   -7.6880 C.2     1  UNL1        0.0320
      2  C         20.6970  -23.6810   -8.5020 C.2     1  UNL1        0.0170
      3  C         21.7690  -23.9110   -9.3680 C.2     1  UNL1        0.0100
      4  C         22.8460  -23.0140   -9.4240 C.2     1  UNL1       -0.0300
      5  C         22.8350  -21.8860   -8.5930 C.2     1  UNL1        0.0100
      6  C         21.7640  -21.6520   -7.7240 C.2     1  UNL1        0.0170
      7  C         19.5150  -22.3370   -6.7810 C.2     1  UNL1        0.2560
      8  O         19.4130  -21.2600   -6.2030 O.2     1  UNL1       -0.2670
      9  N         18.6720  -23.4300   -6.6550 N.am    1  UNL1       -0.3220
     10  H         18.9880  -24.2840   -7.1070 H       1  UNL1        0.1690
     11  C         17.4730  -23.5270   -5.9050 C.2     1  UNL1        0.0500
     12  C         17.4710  -23.4710   -4.5040 C.2     1  UNL1        0.0300
     13  C         16.2820  -23.5670   -3.7730 C.2     1  UNL1        0.0020
     14  C         15.0680  -23.7190   -4.4300 C.2     1  UNL1        0.0010
     15  C         15.0460  -23.7710   -5.8200 C.2     1  UNL1        0.0180
     16  C         16.2370  -23.6720   -6.5740 C.2     1  UNL1        0.0740
     17  C         16.0970  -23.7420   -8.0730 C.3     1  UNL1        0.4190
     18  F         15.4280  -22.6720   -8.5880 F       1  UNL1       -0.1660
     19  F         17.2860  -23.7830   -8.7480 F       1  UNL1       -0.1660
     20  F         15.4070  -24.8420   -8.4830 F       1  UNL1       -0.1660
     21  C         24.0070  -23.2660  -10.3680 C.3     1  UNL1        0.3110
     22  N         24.7510  -22.0430  -10.7030 N.3     1  UNL1        0.0970
     23  C         26.1990  -22.2860  -10.8010 C.3     1  UNL1        0.2770
     24  C         26.6120  -23.2190  -11.9500 C.3     1  UNL1        0.0690
     25  C         25.8700  -22.9380  -13.2320 C.2     1  UNL1       -0.0490
     26  C         26.2810  -23.5440  -14.4270 C.2     1  UNL1        0.0070
     27  C         24.7270  -22.1180  -13.2220 C.2     1  UNL1       -0.0240
     28  C         25.5760  -23.3200  -15.6080 C.2     1  UNL1        0.0010
     29  C         24.4530  -22.4970  -15.6060 C.2     1  UNL1        0.0010
     30  C         24.0320  -21.8950  -14.4200 C.2     1  UNL1        0.0090
     31  C         24.2830  -21.4170  -11.9550 C.3     1  UNL1        0.3110
@<TRIPOS>BOND
     1    28    29    2
     2    28    26    1
     3    29    30    1
     4    26    25    2
     5    30    27    2
     6    25    27    1
     7    25    24    1
     8    27    31    1
     9    31    22    1
    10    24    23    1
    11    23    22    1
    12    22    21    1
    13    21     4    1
    14     4     3    2
    15     4     5    1
    16     3     2    1
    17    19    17    1
    18     5     6    2
    19    18    17    1
    20     2     1    2
    21    20    17    1
    22    17    16    1
    23     6     1    1
    24     1     7    1
    25    10     9    1
    26     7     9   am
    27     7     8    2
    28     9    11    1
    29    16    11    2
    30    16    15    1
    31    11    12    1
    32    15    14    2
    33    12    13    2
    34    14    13    1
