@<TRIPOS>MOLECULE
25407_out_ligand_01.pdbqt
 30 32 0 0 0
SMALL
GASTEIGER

@<TRIPOS>ATOM
      1  C         16.9960  -20.9890  -11.1200 C.3     1  UNL1        0.0500
      2  C         18.3820  -21.5450  -10.9400 C.2     1  UNL1       -0.0390
      3  C         19.4050  -21.0670  -11.7770 C.2     1  UNL1        0.0090
      4  C         20.7130  -21.5490  -11.6690 C.2     1  UNL1        0.0170
      5  C         21.0160  -22.5370  -10.7280 C.2     1  UNL1        0.0330
      6  C         20.0150  -23.0270   -9.8870 C.2     1  UNL1        0.0420
      7  C         18.7030  -22.5390   -9.9930 C.2     1  UNL1        0.0810
      8  S         17.4700  -23.2330   -8.8950 S.O2    1  UNL1        0.2460
      9  O         18.1460  -24.1400   -7.9920 O.2     1  UNL1       -0.2060
     10  O         16.3540  -23.6690   -9.7030 O.2     1  UNL1       -0.2060
     11  N         17.0540  -21.8450   -7.9950 N.pl3   1  UNL1       -0.1810
     12  H         17.7670  -21.1320   -8.1460 H       1  UNL1        0.1460
     13  C         16.7990  -22.0830   -6.5990 C.2     1  UNL1        0.0290
     14  C         15.5290  -22.5390   -6.2400 C.2     1  UNL1        0.0250
     15  C         15.2230  -22.7920   -4.9070 C.2     1  UNL1        0.0020
     16  C         16.1890  -22.5850   -3.9270 C.2     1  UNL1        0.0070
     17  C         17.4740  -22.1270   -4.2640 C.2     1  UNL1       -0.0540
     18  C         18.4700  -21.9230   -3.1530 C.3     1  UNL1        0.0490
     19  C         17.7990  -21.8870   -5.6210 C.2     1  UNL1       -0.0340
     20  C         19.1680  -21.3930   -6.0150 C.3     1  UNL1        0.0500
     21  C         22.3980  -23.0560  -10.5600 C.2     1  UNL1        0.2520
     22  O         22.6970  -23.6610   -9.5370 O.2     1  UNL1       -0.2680
     23  N         23.2670  -22.8240  -11.6040 N.am    1  UNL1       -0.3520
     24  H         22.9390  -22.3450  -12.4320 H       1  UNL1        0.1630
     25  C         24.6770  -23.1970  -11.5300 C.3     1  UNL1        0.0840
     26  C         25.5150  -22.0340  -10.9900 C.3     1  UNL1        0.0250
     27  C         25.5170  -20.8220  -11.9270 C.3     1  UNL1        0.0020
     28  C         25.4100  -21.1880  -13.4080 C.3     1  UNL1        0.0000
     29  C         25.9390  -22.5850  -13.6920 C.3     1  UNL1        0.0020
     30  C         25.1950  -23.6670  -12.8990 C.3     1  UNL1        0.0250
@<TRIPOS>BOND
     1    29    28    1
     2    29    30    1
     3    28    27    1
     4    30    25    1
     5    24    23    1
     6    27    26    1
     7     3     4    1
     8     3     2    2
     9     4     5    2
    10    23    25    1
    11    23    21   am
    12    25    26    1
    13     1     2    1
    14     2     7    1
    15     5    21    1
    16     5     6    1
    17    21    22    2
    18     7     6    2
    19     7     8    1
    20    10     8    2
    21     8    11    1
    22     8     9    2
    23    12    11    1
    24    11    13    1
    25    13    14    2
    26    13    19    1
    27    14    15    1
    28    20    19    1
    29    19    17    2
    30    15    16    2
    31    17    16    1
    32    17    18    1
