@<TRIPOS>MOLECULE
25406_out_ligand_01.pdbqt
 31 33 0 0 0
SMALL
GASTEIGER

@<TRIPOS>ATOM
      1  C         17.5280  -23.3140   -8.9160 C.2     1  UNL1        0.1020
      2  C         18.9260  -23.4530   -9.0240 C.2     1  UNL1        0.0440
      3  C         19.6330  -22.7970  -10.0360 C.2     1  UNL1        0.0340
      4  C         18.9450  -21.9990  -10.9510 C.2     1  UNL1        0.0190
      5  C         17.5590  -21.8510  -10.8350 C.2     1  UNL1        0.0260
      6  C         16.8410  -22.5020   -9.8200 C.2     1  UNL1        0.0570
      7 CL         15.1380  -22.2370   -9.8340 Cl      1  UNL1       -0.0830
      8  S         16.7590  -24.2120   -7.5870 S.O2    1  UNL1        0.2640
      9  O         15.5960  -24.8680   -8.1540 O.2     1  UNL1       -0.2000
     10  O         17.7320  -24.9810   -6.8480 O.2     1  UNL1       -0.2000
     11  N         16.1510  -22.9820   -6.6020 N.pl3   1  UNL1       -0.2810
     12  H         15.5220  -22.3570   -7.1030 H       1  UNL1        0.1790
     13  C         16.9750  -22.4280   -5.5850 C.2     1  UNL1        0.0430
     14  C         16.6480  -22.6670   -4.2500 C.2     1  UNL1        0.0300
     15  C         17.4090  -22.0900   -3.2340 C.2     1  UNL1        0.0030
     16  C         18.5000  -21.2800   -3.5510 C.2     1  UNL1        0.0070
     17  C         18.8480  -21.0520   -4.8880 C.2     1  UNL1       -0.0600
     18  C         19.9990  -20.1540   -5.2350 C.3     1  UNL1        0.0480
     19  C         18.0720  -21.6260   -5.9030 C.2     1  UNL1        0.0370
     20  C         21.0990  -23.0230  -10.1400 C.2     1  UNL1        0.2560
     21  O         21.5750  -23.9300   -9.4700 O.2     1  UNL1       -0.2670
     22  N         21.7600  -22.1460  -10.9770 N.am    1  UNL1       -0.3220
     23  H         21.2150  -21.3770  -11.3380 H       1  UNL1        0.1690
     24  C         23.1370  -22.1370  -11.3180 C.2     1  UNL1        0.0410
     25  C         24.1240  -22.5070  -10.3970 C.2     1  UNL1        0.0300
     26  C         25.4720  -22.5010  -10.7510 C.2     1  UNL1        0.0030
     27  C         25.8540  -22.1260  -12.0330 C.2     1  UNL1        0.0070
     28  C         24.8950  -21.7520  -12.9850 C.2     1  UNL1       -0.0540
     29  C         25.3760  -21.3550  -14.3550 C.3     1  UNL1        0.0490
     30  C         23.5210  -21.7560  -12.6330 C.2     1  UNL1       -0.0290
     31  C         22.4730  -21.3560  -13.6450 C.3     1  UNL1        0.0510
@<TRIPOS>BOND
     1    29    28    1
     2    31    30    1
     3    28    30    1
     4    28    27    2
     5    30    24    2
     6    27    26    1
     7    23    22    1
     8    24    22    1
     9    24    25    1
    10    22    20   am
    11     4     5    2
    12     4     3    1
    13     5     6    1
    14    26    25    2
    15    20     3    1
    16    20    21    2
    17     3     2    2
    18     7     6    1
    19     6     1    2
    20     2     1    1
    21     1     8    1
    22     9     8    2
    23     8    10    2
    24     8    11    1
    25    12    11    1
    26    11    13    1
    27    19    13    2
    28    19    17    1
    29    13    14    1
    30    18    17    1
    31    17    16    2
    32    14    15    2
    33    16    15    1
