@<TRIPOS>MOLECULE
25412_out_ligand_01.pdbqt
 33 36 0 0 0
SMALL
GASTEIGER

@<TRIPOS>ATOM
      1  C         22.9440  -22.5760   -9.4230 C.2     1  UNL1        0.0320
      2  C         22.4780  -21.8420   -8.3260 C.2     1  UNL1        0.0170
      3  C         21.2540  -22.1620   -7.7360 C.2     1  UNL1        0.0100
      4  C         20.4820  -23.2250   -8.2270 C.2     1  UNL1       -0.0300
      5  C         20.9630  -23.9690   -9.3150 C.2     1  UNL1        0.0100
      6  C         22.1890  -23.6510   -9.9070 C.2     1  UNL1        0.0170
      7  C         24.2540  -22.1970  -10.0230 C.2     1  UNL1        0.2510
      8  N         25.1310  -23.2320  -10.2850 N.am    1  UNL1       -0.3570
      9  H         24.7810  -24.1800  -10.2640 H       1  UNL1        0.1620
     10  O         24.4990  -21.0250  -10.2890 O.2     1  UNL1       -0.2680
     11  C         26.3840  -22.9910  -10.9760 C.3     1  UNL1        0.1270
     12  C         26.6520  -24.0170  -12.0800 C.3     1  UNL1        0.0580
     13  C         26.0030  -23.6140  -13.3820 C.2     1  UNL1       -0.0540
     14  C         26.2920  -24.2970  -14.5660 C.2     1  UNL1        0.0100
     15  C         25.6710  -23.9320  -15.7630 C.2     1  UNL1        0.0400
     16  C         24.7480  -22.8800  -15.7930 C.2     1  UNL1        0.1010
     17  C         24.4450  -22.1890  -14.6030 C.2     1  UNL1        0.1020
     18  C         25.0770  -22.5600  -13.4090 C.2     1  UNL1        0.0460
     19  O         24.0890  -22.4600  -16.9210 O.2     1  UNL1       -0.3530
     20  C         24.0820  -23.3320  -18.0430 C.3     1  UNL1        0.2100
     21  O         23.5260  -21.1740  -14.7120 O.2     1  UNL1       -0.3530
     22  C         22.5390  -21.0700  -13.6950 C.3     1  UNL1        0.2100
     23  C         19.1530  -23.5670   -7.5860 C.3     1  UNL1        0.3110
     24  N         18.1430  -22.5120   -7.7590 N.3     1  UNL1        0.0970
     25  C         16.8580  -23.0500   -8.2340 C.3     1  UNL1        0.2770
     26  C         16.1560  -23.9900   -7.2420 C.3     1  UNL1        0.0690
     27  C         16.2200  -23.4970   -5.8170 C.2     1  UNL1       -0.0490
     28  C         15.4500  -24.1190   -4.8260 C.2     1  UNL1        0.0070
     29  C         17.0980  -22.4540   -5.4680 C.2     1  UNL1       -0.0240
     30  C         15.5340  -23.6960   -3.5000 C.2     1  UNL1        0.0010
     31  C         16.3890  -22.6530   -3.1530 C.2     1  UNL1        0.0010
     32  C         17.1640  -22.0310   -4.1320 C.2     1  UNL1        0.0090
     33  C         17.9110  -21.7370   -6.5250 C.3     1  UNL1        0.3110
@<TRIPOS>BOND
     1    20    19    1
     2    19    16    1
     3    16    15    2
     4    16    17    1
     5    15    14    1
     6    21    17    1
     7    21    22    1
     8    17    18    2
     9    14    13    2
    10    18    13    1
    11    13    12    1
    12    12    11    1
    13    11     8    1
    14    10     7    2
    15     8     9    1
    16     8     7   am
    17     7     1    1
    18     6     1    2
    19     6     5    1
    20     1     2    1
    21     5     4    2
    22     2     3    2
    23    25    24    1
    24    25    26    1
    25     4     3    1
    26     4    23    1
    27    24    23    1
    28    24    33    1
    29    26    27    1
    30    33    29    1
    31    27    29    2
    32    27    28    1
    33    29    32    1
    34    28    30    2
    35    32    31    2
    36    30    31    1
