@<TRIPOS>MOLECULE
25435_out_ligand_01.pdbqt
 30 34 0 0 0
SMALL
GASTEIGER

@<TRIPOS>ATOM
      1  C         21.5610  -22.0380  -11.6530 C.2     1  UNL1        0.0320
      2  C         20.4890  -21.2590  -12.1050 C.2     1  UNL1        0.0170
      3  C         19.2160  -21.4250  -11.5520 C.2     1  UNL1        0.0100
      4  C         18.9950  -22.3800  -10.5510 C.2     1  UNL1       -0.0300
      5  C         20.0730  -23.1640  -10.1100 C.2     1  UNL1        0.0100
      6  C         21.3460  -23.0020  -10.6620 C.2     1  UNL1        0.0170
      7  C         22.9010  -21.8290  -12.2720 C.2     1  UNL1        0.2560
      8  O         23.8840  -21.8350  -11.5420 O.2     1  UNL1       -0.2670
      9  N         22.8890  -21.6860  -13.6490 N.am    1  UNL1       -0.3230
     10  H         22.0060  -21.8410  -14.1170 H       1  UNL1        0.1690
     11  C         23.9920  -21.4390  -14.4940 C.2     1  UNL1        0.0370
     12  C         24.7940  -20.2840  -14.4170 C.2     1  UNL1        0.0320
     13  C         25.8740  -20.0930  -15.2910 C.2     1  UNL1        0.0420
     14  C         26.1240  -21.0700  -16.2280 C.2     1  UNL1        0.1050
     15  C         25.3460  -22.1980  -16.3120 C.2     1  UNL1        0.1070
     16  O         27.1210  -21.0540  -17.1510 O.2     1  UNL1       -0.3230
     17  C         24.2770  -22.4110  -15.4650 C.2     1  UNL1        0.0690
     18  O         25.7540  -23.0380  -17.3010 O.2     1  UNL1       -0.3230
     19  C         26.8810  -22.3060  -17.8270 C.3     1  UNL1        0.3520
     20  C         17.6160  -22.5560   -9.9450 C.3     1  UNL1        0.3110
     21  N         17.6400  -22.7860   -8.4920 N.3     1  UNL1        0.0970
     22  C         18.6690  -21.9470   -7.8590 C.3     1  UNL1        0.2770
     23  C         18.8410  -22.3190   -6.3800 C.3     1  UNL1        0.0690
     24  C         17.5260  -22.3850   -5.6470 C.2     1  UNL1       -0.0490
     25  C         17.4990  -22.3780   -4.2460 C.2     1  UNL1        0.0070
     26  C         16.3280  -22.5160   -6.3700 C.2     1  UNL1       -0.0240
     27  C         16.2860  -22.4750   -3.5660 C.2     1  UNL1        0.0010
     28  C         15.0940  -22.5860   -4.2780 C.2     1  UNL1        0.0010
     29  C         15.1140  -22.6040   -5.6730 C.2     1  UNL1        0.0090
     30  C         16.3230  -22.4930   -7.8860 C.3     1  UNL1        0.3110
@<TRIPOS>BOND
     1    19    18    1
     2    19    16    1
     3    18    15    1
     4    16    14    1
     5    15    14    2
     6    15    17    1
     7    14    13    1
     8    17    11    2
     9    13    12    2
    10    11    12    1
    11    11     9    1
    12    10     9    1
    13     9     7   am
    14     7     1    1
    15     7     8    2
    16     2     1    2
    17     2     3    1
    18     1     6    1
    19     3     4    2
    20     6     5    2
    21     4     5    1
    22     4    20    1
    23    20    21    1
    24    21    30    1
    25    21    22    1
    26    30    26    1
    27    22    23    1
    28    23    24    1
    29    26    29    1
    30    26    24    2
    31    29    28    2
    32    24    25    1
    33    28    27    1
    34    25    27    2
