@<TRIPOS>MOLECULE
25434_out_ligand_01.pdbqt
 36 40 0 0 0
SMALL
GASTEIGER

@<TRIPOS>ATOM
      1  C         20.2060  -22.3250  -10.8630 C.2     1  UNL1        0.0420
      2  C         20.1620  -23.3360   -9.9030 C.2     1  UNL1        0.0310
      3  C         18.9620  -23.6270   -9.2520 C.2     1  UNL1        0.0270
      4  C         17.8100  -22.9050   -9.5780 C.2     1  UNL1        0.0800
      5  C         17.8580  -21.8700  -10.5190 C.2     1  UNL1        0.0270
      6  C         19.0620  -21.5850  -11.1650 C.2     1  UNL1        0.0310
      7  N         21.4420  -22.0130  -11.4900 N.pl3   1  UNL1       -0.2810
      8  H         21.4740  -21.1880  -12.0870 H       1  UNL1        0.1790
      9  S         22.8530  -22.1300  -10.5620 S.O2    1  UNL1        0.2630
     10  O         23.0160  -23.4930  -10.1050 O.2     1  UNL1       -0.2000
     11  O         22.7970  -21.0310   -9.6200 O.2     1  UNL1       -0.2000
     12  C         24.1230  -21.7570  -11.7430 C.2     1  UNL1        0.0800
     13  C         25.4150  -21.4760  -11.2980 C.2     1  UNL1        0.0260
     14  C         26.4120  -21.1840  -12.2300 C.2     1  UNL1        0.0140
     15  C         26.1280  -21.1770  -13.6050 C.2     1  UNL1       -0.0260
     16  C         27.1210  -20.8790  -14.5530 C.2     1  UNL1        0.0120
     17  C         24.8180  -21.4760  -14.0500 C.2     1  UNL1       -0.0250
     18  C         26.8270  -20.8750  -15.9170 C.2     1  UNL1        0.0010
     19  C         25.5380  -21.1690  -16.3530 C.2     1  UNL1        0.0010
     20  C         24.5390  -21.4690  -15.4260 C.2     1  UNL1        0.0120
     21  C         23.8220  -21.7750  -13.1090 C.2     1  UNL1        0.0370
     22  S         16.2770  -23.2720   -8.7510 S.O2    1  UNL1        0.2630
     23  O         15.5370  -24.1890   -9.5940 O.2     1  UNL1       -0.2000
     24  O         15.6960  -22.0210   -8.3150 O.2     1  UNL1       -0.2000
     25  N         16.7580  -24.1700   -7.4050 N.pl3   1  UNL1       -0.2800
     26  H         17.5750  -24.7480   -7.5850 H       1  UNL1        0.1790
     27  C         16.5930  -23.6130   -6.0990 C.2     1  UNL1        0.0530
     28  C         15.4930  -24.0290   -5.3440 C.2     1  UNL1        0.0310
     29  C         15.2600  -23.4830   -4.0870 C.2     1  UNL1        0.0030
     30  C         16.1230  -22.5140   -3.5820 C.2     1  UNL1        0.0120
     31  C         17.2320  -22.0770   -4.3230 C.2     1  UNL1       -0.0240
     32  C         18.0880  -21.0930   -3.8000 C.2     1  UNL1        0.0120
     33  C         17.4870  -22.6260   -5.6040 C.2     1  UNL1        0.0010
     34  C         19.1890  -20.6410   -4.5230 C.2     1  UNL1        0.0010
     35  C         19.4530  -21.1670   -5.7810 C.2     1  UNL1        0.0010
     36  C         18.6140  -22.1470   -6.3150 C.2     1  UNL1        0.0140
@<TRIPOS>BOND
     1    19    18    2
     2    19    20    1
     3    18    16    1
     4    20    17    2
     5    16    15    2
     6    17    15    1
     7    17    21    1
     8    15    14    1
     9    21    12    2
    10    14    13    2
    11     8     7    1
    12    12    13    1
    13    12     9    1
    14     7     1    1
    15     7     9    1
    16     6     1    2
    17     6     5    1
    18     1     2    1
    19     9    10    2
    20     9    11    2
    21     5     4    2
    22     2     3    2
    23    23    22    2
    24     4     3    1
    25     4    22    1
    26    22    24    2
    27    22    25    1
    28    26    25    1
    29    25    27    1
    30    36    35    2
    31    36    33    1
    32    27    33    2
    33    27    28    1
    34    35    34    1
    35    33    31    1
    36    28    29    2
    37    34    32    2
    38    31    32    1
    39    31    30    2
    40    29    30    1
