@<TRIPOS>MOLECULE
25430_out_ligand_01.pdbqt
 27 29 0 0 0
SMALL
GASTEIGER

@<TRIPOS>ATOM
      1  S         22.4530  -22.8680   -9.2320 S.O2    1  UNL1        0.2450
      2  O         22.8590  -21.4820   -9.1340 O.2     1  UNL1       -0.2060
      3  O         23.3390  -23.9590   -8.9010 O.2     1  UNL1       -0.2060
      4  C         20.9780  -23.0780   -8.2560 C.2     1  UNL1        0.0750
      5  C         20.5780  -22.0640   -7.3760 C.2     1  UNL1        0.0420
      6  C         19.4350  -22.3070   -6.6400 C.2     1  UNL1        0.0490
      7  C         18.7500  -21.4720   -5.6540 C.2     1  UNL1        0.2590
      8  C         18.7200  -23.4900   -6.7510 C.2     1  UNL1        0.0480
      9  N         17.6770  -22.1900   -5.2220 N.am    1  UNL1       -0.2890
     10  O         19.0910  -20.3570   -5.3210 O.2     1  UNL1       -0.2670
     11  C         17.5830  -23.4020   -5.8340 C.2     1  UNL1        0.2590
     12  H         17.0150  -21.8540   -4.5400 H       1  UNL1        0.1720
     13  O         16.7370  -24.2580   -5.6800 O.2     1  UNL1       -0.2670
     14  C         19.1040  -24.5030   -7.6080 C.2     1  UNL1        0.0200
     15  C         20.2570  -24.2900   -8.3700 C.2     1  UNL1        0.0260
     16  N         21.8120  -23.0710  -10.8010 N.pl3   1  UNL1       -0.1810
     17  H         21.5900  -24.0650  -10.8990 H       1  UNL1        0.1460
     18  C         20.6450  -22.2760  -11.0530 C.2     1  UNL1        0.0230
     19  C         20.7700  -21.1010  -11.7900 C.2     1  UNL1        0.0240
     20  C         19.6540  -20.2900  -12.0000 C.2     1  UNL1        0.0030
     21  C         18.4190  -20.6510  -11.4610 C.2     1  UNL1        0.0160
     22  C         18.2850  -21.8270  -10.7050 C.2     1  UNL1        0.0490
     23  C         19.4170  -22.6310  -10.4920 C.2     1  UNL1        0.0400
     24  C         16.9580  -22.1970  -10.0910 C.3     1  UNL1        0.4170
     25  F         16.8630  -21.8490   -8.7780 F       1  UNL1       -0.1660
     26  F         16.7150  -23.5340  -10.1430 F       1  UNL1       -0.1660
     27  F         15.9020  -21.5980  -10.7100 F       1  UNL1       -0.1660
@<TRIPOS>BOND
     1    20    19    1
     2    20    21    2
     3    19    18    2
     4    21    22    1
     5    18    16    1
     6    18    23    1
     7    17    16    1
     8    16     1    1
     9    27    24    1
    10    22    23    2
    11    22    24    1
    12    26    24    1
    13    24    25    1
    14     1     2    2
    15     1     3    2
    16     1     4    1
    17    15     4    2
    18    15    14    1
    19     4     5    1
    20    14     8    2
    21     5     6    2
    22     8     6    1
    23     8    11    1
    24     6     7    1
    25    11    13    2
    26    11     9   am
    27     7    10    2
    28     7     9   am
    29     9    12    1
