@<TRIPOS>MOLECULE
25449_out_ligand_01.pdbqt
 34 37 0 0 0
SMALL
GASTEIGER

@<TRIPOS>ATOM
      1  C         20.6310  -22.3630  -10.9300 C.2     1  UNL1        0.0340
      2  C         19.5150  -21.6100  -11.3230 C.2     1  UNL1        0.0310
      3  C         18.2550  -21.8570  -10.7720 C.2     1  UNL1        0.0270
      4  C         18.1130  -22.8600   -9.8120 C.2     1  UNL1        0.0800
      5  C         19.2040  -23.6530   -9.4490 C.2     1  UNL1        0.0270
      6  C         20.4620  -23.3940  -10.0030 C.2     1  UNL1        0.0310
      7  S         16.5300  -23.1340   -9.0490 S.O2    1  UNL1        0.2630
      8  O         15.7300  -23.9370   -9.9480 O.2     1  UNL1       -0.2000
      9  O         16.0550  -21.8550   -8.5660 O.2     1  UNL1       -0.2000
     10  N         16.9080  -24.0360   -7.6690 N.pl3   1  UNL1       -0.2800
     11  H         16.7840  -25.0360   -7.8100 H       1  UNL1        0.1790
     12  C         16.5890  -23.4950   -6.3840 C.2     1  UNL1        0.0530
     13  C         15.4520  -23.9880   -5.7350 C.2     1  UNL1        0.0310
     14  C         15.1330  -23.5540   -4.4530 C.2     1  UNL1        0.0030
     15  C         15.9570  -22.6330   -3.8100 C.2     1  UNL1        0.0120
     16  C         17.1080  -22.1300   -4.4360 C.2     1  UNL1       -0.0240
     17  C         17.9390  -21.2220   -3.7600 C.2     1  UNL1        0.0120
     18  C         17.4400  -22.5510   -5.7480 C.2     1  UNL1        0.0010
     19  C         19.0970  -20.7270   -4.3570 C.2     1  UNL1        0.0010
     20  C         19.4340  -21.1230   -5.6430 C.2     1  UNL1        0.0010
     21  C         18.6140  -22.0180   -6.3330 C.2     1  UNL1        0.0140
     22  N         21.8690  -22.0090  -11.4890 N.am    1  UNL1       -0.3250
     23  C         23.1400  -22.2750  -11.0010 C.2     1  UNL1        0.2550
     24  O         23.4190  -22.9540  -10.0160 O.2     1  UNL1       -0.2700
     25  H         21.8580  -21.4630  -12.3470 H       1  UNL1        0.1690
     26  C         24.2420  -21.5780  -11.8390 C.3     1  UNL1        0.2460
     27  O         25.4290  -21.4320  -11.0390 O.3     1  UNL1       -0.3770
     28  C         26.2740  -20.3940  -11.5260 C.3     1  UNL1        0.2030
     29  C         24.5510  -22.3720  -13.1050 C.2     1  UNL1       -0.0200
     30  C         25.0860  -23.6690  -13.0020 C.2     1  UNL1        0.0100
     31  C         25.3740  -24.4190  -14.1440 C.2     1  UNL1        0.0010
     32  C         25.1220  -23.8910  -15.4070 C.2     1  UNL1        0.0000
     33  C         24.5790  -22.6150  -15.5290 C.2     1  UNL1        0.0010
     34  C         24.2920  -21.8620  -14.3880 C.2     1  UNL1        0.0100
@<TRIPOS>BOND
     1    33    32    2
     2    33    34    1
     3    32    31    1
     4    34    29    2
     5    31    30    2
     6    29    30    1
     7    29    26    1
     8    25    22    1
     9    26    27    1
    10    26    23    1
    11    28    27    1
    12    22    23   am
    13    22     1    1
    14     2     1    2
    15     2     3    1
    16    23    24    2
    17     1     6    1
    18     3     4    2
    19     6     5    2
    20     8     7    2
    21     4     5    1
    22     4     7    1
    23     7     9    2
    24     7    10    1
    25    11    10    1
    26    10    12    1
    27    12    18    2
    28    12    13    1
    29    21    18    1
    30    21    20    2
    31    18    16    1
    32    13    14    2
    33    20    19    1
    34    14    15    1
    35    16    15    2
    36    16    17    1
    37    19    17    2
