@<TRIPOS>MOLECULE
25454_out_ligand_01.pdbqt
 29 31 0 0 0
SMALL
GASTEIGER

@<TRIPOS>ATOM
      1  N         21.2970  -23.2320   -8.5360 N.am    1  UNL1       -0.3550
      2  C         20.3020  -24.1930   -8.5250 C.2     1  UNL1        0.2450
      3  O         20.5360  -25.3520   -8.8730 O.2     1  UNL1       -0.2710
      4  H         21.0770  -22.2740   -8.2910 H       1  UNL1        0.1620
      5  C         22.6520  -23.5240   -8.9400 C.3     1  UNL1        0.1610
      6  C         22.9580  -22.9010  -10.2790 C.2     1  UNL1       -0.0400
      7  C         24.2780  -22.8710  -10.7550 C.2     1  UNL1        0.0100
      8  C         24.5720  -22.3040  -11.9960 C.2     1  UNL1        0.0250
      9  C         23.5370  -21.7790  -12.7730 C.2     1  UNL1        0.0740
     10  C         22.2170  -21.8040  -12.3170 C.2     1  UNL1        0.0250
     11  C         21.9300  -22.3710  -11.0740 C.2     1  UNL1        0.0100
     12  S         23.9210  -21.0550  -14.3440 S.O2    1  UNL1        0.2390
     13  O         25.0620  -20.1830  -14.1840 O.2     1  UNL1       -0.2060
     14  O         23.8650  -22.0890  -15.3500 O.2     1  UNL1       -0.2060
     15  N         22.6030  -20.0290  -14.5750 N.3     1  UNL1       -0.2250
     16  H         21.7050  -20.4990  -14.4690 H       1  UNL1        0.1360
     17  H         22.6950  -19.2320  -13.9420 H       1  UNL1        0.1360
     18  C         18.8900  -23.6940   -8.1520 C.3     1  UNL1        0.2130
     19  C         18.7690  -22.9360   -6.8330 C.2     1  UNL1       -0.0260
     20  C         17.9630  -23.4620   -5.8060 C.2     1  UNL1        0.0100
     21  C         17.8050  -22.7770   -4.5980 C.2     1  UNL1        0.0010
     22  C         18.4420  -21.5560   -4.4010 C.2     1  UNL1        0.0000
     23  C         19.2350  -21.0150   -5.4110 C.2     1  UNL1        0.0010
     24  C         19.3930  -21.6960   -6.6200 C.2     1  UNL1        0.0100
     25  N         18.2510  -22.9230   -9.2330 N.pl3   1  UNL1       -0.3490
     26  C         18.7790  -22.6810  -10.4800 C.2     1  UNL1        0.0920
     27  C         17.8470  -21.9780  -11.2110 C.2     1  UNL1        0.0190
     28  C         16.7160  -21.7880  -10.3830 C.2     1  UNL1        0.0190
     29  C         16.9890  -22.3800   -9.1700 C.2     1  UNL1        0.0920
@<TRIPOS>BOND
     1    14    12    2
     2    15    16    1
     3    15    12    1
     4    15    17    1
     5    12    13    2
     6    12     9    1
     7     9    10    2
     8     9     8    1
     9    10    11    1
    10     8     7    2
    11    27    26    2
    12    27    28    1
    13    11     6    2
    14     7     6    1
    15    26    25    1
    16    28    29    2
    17     6     5    1
    18    25    29    1
    19    25    18    1
    20     5     1    1
    21     3     2    2
    22     1     2   am
    23     1     4    1
    24     2    18    1
    25    18    19    1
    26    19    24    2
    27    19    20    1
    28    24    23    1
    29    20    21    2
    30    23    22    2
    31    21    22    1
