@<TRIPOS>MOLECULE
25463_out_ligand_01.pdbqt
 35 38 0 0 0
SMALL
GASTEIGER

@<TRIPOS>ATOM
      1  C         20.2420  -22.6660  -10.4120 C.2     1  UNL1        0.0380
      2  C         21.1310  -21.7490  -10.9950 C.2     1  UNL1        0.0710
      3  C         20.6210  -20.5750  -11.5180 C.2     1  UNL1        0.1360
      4  N         19.3020  -20.2860  -11.5850 N.2     1  UNL1       -0.2590
      5  C         18.4360  -21.1770  -11.0750 C.2     1  UNL1        0.0680
      6  C         17.0790  -20.8870  -11.1440 C.2     1  UNL1        0.0350
      7  C         16.1140  -21.7560  -10.6310 C.2     1  UNL1        0.0440
      8  C         16.5200  -22.9350  -10.0300 C.2     1  UNL1        0.1170
      9  F         15.6030  -23.7740   -9.5300 F       1  UNL1       -0.2060
     10  C         17.8670  -23.2560   -9.9400 C.2     1  UNL1        0.0580
     11  C         18.8500  -22.3890  -10.4710 C.2     1  UNL1        0.0180
     12  N         20.7020  -23.8930   -9.8450 N.pl3   1  UNL1       -0.2910
     13  H         19.9640  -24.5980   -9.9890 H       1  UNL1        0.1270
     14  C         20.9880  -23.7700   -8.4060 C.3     1  UNL1        0.0970
     15  C         20.3400  -22.5010   -7.8350 C.3     1  UNL1        0.0530
     16  C         19.1810  -22.7920   -6.9070 C.2     1  UNL1       -0.0570
     17  C         18.7430  -21.8210   -5.9960 C.2     1  UNL1        0.0090
     18  C         17.6550  -22.0710   -5.1600 C.2     1  UNL1        0.0250
     19  C         17.0030  -23.3050   -5.2320 C.2     1  UNL1        0.0740
     20  C         17.4140  -24.2780   -6.1450 C.2     1  UNL1        0.0250
     21  C         18.5040  -24.0200   -6.9790 C.2     1  UNL1        0.0090
     22  S         15.6230  -23.6190   -4.1660 S.O2    1  UNL1        0.2390
     23  O         16.0270  -24.5670   -3.1530 O.2     1  UNL1       -0.2060
     24  O         14.4430  -23.8000   -4.9770 O.2     1  UNL1       -0.2060
     25  N         15.4800  -22.1440   -3.3650 N.3     1  UNL1       -0.2250
     26  H         15.3580  -22.3240   -2.3670 H       1  UNL1        0.1360
     27  H         16.2600  -21.5140   -3.5470 H       1  UNL1        0.1360
     28  C         22.5890  -21.9720  -10.9970 C.2     1  UNL1        0.2570
     29  O         23.1110  -22.3360   -9.9430 O.2     1  UNL1       -0.2670
     30  N         23.3160  -21.7770  -12.1710 N.am    1  UNL1       -0.3480
     31  C         24.7700  -21.8950  -12.0750 C.3     1  UNL1        0.1260
     32  C         22.7560  -21.8130  -13.5220 C.3     1  UNL1        0.1260
     33  C         25.4830  -21.6810  -13.4100 C.3     1  UNL1        0.0200
     34  C         24.8610  -20.5260  -14.1870 C.3     1  UNL1        0.0030
     35  C         23.3510  -20.7030  -14.3840 C.3     1  UNL1        0.0200
@<TRIPOS>BOND
     1    35    34    1
     2    35    32    1
     3    34    33    1
     4    32    30    1
     5    33    31    1
     6    30    31    1
     7    30    28   am
     8     4     3    2
     9     4     5    1
    10     3     2    1
    11     6     5    2
    12     6     7    1
    13     5    11    1
    14    28     2    1
    15    28    29    2
    16     2     1    2
    17     7     8    2
    18    11     1    1
    19    11    10    2
    20     1    12    1
    21     8    10    1
    22     8     9    1
    23    13    12    1
    24    12    14    1
    25    14    15    1
    26    15    16    1
    27    21    16    2
    28    21    20    1
    29    16    17    1
    30    20    19    2
    31    17    18    2
    32    19    18    1
    33    19    22    1
    34    24    22    2
    35    22    25    1
    36    22    23    2
    37    27    25    1
    38    25    26    1
