@<TRIPOS>MOLECULE
2549_out_ligand_01.pdbqt
 33 37 0 0 0
SMALL
GASTEIGER

@<TRIPOS>ATOM
      1  C         22.9540  -21.7940  -12.7290 C.2     1  UNL1        0.0350
      2  C         23.7740  -22.2230  -11.6750 C.2     1  UNL1        0.0310
      3  C         23.2250  -22.5690  -10.4370 C.2     1  UNL1        0.0270
      4  C         21.8450  -22.4890  -10.2520 C.2     1  UNL1        0.0790
      5  C         21.0140  -22.0780  -11.2950 C.2     1  UNL1        0.0270
      6  C         21.5710  -21.7260  -12.5300 C.2     1  UNL1        0.0310
      7  S         21.1370  -22.8930   -8.6780 S.O2    1  UNL1        0.2590
      8  O         21.1750  -24.3360   -8.5660 O.2     1  UNL1       -0.2010
      9  O         21.7200  -22.0410   -7.6680 O.2     1  UNL1       -0.2010
     10  N         19.5210  -22.4900   -8.8590 N.3     1  UNL1       -0.3050
     11  H         19.2680  -22.3960   -9.8430 H       1  UNL1        0.1730
     12  C         18.4450  -22.8370   -7.9140 C.3     1  UNL1        0.0410
     13  C         18.5120  -22.0550   -6.5870 C.3     1  UNL1        0.0360
     14  C         17.3200  -22.4250   -5.6860 C.3     1  UNL1       -0.0120
     15  C         16.0080  -22.0730   -6.4020 C.3     1  UNL1        0.0090
     16  C         17.3530  -23.9350   -5.4040 C.3     1  UNL1        0.0090
     17  C         15.9100  -22.8480   -7.7230 C.3     1  UNL1       -0.0120
     18  C         15.9450  -24.3550   -7.4320 C.3     1  UNL1        0.0090
     19  C         17.1060  -22.4790   -8.6120 C.3     1  UNL1        0.0360
     20  C         17.2560  -24.7210   -6.7210 C.3     1  UNL1       -0.0120
     21  C         18.4460  -24.3500   -7.6250 C.3     1  UNL1        0.0360
     22  N         23.5930  -21.4470  -13.9360 N.am    1  UNL1       -0.3220
     23  C         24.5300  -22.1780  -14.6420 C.2     1  UNL1        0.2750
     24  O         24.9850  -23.2680  -14.3250 O.2     1  UNL1       -0.2660
     25  H         23.3740  -20.5300  -14.3060 H       1  UNL1        0.1690
     26  C         24.9260  -21.5120  -15.8510 C.ar    1  UNL1        0.1390
     27  N         24.7210  -21.9840  -17.1210 N.ar    1  UNL1       -0.2670
     28  N         25.1160  -21.1320  -18.0860 N.ar    1  UNL1       -0.1760
     29  C         24.1370  -23.2510  -17.4970 C.3     1  UNL1        0.1800
     30  C         25.7000  -20.1260  -17.4160 C.ar    1  UNL1        0.0700
     31  C         26.3150  -18.9940  -18.1510 C.3     1  UNL1        0.0740
     32  C         25.6060  -20.3290  -16.0260 C.ar    1  UNL1        0.0700
     33 BR         26.2490  -19.1650  -14.7100 Br      1  UNL1       -0.0460
@<TRIPOS>BOND
     1    31    30    1
     2    28    30   ar
     3    28    27   ar
     4    29    27    1
     5    30    32   ar
     6    27    26   ar
     7    32    26   ar
     8    32    33    1
     9    26    23    1
    10    23    24    2
    11    23    22   am
    12    25    22    1
    13    22     1    1
    14     1     6    2
    15     1     2    1
    16     6     5    1
    17     2     3    2
    18     5     4    2
    19     3     4    1
    20     4     7    1
    21    11    10    1
    22    10     7    1
    23    10    12    1
    24     7     8    2
    25     7     9    2
    26    19    12    1
    27    19    17    1
    28    12    21    1
    29    12    13    1
    30    17    18    1
    31    17    15    1
    32    21    20    1
    33    18    20    1
    34    20    16    1
    35    13    14    1
    36    15    14    1
    37    14    16    1
