@<TRIPOS>MOLECULE
25491_out_ligand_01.pdbqt
 33 36 0 0 0
SMALL
GASTEIGER

@<TRIPOS>ATOM
      1  N         19.1580  -23.1450   -9.0070 N.ar    1  UNL1       -0.2610
      2  C         18.4560  -22.2780   -9.8260 C.ar    1  UNL1        0.3300
      3  O         17.2830  -21.9500   -9.6530 O.2     1  UNL1       -0.2460
      4  N         19.1330  -21.7510  -10.8890 N.ar    1  UNL1       -0.3070
      5  C         20.4650  -22.0320  -11.1810 C.ar    1  UNL1        0.0530
      6  C         21.0700  -21.4570  -12.3000 C.2     1  UNL1        0.0470
      7  C         22.4130  -21.7430  -12.5800 C.2     1  UNL1        0.0340
      8  C         23.1460  -22.5770  -11.7230 C.2     1  UNL1        0.0180
      9  C         22.5310  -23.1490  -10.6070 C.2     1  UNL1        0.0200
     10  C         21.1860  -22.8750  -10.3420 C.ar    1  UNL1        0.0590
     11  C         20.5050  -23.4600   -9.1700 C.ar    1  UNL1        0.2640
     12  O         21.1490  -24.1730   -8.4050 O.2     1  UNL1       -0.2670
     13  H         18.5920  -21.1250  -11.4720 H       1  UNL1        0.1700
     14  C         23.1110  -21.1520  -13.7510 C.2     1  UNL1        0.2520
     15  O         22.5630  -20.2750  -14.4080 O.2     1  UNL1       -0.2680
     16  N         24.3780  -21.6310  -14.0130 N.am    1  UNL1       -0.3520
     17  H         24.7740  -22.3590  -13.4370 H       1  UNL1        0.1630
     18  C         25.1140  -21.2280  -15.2090 C.3     1  UNL1        0.0880
     19  C         26.6260  -21.3890  -15.0100 C.3     1  UNL1        0.0550
     20  C         27.1200  -22.7330  -15.5340 C.3     1  UNL1        0.2710
     21  N         26.8310  -22.9530  -16.9510 N.3     1  UNL1        0.0830
     22  C         25.7040  -22.1760  -17.4680 C.3     1  UNL1        0.2710
     23  H         27.6590  -22.7610  -17.5170 H       1  UNL1        0.3150
     24  C         24.6030  -22.0040  -16.4310 C.3     1  UNL1        0.0550
     25  C         18.4480  -23.7540   -7.8920 C.3     1  UNL1        0.1750
     26  C         18.4180  -22.8500   -6.6780 C.2     1  UNL1       -0.0370
     27  C         19.3600  -21.8260   -6.5250 C.2     1  UNL1        0.0090
     28  C         19.3140  -20.9870   -5.4120 C.2     1  UNL1        0.0030
     29  C         18.3240  -21.1560   -4.4410 C.2     1  UNL1        0.0370
     30  C         17.3730  -22.1660   -4.5810 C.2     1  UNL1        0.0680
     31  C         17.4230  -23.0040   -5.6990 C.2     1  UNL1        0.0450
     32  O         16.3520  -22.4350   -3.7110 O.2     1  UNL1       -0.3560
     33  C         15.0440  -22.5210   -4.2600 C.3     1  UNL1        0.2100
@<TRIPOS>BOND
     1    23    21    1
     2    22    21    1
     3    22    24    1
     4    21    20    1
     5    24    18    1
     6    20    19    1
     7    18    19    1
     8    18    16    1
     9    15    14    2
    10    16    14   am
    11    16    17    1
    12    14     7    1
    13     7     6    1
    14     7     8    2
    15     6     5    2
    16     8     9    1
    17    13     4    1
    18     5     4   ar
    19     5    10   ar
    20     4     2   ar
    21     9    10    2
    22    10    11   ar
    23     2     3    2
    24     2     1   ar
    25    11     1   ar
    26    11    12    2
    27     1    25    1
    28    25    26    1
    29    26    27    2
    30    26    31    1
    31    27    28    1
    32    31    30    2
    33    28    29    2
    34    30    29    1
    35    30    32    1
    36    33    32    1
