@<TRIPOS>MOLECULE
25521_out_ligand_01.pdbqt
 32 34 0 0 0
SMALL
GASTEIGER

@<TRIPOS>ATOM
      1  C         22.2040  -22.2790   -8.7160 C.2     1  UNL1        0.2220
      2  O         23.0550  -21.4390   -8.4300 O.2     1  UNL1       -0.2730
      3  N         21.0330  -22.4400   -8.0100 N.am    1  UNL1       -0.3570
      4  H         20.3390  -23.0970   -8.3390 H       1  UNL1        0.1620
      5  C         22.3620  -23.2250   -9.8950 C.3     1  UNL1        0.1460
      6  C         22.3220  -22.4950  -11.1970 C.ar    1  UNL1        0.0060
      7  C         21.1950  -21.9080  -11.8530 C.ar    1  UNL1        0.0960
      8  N         21.5410  -21.3870  -13.0380 N.ar    1  UNL1       -0.1730
      9  N         22.8590  -21.6030  -13.1290 N.ar    1  UNL1       -0.2820
     10  C         23.3820  -22.2690  -12.0590 C.ar    1  UNL1        0.0330
     11  H         23.3410  -21.2770  -13.9610 H       1  UNL1        0.1890
     12  C         24.8160  -22.6350  -11.9780 C.3     1  UNL1        0.0700
     13  C         19.8070  -21.8630  -11.4070 C.2     1  UNL1       -0.0050
     14  C         19.0360  -20.7150  -11.6470 C.2     1  UNL1        0.0170
     15  C         17.6950  -20.6750  -11.2610 C.2     1  UNL1        0.0430
     16  C         17.1310  -21.7770  -10.6310 C.2     1  UNL1        0.1160
     17  F         15.8420  -21.7410  -10.2670 F       1  UNL1       -0.2060
     18  C         17.8830  -22.9180  -10.3710 C.2     1  UNL1        0.0430
     19  C         19.2260  -22.9610  -10.7560 C.2     1  UNL1        0.0170
     20  C         20.6750  -21.5880   -6.9030 C.3     1  UNL1        0.1610
     21  C         19.3600  -22.0280   -6.3100 C.2     1  UNL1       -0.0400
     22  C         18.6880  -23.1410   -6.8410 C.2     1  UNL1        0.0100
     23  C         17.4910  -23.5830   -6.2780 C.2     1  UNL1        0.0250
     24  C         16.9610  -22.9050   -5.1760 C.2     1  UNL1        0.0740
     25  C         17.6260  -21.8090   -4.6210 C.2     1  UNL1        0.0250
     26  C         18.8240  -21.3730   -5.1900 C.2     1  UNL1        0.0100
     27  S         15.4440  -23.4770   -4.4600 S.O2    1  UNL1        0.2390
     28  O         14.5390  -23.8280   -5.5280 O.2     1  UNL1       -0.2060
     29  O         15.7570  -24.3800   -3.3760 O.2     1  UNL1       -0.2060
     30  N         14.8680  -22.0750   -3.7260 N.3     1  UNL1       -0.2250
     31  H         15.6640  -21.5180   -3.4090 H       1  UNL1        0.1360
     32  H         14.2400  -21.5370   -4.3220 H       1  UNL1        0.1360
@<TRIPOS>BOND
     1    11     9    1
     2     9     8   ar
     3     9    10   ar
     4     8     7   ar
     5    10    12    1
     6    10     6   ar
     7     7    13    1
     8     7     6   ar
     9    14    13    2
    10    14    15    1
    11    13    19    1
    12    15    16    2
    13     6     5    1
    14    19    18    2
    15    16    18    1
    16    16    17    1
    17     5     1    1
    18     1     2    2
    19     1     3   am
    20     4     3    1
    21     3    20    1
    22    20    21    1
    23    22    21    2
    24    22    23    1
    25    21    26    1
    26    23    24    2
    27    28    27    2
    28    26    25    2
    29    24    25    1
    30    24    27    1
    31    27    30    1
    32    27    29    2
    33    32    30    1
    34    30    31    1
