@<TRIPOS>MOLECULE
25539_out_ligand_01.pdbqt
 30 33 0 0 0
SMALL
GASTEIGER

@<TRIPOS>ATOM
      1  N         15.8000  -22.9900   -6.5980 N.pl3   1  UNL1       -0.1790
      2  H         15.5530  -22.2280   -7.2400 H       1  UNL1        0.1460
      3  C         16.7460  -22.4620   -5.6450 C.2     1  UNL1        0.0570
      4  C         17.9000  -21.8240   -6.0980 C.2     1  UNL1        0.0440
      5  C         18.7960  -21.2690   -5.1780 C.2     1  UNL1        0.0330
      6  C         18.5040  -21.3300   -3.8070 C.2     1  UNL1        0.0200
      7  C         17.3410  -21.9650   -3.3560 C.2     1  UNL1        0.0390
      8  C         16.4550  -22.5320   -4.2720 C.2     1  UNL1        0.0900
      9  C         20.0280  -20.6200   -5.7050 C.2     1  UNL1        0.2490
     10  N         20.3310  -19.3640   -5.2580 N.am    1  UNL1       -0.3660
     11  H         19.9410  -18.9850   -4.4080 H       1  UNL1        0.1590
     12  H         21.2390  -19.0150   -5.5400 H       1  UNL1        0.1590
     13  O         20.7780  -21.1950   -6.4830 O.2     1  UNL1       -0.2680
     14  O         15.3070  -23.2080   -3.9420 O.2     1  UNL1       -0.3540
     15  C         15.4780  -24.3810   -3.1530 C.3     1  UNL1        0.2100
     16  S         16.4530  -24.2250   -7.5880 S.O2    1  UNL1        0.2460
     17  O         15.3930  -24.9790   -8.2170 O.2     1  UNL1       -0.2060
     18  O         17.4760  -24.8840   -6.8000 O.2     1  UNL1       -0.2060
     19  C         17.2650  -23.2640   -8.8440 C.2     1  UNL1        0.0860
     20  C         16.4790  -22.3770   -9.6200 C.2     1  UNL1        0.0260
     21  C         17.0600  -21.6030  -10.6320 C.2     1  UNL1        0.0090
     22  C         18.4190  -21.7200  -10.8580 C.2     1  UNL1       -0.0460
     23  C         19.1670  -22.5810  -10.0900 C.2     1  UNL1       -0.0120
     24  C         19.2680  -21.0050  -11.8690 C.2     1  UNL1        0.0440
     25  C         20.4820  -22.5330  -10.4830 C.2     1  UNL1       -0.0460
     26  C         18.6640  -23.3840   -9.0600 C.2     1  UNL1       -0.0020
     27  C         21.4190  -23.3220   -9.8390 C.2     1  UNL1        0.0080
     28  C         20.6870  -21.5700  -11.6150 C.2     1  UNL1        0.0440
     29  C         20.9920  -24.1490   -8.7940 C.2     1  UNL1        0.0020
     30  C         19.6370  -24.1850   -8.4060 C.2     1  UNL1        0.0140
@<TRIPOS>BOND
     1    24    28    2
     2    24    22    1
     3    28    25    1
     4    22    21    2
     5    22    23    1
     6    21    20    1
     7    25    23    2
     8    25    27    1
     9    23    26    1
    10    27    29    2
    11    20    19    2
    12    26    19    1
    13    26    30    2
    14    19    16    1
    15    29    30    1
    16    17    16    2
    17    16    18    2
    18    16     1    1
    19     2     1    1
    20     1     3    1
    21    13     9    2
    22     4     3    2
    23     4     5    1
    24     9    10   am
    25     9     5    1
    26     3     8    1
    27    12    10    1
    28    10    11    1
    29     5     6    2
    30     8    14    1
    31     8     7    2
    32    14    15    1
    33     6     7    1
