@<TRIPOS>MOLECULE
25538_out_ligand_01.pdbqt
 30 33 0 0 0
SMALL
GASTEIGER

@<TRIPOS>ATOM
      1  N         18.6000  -21.9550   -8.3010 N.pl3   1  UNL1       -0.1810
      2  H         18.8150  -21.0600   -7.8520 H       1  UNL1        0.1460
      3  C         17.5680  -22.6380   -7.5670 C.2     1  UNL1        0.0300
      4  C         16.5510  -23.3250   -8.2530 C.2     1  UNL1       -0.0400
      5  C         15.5950  -24.0410   -7.5140 C.2     1  UNL1        0.0100
      6  C         16.4790  -23.3350   -9.7540 C.3     1  UNL1        0.0500
      7  C         15.6430  -24.0610   -6.1200 C.2     1  UNL1        0.0260
      8  C         16.6550  -23.3650   -5.4570 C.2     1  UNL1        0.0810
      9  C         17.6280  -22.6630   -6.1710 C.2     1  UNL1        0.0500
     10  S         16.7120  -23.4040   -3.6870 S.O2    1  UNL1        0.2580
     11  O         15.3590  -23.5840   -3.2100 O.2     1  UNL1       -0.2010
     12  O         17.7970  -24.2620   -3.2660 O.2     1  UNL1       -0.2010
     13  N         17.1340  -21.8210   -3.3170 N.3     1  UNL1       -0.3200
     14  C         18.5460  -21.4970   -3.1550 C.3     1  UNL1        0.1590
     15  H         16.4590  -21.3730   -2.6990 H       1  UNL1        0.1710
     16  S         20.0940  -22.8040   -8.3340 S.O2    1  UNL1        0.2460
     17  O         20.8890  -22.1670   -7.3050 O.2     1  UNL1       -0.2060
     18  O         19.8510  -24.2280   -8.3600 O.2     1  UNL1       -0.2060
     19  C         20.7660  -22.3620   -9.9170 C.2     1  UNL1        0.0860
     20  C         19.9100  -21.7750  -10.8810 C.2     1  UNL1        0.0260
     21  C         20.3990  -21.3820  -12.1340 C.2     1  UNL1        0.0090
     22  C         21.7390  -21.5820  -12.4120 C.2     1  UNL1       -0.0460
     23  C         22.5530  -22.1630  -11.4700 C.2     1  UNL1       -0.0120
     24  C         22.4940  -21.2570  -13.6670 C.2     1  UNL1        0.0440
     25  C         23.8290  -22.2780  -11.9640 C.2     1  UNL1       -0.0460
     26  C         22.1410  -22.5860  -10.2000 C.2     1  UNL1       -0.0020
     27  C         24.8180  -22.8500  -11.1840 C.2     1  UNL1        0.0080
     28  C         23.9340  -21.7300  -13.3580 C.2     1  UNL1        0.0440
     29  C         24.4790  -23.3040   -9.9050 C.2     1  UNL1        0.0020
     30  C         23.1640  -23.1800   -9.4140 C.2     1  UNL1        0.0140
@<TRIPOS>BOND
     1    24    28    2
     2    24    22    1
     3    28    25    1
     4    22    21    2
     5    22    23    1
     6    21    20    1
     7    25    23    2
     8    25    27    1
     9    23    26    1
    10    27    29    2
    11    20    19    2
    12    26    19    1
    13    26    30    2
    14    19    16    1
    15    29    30    1
    16     6     4    1
    17    18    16    2
    18    16     1    1
    19    16    17    2
    20     1     2    1
    21     1     3    1
    22     4     3    2
    23     4     5    1
    24     3     9    1
    25     5     7    2
    26     9     8    2
    27     7     8    1
    28     8    10    1
    29    10    13    1
    30    10    12    2
    31    10    11    2
    32    13    14    1
    33    13    15    1
