@<TRIPOS>MOLECULE
25559_out_ligand_01.pdbqt
 35 39 0 0 0
SMALL
GASTEIGER

@<TRIPOS>ATOM
      1  C         24.1910  -22.4360  -12.2380 C.2     1  UNL1        0.1140
      2  C         23.4090  -22.6250  -11.1520 C.2     1  UNL1        0.0950
      3  C         23.9430  -23.3010  -10.0160 C.1     1  UNL1        0.1030
      4  N         24.4100  -23.8300   -9.0950 N.1     1  UNL1       -0.1910
      5  C         22.0380  -22.2180  -11.1210 C.2     1  UNL1        0.1200
      6  N         21.1550  -22.5630  -10.1990 N.2     1  UNL1       -0.2390
      7  C         19.8960  -22.0790  -10.5180 C.2     1  UNL1        0.0810
      8  C         18.8000  -22.3830   -9.6500 C.2     1  UNL1        0.0700
      9  C         19.8370  -21.2840  -11.6390 C.2     1  UNL1        0.0840
     10  C         18.8880  -22.2100   -8.3180 C.2     1  UNL1        0.0350
     11  C         17.5560  -22.9360  -10.2430 C.2     1  UNL1        0.3010
     12  C         17.7770  -22.4940   -7.4110 C.2     1  UNL1        0.0100
     13  C         16.6660  -23.1260   -7.9750 C.2     1  UNL1        0.0900
     14  C         17.7710  -22.1820   -6.0200 C.2     1  UNL1       -0.0130
     15  C         15.5620  -23.4930   -7.2200 C.2     1  UNL1        0.0390
     16  O         16.5930  -23.4010   -9.3560 O.3     1  UNL1       -0.2740
     17  C         15.5490  -23.2020   -5.8580 C.2     1  UNL1        0.0150
     18  C         16.6330  -22.5500   -5.2500 C.2     1  UNL1       -0.0250
     19  C         16.5850  -22.2600   -3.8760 C.2     1  UNL1        0.0120
     20  C         17.6390  -21.6060   -3.2400 C.2     1  UNL1        0.0010
     21  C         18.7560  -21.2300   -3.9710 C.2     1  UNL1        0.0010
     22  C         18.8220  -21.5130   -5.3390 C.2     1  UNL1        0.0130
     23  O         17.3790  -23.0140  -11.4530 O.2     1  UNL1       -0.2590
     24  S         21.3950  -21.1230  -12.3190 S.3     1  UNL1       -0.0780
     25  N         23.8770  -21.8710  -13.4570 N.pl3   1  UNL1       -0.3620
     26  H         22.9760  -22.1140  -13.8750 H       1  UNL1        0.1650
     27  C         24.6310  -21.0490  -14.3250 C.2     1  UNL1        0.0650
     28  C         25.3700  -19.9400  -13.8970 C.2     1  UNL1        0.0320
     29  C         26.0800  -19.1610  -14.8150 C.2     1  UNL1        0.0020
     30  C         26.0570  -19.4830  -16.1710 C.2     1  UNL1        0.0030
     31  C         25.3170  -20.5790  -16.6210 C.2     1  UNL1        0.0390
     32  C         24.6010  -21.3560  -15.7070 C.2     1  UNL1        0.0950
     33  O         23.8600  -22.4710  -16.0310 O.2     1  UNL1       -0.3490
     34  C         24.3730  -23.3790  -17.0090 C.3     1  UNL1        0.1710
     35  C         23.3580  -23.6240  -18.1160 C.3     1  UNL1        0.0340
@<TRIPOS>BOND
     1    35    34    1
     2    34    33    1
     3    31    30    2
     4    31    32    1
     5    30    29    1
     6    33    32    1
     7    32    27    2
     8    29    28    2
     9    27    28    1
    10    27    25    1
    11    26    25    1
    12    25     1    1
    13    24     9    1
    14    24     5    1
    15     1     2    2
    16     9     7    2
    17    23    11    2
    18     2     5    1
    19     2     3    1
    20     5     6    2
    21     7     6    1
    22     7     8    1
    23    11     8    1
    24    11    16    1
    25     3     4    3
    26     8    10    2
    27    16    13    1
    28    10    12    1
    29    13    12    2
    30    13    15    1
    31    12    14    1
    32    15    17    2
    33    14    22    2
    34    14    18    1
    35    17    18    1
    36    22    21    1
    37    18    19    2
    38    21    20    2
    39    19    20    1
