@<TRIPOS>MOLECULE
25590_out_ligand_01.pdbqt
 33 37 0 0 0
SMALL
GASTEIGER

@<TRIPOS>ATOM
      1  C         21.3180  -22.5360  -10.8110 C.2     1  UNL1        0.0330
      2  C         22.6500  -22.9290  -10.9900 C.2     1  UNL1        0.0170
      3  C         23.3740  -22.4760  -12.0960 C.2     1  UNL1        0.0100
      4  C         22.7800  -21.6180  -13.0320 C.2     1  UNL1       -0.0300
      5  C         21.4500  -21.2130  -12.8350 C.2     1  UNL1        0.0100
      6  C         20.7230  -21.6640  -11.7320 C.2     1  UNL1        0.0170
      7  C         20.5810  -23.0460   -9.6190 C.2     1  UNL1        0.2710
      8  O         19.7910  -23.9740   -9.7610 O.2     1  UNL1       -0.2660
      9  N         20.8470  -22.3650   -8.4330 N.am    1  UNL1       -0.2430
     10  H         21.2490  -21.4360   -8.5110 H       1  UNL1        0.1920
     11  N         20.1870  -22.5590   -7.2460 N.2     1  UNL1       -0.1830
     12  C         19.1800  -21.7840   -6.9770 C.2     1  UNL1        0.1510
     13  C         18.4330  -21.8870   -5.6980 C.2     1  UNL1       -0.0060
     14  C         18.9860  -21.2620   -4.5690 C.2     1  UNL1        0.0140
     15  C         18.3570  -21.3590   -3.3340 C.2     1  UNL1        0.0020
     16  C         17.1710  -22.0810   -3.2190 C.2     1  UNL1        0.0120
     17  C         16.5900  -22.7050   -4.3340 C.2     1  UNL1       -0.0250
     18  C         15.3880  -23.4150   -4.1840 C.2     1  UNL1        0.0120
     19  C         17.2100  -22.6130   -5.6080 C.2     1  UNL1       -0.0140
     20  C         14.7750  -24.0320   -5.2710 C.2     1  UNL1        0.0010
     21  C         15.3540  -23.9410   -6.5290 C.2     1  UNL1        0.0010
     22  C         16.5510  -23.2400   -6.6960 C.2     1  UNL1        0.0130
     23  C         23.5650  -21.1200  -14.2290 C.3     1  UNL1        0.3110
     24  N         24.9970  -21.4500  -14.1490 N.3     1  UNL1        0.0970
     25  C         25.4520  -22.2180  -15.3190 C.3     1  UNL1        0.2770
     26  C         25.3830  -21.4540  -16.6500 C.3     1  UNL1        0.0690
     27  C         25.8630  -20.0290  -16.5330 C.2     1  UNL1       -0.0490
     28  C         26.0780  -19.2670  -17.6890 C.2     1  UNL1        0.0070
     29  C         26.0350  -19.4420  -15.2670 C.2     1  UNL1       -0.0240
     30  C         26.4820  -17.9360  -17.5900 C.2     1  UNL1        0.0010
     31  C         26.6700  -17.3560  -16.3370 C.2     1  UNL1        0.0010
     32  C         26.4510  -18.1050  -15.1810 C.2     1  UNL1        0.0090
     33  C         25.8460  -20.2520  -14.0000 C.3     1  UNL1        0.3110
@<TRIPOS>BOND
     1    28    30    1
     2    28    27    2
     3    30    31    2
     4    26    27    1
     5    26    25    1
     6    27    29    1
     7    31    32    1
     8    25    24    1
     9    29    32    2
    10    29    33    1
    11    23    24    1
    12    23     4    1
    13    24    33    1
    14     4     5    2
    15     4     3    1
    16     5     6    1
    17     3     2    2
    18     6     1    2
    19     2     1    1
    20     1     7    1
    21     8     7    2
    22     7     9   am
    23    10     9    1
    24     9    11    1
    25    11    12    2
    26    12    13    1
    27    22    21    2
    28    22    19    1
    29    21    20    1
    30    13    19    2
    31    13    14    1
    32    19    17    1
    33    20    18    2
    34    14    15    2
    35    17    18    1
    36    17    16    2
    37    15    16    1
