@<TRIPOS>MOLECULE
255_out_ligand_01.pdbqt
 37 39 0 0 0
SMALL
GASTEIGER

@<TRIPOS>ATOM
      1  C         23.0900  -22.4860  -11.4470 C.2     1  UNL1        0.0420
      2  C         22.3280  -22.9350  -10.3620 C.2     1  UNL1        0.0310
      3  C         20.9660  -22.6240  -10.2620 C.2     1  UNL1        0.0190
      4  C         20.3480  -21.8660  -11.2610 C.2     1  UNL1        0.0320
      5  C         21.0970  -21.4490  -12.3660 C.2     1  UNL1        0.0190
      6  C         22.4590  -21.7620  -12.4600 C.2     1  UNL1        0.0310
      7  C         18.9020  -21.5090  -11.2080 C.2     1  UNL1        0.2510
      8  O         18.5160  -20.4350  -11.6520 O.2     1  UNL1       -0.2680
      9  N         18.0660  -22.4320  -10.6100 N.am    1  UNL1       -0.3570
     10  H         18.4960  -23.1130   -9.9960 H       1  UNL1        0.1620
     11  C         16.6830  -22.0910  -10.3260 C.3     1  UNL1        0.1270
     12  C         15.9150  -23.2440   -9.6720 C.3     1  UNL1        0.0580
     13  C         16.0890  -23.3140   -8.1700 C.2     1  UNL1       -0.0570
     14  C         16.9780  -24.2360   -7.5970 C.2     1  UNL1        0.0090
     15  C         17.1240  -24.3130   -6.2110 C.2     1  UNL1        0.0250
     16  C         16.3860  -23.4540   -5.3950 C.2     1  UNL1        0.0740
     17  C         15.4900  -22.5350   -5.9480 C.2     1  UNL1        0.0250
     18  C         15.3480  -22.4650   -7.3350 C.2     1  UNL1        0.0090
     19  S         16.5520  -23.5470   -3.6320 S.O2    1  UNL1        0.2390
     20  O         15.7180  -24.6210   -3.1530 O.2     1  UNL1       -0.2060
     21  O         17.9540  -23.4400   -3.2970 O.2     1  UNL1       -0.2060
     22  N         15.8570  -22.0900   -3.1530 N.3     1  UNL1       -0.2250
     23  H         15.3700  -21.6790   -3.9530 H       1  UNL1        0.1360
     24  H         15.2460  -22.1820   -2.3420 H       1  UNL1        0.1360
     25  N         24.4470  -22.9120  -11.5000 N.pl3   1  UNL1       -0.2810
     26  H         24.7080  -23.8040  -11.0820 H       1  UNL1        0.1790
     27  S         25.7630  -21.8830  -11.6700 S.O2    1  UNL1        0.2630
     28  O         26.9300  -22.6890  -11.3810 O.2     1  UNL1       -0.2000
     29  O         25.4780  -20.6720  -10.9310 O.2     1  UNL1       -0.2000
     30  C         25.8300  -21.5110  -13.4170 C.2     1  UNL1        0.0860
     31  C         26.3150  -20.2750  -13.8840 C.2     1  UNL1       -0.0390
     32  C         26.2860  -20.0310  -15.2670 C.2     1  UNL1        0.0090
     33  C         26.8510  -19.2010  -12.9790 C.3     1  UNL1        0.0500
     34  C         25.8110  -20.9940  -16.1620 C.2     1  UNL1        0.0070
     35  C         25.3450  -22.2250  -15.6970 C.2     1  UNL1       -0.0600
     36  C         24.8770  -23.2750  -16.6610 C.3     1  UNL1        0.0480
     37  C         25.3700  -22.4840  -14.3220 C.2     1  UNL1        0.0320
@<TRIPOS>BOND
     1    36    35    1
     2    34    35    2
     3    34    32    1
     4    35    37    1
     5    32    31    2
     6    37    30    2
     7    31    30    1
     8    31    33    1
     9    30    27    1
    10     6     5    1
    11     6     1    2
    12     5     4    2
    13    27    25    1
    14    27    28    2
    15    27    29    2
    16     8     7    2
    17    25     1    1
    18    25    26    1
    19     1     2    1
    20     4     7    1
    21     4     3    1
    22     7     9   am
    23     9    11    1
    24     9    10    1
    25     2     3    2
    26    11    12    1
    27    12    13    1
    28    13    14    2
    29    13    18    1
    30    14    15    1
    31    18    17    2
    32    15    16    2
    33    17    16    1
    34    16    19    1
    35    23    22    1
    36    19    21    2
    37    19    22    1
    38    19    20    2
    39    22    24    1
