@<TRIPOS>MOLECULE
2563_out_ligand_01.pdbqt
 30 33 0 0 0
SMALL
GASTEIGER

@<TRIPOS>ATOM
      1  C         18.8100  -21.8110  -10.9110 C.2     1  UNL1        0.1430
      2  C         17.5890  -21.2220  -11.1980 C.2     1  UNL1        0.0450
      3  C         16.6350  -21.7930  -10.3190 C.2     1  UNL1        0.0380
      4  C         17.3180  -22.7000   -9.5390 C.2     1  UNL1        0.0780
      5  O         18.6320  -22.7140   -9.8940 O.2     1  UNL1       -0.3070
      6  C         20.1590  -21.6620  -11.4520 C.2     1  UNL1        0.2790
      7  O         20.3750  -21.0310  -12.4830 O.2     1  UNL1       -0.2650
      8  N         21.1410  -22.2930  -10.6980 N.am    1  UNL1       -0.3210
      9  H         20.8350  -22.7810   -9.8710 H       1  UNL1        0.1690
     10  C         22.5290  -22.3410  -10.9450 C.2     1  UNL1        0.0350
     11  C         23.3460  -21.5220  -10.1340 C.2     1  UNL1        0.0300
     12  C         24.7350  -21.4860  -10.2950 C.2     1  UNL1        0.0100
     13  C         25.3010  -22.2880  -11.2670 C.2     1  UNL1       -0.0520
     14  C         24.5040  -23.1020  -12.0750 C.2     1  UNL1       -0.0500
     15  C         26.7420  -22.3980  -11.6550 C.3     1  UNL1        0.0390
     16  C         23.1230  -23.1340  -11.9320 C.2     1  UNL1        0.0370
     17  C         25.3370  -23.8340  -13.0810 C.3     1  UNL1        0.0390
     18  C         26.7350  -23.7080  -12.4580 C.3     1  UNL1        0.0090
     19  C         16.9340  -23.6260   -8.4380 C.3     1  UNL1        0.2400
     20  O         18.0580  -23.7340   -7.5650 O.2     1  UNL1       -0.3390
     21  C         18.0940  -22.9190   -6.4650 C.2     1  UNL1        0.1520
     22  C         19.0930  -21.9390   -6.4840 C.2     1  UNL1        0.1910
     23  F         19.9260  -21.8530   -7.5320 F       1  UNL1       -0.2000
     24  C         19.2410  -21.0420   -5.4270 C.2     1  UNL1        0.1600
     25  F         20.2050  -20.1110   -5.4660 F       1  UNL1       -0.2030
     26  C         18.4000  -21.1000   -4.3250 C.2     1  UNL1        0.0910
     27  C         17.4070  -22.0690   -4.2990 C.2     1  UNL1        0.1600
     28  F         16.5880  -22.1340   -3.2410 F       1  UNL1       -0.2030
     29  C         17.2500  -22.9720   -5.3550 C.2     1  UNL1        0.1910
     30  F         16.2710  -23.8830   -5.2650 F       1  UNL1       -0.2000
@<TRIPOS>BOND
     1    17    18    1
     2    17    14    1
     3     7     6    2
     4    18    15    1
     5    14    16    1
     6    14    13    2
     7    16    10    2
     8    15    13    1
     9     6     1    1
    10     6     8   am
    11    13    12    1
    12     2     1    2
    13     2     3    1
    14    10     8    1
    15    10    11    1
    16     1     5    1
    17     8     9    1
    18     3     4    2
    19    12    11    2
    20     5     4    1
    21     4    19    1
    22    19    20    1
    23    20    21    1
    24    23    22    1
    25    22    21    2
    26    22    24    1
    27    21    29    1
    28    25    24    1
    29    24    26    2
    30    29    30    1
    31    29    27    2
    32    26    27    1
    33    27    28    1
