@<TRIPOS>MOLECULE
25657_out_ligand_01.pdbqt
 34 36 0 0 0
SMALL
GASTEIGER

@<TRIPOS>ATOM
      1  C         20.0170  -21.8720   -6.8220 C.2     1  UNL1       -0.0390
      2  C         21.1700  -21.0730   -6.8110 C.2     1  UNL1        0.0100
      3  C         22.2630  -21.3920   -7.6200 C.2     1  UNL1        0.0170
      4  C         22.2190  -22.5090   -8.4640 C.2     1  UNL1        0.0320
      5  C         21.0760  -23.3170   -8.4720 C.2     1  UNL1        0.0170
      6  C         19.9800  -22.9910   -7.6670 C.2     1  UNL1        0.0100
      7  C         18.8270  -21.5010   -5.9610 C.3     1  UNL1        0.1800
      8  N         17.9370  -22.6450   -5.6580 N.pl3   1  UNL1       -0.2720
      9  C         17.1170  -23.1780   -6.7100 C.2     1  UNL1        0.0450
     10  C         16.6570  -24.4950   -6.6730 C.2     1  UNL1        0.0310
     11  C         15.8970  -24.9980   -7.7300 C.2     1  UNL1        0.0090
     12  C         15.5960  -24.2020   -8.8440 C.2     1  UNL1       -0.0560
     13  C         14.7770  -24.7800   -9.9670 C.3     1  UNL1        0.0490
     14  C         16.0700  -22.8750   -8.8900 C.2     1  UNL1       -0.0540
     15  C         16.8370  -22.3820   -7.8220 C.2     1  UNL1        0.0370
     16  C         15.8020  -21.9820  -10.0710 C.3     1  UNL1        0.0490
     17  S         17.3590  -22.7880   -4.0690 S.O2    1  UNL1        0.2290
     18  C         18.3980  -21.6450   -3.1800 C.3     1  UNL1        0.1860
     19  O         17.6800  -24.1150   -3.5850 O.2     1  UNL1       -0.2060
     20  O         16.0010  -22.2900   -4.0010 O.2     1  UNL1       -0.2060
     21  C         23.4180  -22.8110   -9.3030 C.2     1  UNL1        0.2560
     22  O         24.0060  -23.8700   -9.1170 O.2     1  UNL1       -0.2670
     23  N         23.7730  -21.8190  -10.2020 N.am    1  UNL1       -0.3230
     24  H         23.2710  -20.9440  -10.1410 H       1  UNL1        0.1690
     25  C         24.8200  -21.8590  -11.1470 C.2     1  UNL1        0.0350
     26  C         26.0180  -21.1570  -11.0170 C.2     1  UNL1        0.0290
     27  C         27.0130  -21.2580  -11.9950 C.2     1  UNL1        0.0030
     28  C         26.8190  -22.0670  -13.1120 C.2     1  UNL1        0.0160
     29  C         25.6250  -22.7830  -13.2650 C.2     1  UNL1        0.0500
     30  C         24.6330  -22.6730  -12.2730 C.2     1  UNL1        0.0450
     31  C         25.4260  -23.6680  -14.4690 C.3     1  UNL1        0.4170
     32  F         24.5370  -23.1460  -15.3580 F       1  UNL1       -0.1660
     33  F         26.5710  -23.8880  -15.1750 F       1  UNL1       -0.1660
     34  F         24.9490  -24.9020  -14.1430 F       1  UNL1       -0.1660
@<TRIPOS>BOND
     1    32    31    1
     2    33    31    1
     3    31    34    1
     4    31    29    1
     5    29    28    2
     6    29    30    1
     7    28    27    1
     8    30    25    2
     9    27    26    2
    10    25    26    1
    11    25    23    1
    12    23    24    1
    13    23    21   am
    14    16    14    1
    15    13    12    1
    16    21    22    2
    17    21     4    1
    18    14    12    2
    19    14    15    1
    20    12    11    1
    21     5     4    2
    22     5     6    1
    23     4     3    1
    24    15     9    2
    25    11    10    2
    26     6     1    2
    27     3     2    2
    28     1     2    1
    29     1     7    1
    30     9    10    1
    31     9     8    1
    32     7     8    1
    33     8    17    1
    34    17    20    2
    35    17    19    2
    36    17    18    1
