@<TRIPOS>MOLECULE
25662_out_ligand_01.pdbqt
 28 31 0 0 0
SMALL
GASTEIGER

@<TRIPOS>ATOM
      1  C         22.5770  -22.1470  -10.1100 C.2     1  UNL1        0.0320
      2  C         21.3520  -22.2610  -10.7770 C.2     1  UNL1        0.0170
      3  C         20.1600  -22.3080  -10.0520 C.2     1  UNL1        0.0100
      4  C         20.1750  -22.2530   -8.6510 C.2     1  UNL1       -0.0300
      5  C         21.4080  -22.1570   -7.9870 C.2     1  UNL1        0.0100
      6  C         22.6030  -22.1100   -8.7100 C.2     1  UNL1        0.0170
      7  C         23.8280  -22.0980  -10.9200 C.2     1  UNL1        0.2560
      8  O         24.7270  -21.3480  -10.5610 O.2     1  UNL1       -0.2670
      9  N         23.8500  -22.9570  -12.0010 N.am    1  UNL1       -0.3220
     10  H         23.0810  -23.6120  -12.0920 H       1  UNL1        0.1690
     11  C         24.8690  -23.1170  -12.9690 C.2     1  UNL1        0.0520
     12  C         25.9190  -24.0300  -12.8290 C.2     1  UNL1        0.0310
     13  C         26.9050  -24.1430  -13.8160 C.2     1  UNL1        0.0020
     14  C         26.8560  -23.3420  -14.9540 C.2     1  UNL1        0.0020
     15  C         25.8210  -22.4230  -15.1100 C.2     1  UNL1        0.0210
     16  C         24.8360  -22.3110  -14.1230 C.2     1  UNL1        0.0370
     17 BR         23.4540  -21.0310  -14.3980 Br      1  UNL1       -0.0490
     18  C         18.8790  -22.3020   -7.8660 C.3     1  UNL1        0.3110
     19  N         18.2590  -23.6360   -7.8620 N.3     1  UNL1        0.0970
     20  C         16.9670  -23.6470   -8.5670 C.3     1  UNL1        0.2770
     21  C         15.8720  -22.7990   -7.9040 C.3     1  UNL1        0.0690
     22  C         15.8430  -22.9450   -6.4030 C.2     1  UNL1       -0.0490
     23  C         14.7730  -22.4160   -5.6690 C.2     1  UNL1        0.0070
     24  C         16.9180  -23.5560   -5.7300 C.2     1  UNL1       -0.0240
     25  C         14.7580  -22.5130   -4.2780 C.2     1  UNL1        0.0010
     26  C         15.8110  -23.1320   -3.6100 C.2     1  UNL1        0.0010
     27  C         16.8850  -23.6550   -4.3320 C.2     1  UNL1        0.0090
     28  C         18.0680  -24.1710   -6.5000 C.3     1  UNL1        0.3110
@<TRIPOS>BOND
     1    15    14    2
     2    15    16    1
     3    14    13    1
     4    17    16    1
     5    16    11    2
     6    13    12    2
     7    11    12    1
     8    11     9    1
     9    10     9    1
    10     9     7   am
    11     7     8    2
    12     7     1    1
    13     2     1    2
    14     2     3    1
    15     1     6    1
    16     3     4    2
    17     6     5    2
    18     4     5    1
    19     4    18    1
    20    20    21    1
    21    20    19    1
    22    21    22    1
    23    18    19    1
    24    19    28    1
    25    28    24    1
    26    22    24    2
    27    22    23    1
    28    24    27    1
    29    23    25    2
    30    27    26    2
    31    25    26    1
