@<TRIPOS>MOLECULE
25669_out_ligand_01.pdbqt
 28 30 0 0 0
SMALL
GASTEIGER

@<TRIPOS>ATOM
      1  C         17.2790  -22.0840  -10.2430 C.2     1  UNL1        0.0720
      2  C         17.0610  -20.9150  -10.9440 C.2     1  UNL1        0.0370
      3  C         18.2470  -20.6580  -11.6690 C.2     1  UNL1        0.0410
      4  C         19.1230  -21.6880  -11.3810 C.2     1  UNL1        0.0930
      5  O         18.5330  -22.5610  -10.5100 O.2     1  UNL1       -0.3120
      6  C         16.4460  -22.8870   -9.3110 C.3     1  UNL1        0.1970
      7  N         16.6840  -22.4030   -7.9510 N.3     1  UNL1       -0.3090
      8  H         16.9630  -21.4300   -7.8390 H       1  UNL1        0.1720
      9  S         17.4530  -23.4380   -6.8880 S.O2    1  UNL1        0.2590
     10  O         16.8910  -24.7510   -7.1180 O.2     1  UNL1       -0.2010
     11  O         17.4470  -22.8230   -5.5790 O.2     1  UNL1       -0.2010
     12  C         19.1110  -23.4410   -7.5220 C.2     1  UNL1        0.0790
     13  C         19.9140  -22.3120   -7.3320 C.2     1  UNL1        0.0260
     14  C         21.2190  -22.3050   -7.8330 C.2     1  UNL1        0.0080
     15  C         21.7170  -23.4130   -8.5350 C.2     1  UNL1       -0.0620
     16  C         23.1330  -23.4150   -9.0420 C.3     1  UNL1        0.0480
     17  C         20.8970  -24.5400   -8.7170 C.2     1  UNL1        0.0080
     18  C         19.5920  -24.5540   -8.2200 C.2     1  UNL1        0.0260
     19  C         20.4610  -21.9640  -11.8200 C.2     1  UNL1        0.1540
     20  N         21.0970  -21.1270  -12.5750 N.2     1  UNL1       -0.2580
     21  C         22.3930  -21.5040  -12.9490 C.2     1  UNL1        0.0570
     22  C         23.1550  -22.3340  -12.1310 C.2     1  UNL1        0.0320
     23  C         24.4520  -22.6920  -12.5010 C.2     1  UNL1        0.0090
     24  C         25.0110  -22.2210  -13.6990 C.2     1  UNL1       -0.0560
     25  C         26.4150  -22.6150  -14.0610 C.3     1  UNL1        0.0490
     26  C         24.2540  -21.3660  -14.5230 C.2     1  UNL1       -0.0540
     27  C         24.8020  -20.8300  -15.8200 C.3     1  UNL1        0.0490
     28  C         22.9490  -21.0160  -14.1330 C.2     1  UNL1        0.0380
@<TRIPOS>BOND
     1    27    26    1
     2    26    28    1
     3    26    24    2
     4    28    21    2
     5    25    24    1
     6    24    23    1
     7    21    20    1
     8    21    22    1
     9    20    19    2
    10    23    22    2
    11    19     4    1
    12     3     4    2
    13     3     2    1
    14     4     5    1
    15     2     1    2
    16     5     1    1
    17     1     6    1
    18     6     7    1
    19    16    15    1
    20    17    15    2
    21    17    18    1
    22    15    14    1
    23    18    12    2
    24     7     8    1
    25     7     9    1
    26    14    13    2
    27    12    13    1
    28    12     9    1
    29    10     9    2
    30     9    11    2
