@<TRIPOS>MOLECULE
25675_out_ligand_01.pdbqt
 30 33 0 0 0
SMALL
GASTEIGER

@<TRIPOS>ATOM
      1  C         20.4720  -22.7270   -7.6370 C.2     1  UNL1        0.0320
      2  C         20.6200  -23.8680   -8.4340 C.2     1  UNL1        0.0170
      3  C         21.7770  -24.0410   -9.1980 C.2     1  UNL1        0.0100
      4  C         22.7930  -23.0720   -9.1920 C.2     1  UNL1       -0.0300
      5  C         22.6330  -21.9260   -8.3990 C.2     1  UNL1        0.0100
      6  C         21.4770  -21.7520   -7.6330 C.2     1  UNL1        0.0170
      7  C         19.2560  -22.4950   -6.8040 C.2     1  UNL1        0.2560
      8  N         18.4670  -23.6080   -6.6050 N.am    1  UNL1       -0.3210
      9  H         18.7990  -24.5060   -6.9410 H       1  UNL1        0.1690
     10  O         19.0690  -21.3740   -6.3450 O.2     1  UNL1       -0.2670
     11  C         17.2460  -23.7020   -5.8980 C.2     1  UNL1        0.0680
     12  C         17.1440  -23.5740   -4.5130 C.2     1  UNL1        0.0320
     13  C         15.8990  -23.6770   -3.8870 C.2     1  UNL1        0.0020
     14  C         14.7530  -23.9040   -4.6430 C.2     1  UNL1        0.0030
     15  C         14.8410  -24.0300   -6.0320 C.2     1  UNL1        0.0390
     16  C         16.0830  -23.9300   -6.6670 C.2     1  UNL1        0.0950
     17  O         16.2850  -24.0350   -8.0250 O.2     1  UNL1       -0.3490
     18  C         15.8510  -22.9440   -8.8350 C.3     1  UNL1        0.1710
     19  C         17.0400  -22.4690   -9.6510 C.3     1  UNL1        0.0340
     20  C         24.0490  -23.2670  -10.0170 C.3     1  UNL1        0.3110
     21  N         24.2170  -22.2600  -11.0780 N.3     1  UNL1        0.0970
     22  C         24.2140  -22.9060  -12.3990 C.3     1  UNL1        0.2770
     23  C         24.1890  -21.8560  -13.5170 C.3     1  UNL1        0.0690
     24  C         25.2350  -20.7900  -13.3280 C.2     1  UNL1       -0.0490
     25  C         25.5870  -19.9490  -14.3930 C.2     1  UNL1        0.0070
     26  C         25.8150  -20.5950  -12.0630 C.2     1  UNL1       -0.0240
     27  C         26.5300  -18.9380  -14.2100 C.2     1  UNL1        0.0010
     28  C         27.1210  -18.7540  -12.9630 C.2     1  UNL1        0.0010
     29  C         26.7680  -19.5800  -11.8950 C.2     1  UNL1        0.0090
     30  C         25.4770  -21.5070  -10.9000 C.3     1  UNL1        0.3110
@<TRIPOS>BOND
     1    25    27    1
     2    25    24    2
     3    27    28    2
     4    23    24    1
     5    23    22    1
     6    24    26    1
     7    28    29    1
     8    22    21    1
     9    26    29    2
    10    26    30    1
    11    21    30    1
    12    21    20    1
    13    20     4    1
    14    19    18    1
    15     3     4    2
    16     3     2    1
    17     4     5    1
    18    18    17    1
    19     2     1    2
    20     5     6    2
    21    17    16    1
    22     1     6    1
    23     1     7    1
    24     9     8    1
    25     7     8   am
    26     7    10    2
    27    16    15    1
    28    16    11    2
    29     8    11    1
    30    15    14    2
    31    11    12    1
    32    14    13    1
    33    12    13    2
