@<TRIPOS>MOLECULE
2570_out_ligand_01.pdbqt
 31 34 0 0 0
SMALL
GASTEIGER

@<TRIPOS>ATOM
      1  C         17.9410  -21.9150  -10.5750 C.2     1  UNL1        0.1430
      2  C         16.6160  -21.5080  -10.5560 C.2     1  UNL1        0.0450
      3  C         15.9580  -22.2710   -9.5560 C.2     1  UNL1        0.0380
      4  C         16.9110  -23.1070   -9.0180 C.2     1  UNL1        0.0780
      5  O         18.1130  -22.8920   -9.6260 O.2     1  UNL1       -0.3070
      6  C         19.1120  -21.5180  -11.3470 C.2     1  UNL1        0.2790
      7  O         19.0670  -20.6020  -12.1630 O.2     1  UNL1       -0.2650
      8  N         20.2540  -22.2560  -11.0640 N.am    1  UNL1       -0.3210
      9  H         20.1840  -22.9300  -10.3150 H       1  UNL1        0.1690
     10  C         21.5210  -22.1590  -11.6800 C.2     1  UNL1        0.0370
     11  C         22.5860  -22.8220  -11.0500 C.2     1  UNL1        0.0320
     12  C         23.8710  -22.7940  -11.5980 C.2     1  UNL1        0.0420
     13  C         24.1010  -22.1110  -12.7870 C.2     1  UNL1        0.1020
     14  C         23.0540  -21.4280  -13.4090 C.2     1  UNL1        0.1040
     15  O         25.3790  -22.1460  -13.2840 O.2     1  UNL1       -0.3460
     16  C         21.7670  -21.4640  -12.8660 C.2     1  UNL1        0.0690
     17  O         23.2140  -20.7100  -14.5680 O.2     1  UNL1       -0.3460
     18  C         24.5950  -20.4490  -14.8370 C.3     1  UNL1        0.2020
     19  C         25.4200  -21.7110  -14.6480 C.3     1  UNL1        0.2020
     20  C         16.8920  -24.1250   -7.9330 C.3     1  UNL1        0.2400
     21  O         18.1530  -24.0390   -7.2660 O.2     1  UNL1       -0.3390
     22  C         18.3250  -23.0300   -6.3570 C.2     1  UNL1        0.1520
     23  C         17.5020  -23.0970   -5.2270 C.2     1  UNL1        0.1910
     24  F         16.6240  -24.1040   -5.0980 F       1  UNL1       -0.2000
     25  C         17.5730  -22.1280   -4.2260 C.2     1  UNL1        0.1600
     26  F         16.7750  -22.2100   -3.1540 F       1  UNL1       -0.2030
     27  C         18.4610  -21.0670   -4.3260 C.2     1  UNL1        0.0910
     28  C         19.2790  -20.9920   -5.4470 C.2     1  UNL1        0.1600
     29  F         20.1360  -19.9670   -5.5590 F       1  UNL1       -0.2030
     30  C         19.2180  -21.9580   -6.4520 C.2     1  UNL1        0.1910
     31  F         20.0310  -21.8230   -7.5080 F       1  UNL1       -0.2000
@<TRIPOS>BOND
     1    18    19    1
     2    18    17    1
     3    19    15    1
     4    17    14    1
     5    14    16    1
     6    14    13    2
     7    15    13    1
     8    16    10    2
     9    13    12    1
    10     7     6    2
    11    10     8    1
    12    10    11    1
    13    12    11    2
    14     6     8   am
    15     6     1    1
    16     8     9    1
    17     1     2    2
    18     1     5    1
    19     2     3    1
    20     5     4    1
    21     3     4    2
    22     4    20    1
    23    20    21    1
    24    31    30    1
    25    21    22    1
    26    30    22    2
    27    30    28    1
    28    22    23    1
    29    29    28    1
    30    28    27    2
    31    23    24    1
    32    23    25    2
    33    27    25    1
    34    25    26    1
