@<TRIPOS>MOLECULE
25799_out_ligand_01.pdbqt
 31 34 0 0 0
SMALL
GASTEIGER

@<TRIPOS>ATOM
      1  C         21.1010  -22.7010   -8.8700 C.2     1  UNL1        0.0320
      2  C         21.0390  -22.9240  -10.2510 C.2     1  UNL1        0.0170
      3  C         22.1090  -22.5490  -11.0690 C.2     1  UNL1        0.0100
      4  C         23.2480  -21.9430  -10.5180 C.2     1  UNL1       -0.0300
      5  C         23.2920  -21.7070   -9.1350 C.2     1  UNL1        0.0100
      6  C         22.2240  -22.0780   -8.3170 C.2     1  UNL1        0.0170
      7  C         19.9800  -23.0830   -7.9660 C.2     1  UNL1        0.2560
      8  O         19.5350  -24.2220   -8.0370 O.2     1  UNL1       -0.2670
      9  N         19.5270  -22.0640   -7.1450 N.am    1  UNL1       -0.3230
     10  H         19.9070  -21.1420   -7.3140 H       1  UNL1        0.1690
     11  C         18.5170  -22.1420   -6.1640 C.2     1  UNL1        0.0350
     12  C         18.7830  -21.5460   -4.9250 C.2     1  UNL1        0.0290
     13  C         17.8360  -21.5790   -3.8990 C.2     1  UNL1        0.0030
     14  C         16.6130  -22.2150   -4.1010 C.2     1  UNL1        0.0160
     15  C         16.3310  -22.8300   -5.3290 C.2     1  UNL1        0.0500
     16  C         17.2910  -22.7820   -6.3560 C.2     1  UNL1        0.0450
     17  C         15.0060  -23.5110   -5.5680 C.3     1  UNL1        0.4170
     18  F         15.0150  -24.2890   -6.6840 F       1  UNL1       -0.1660
     19  F         13.9740  -22.6340   -5.7370 F       1  UNL1       -0.1660
     20  F         14.6310  -24.3240   -4.5410 F       1  UNL1       -0.1660
     21  C         24.4030  -21.5180  -11.4030 C.3     1  UNL1        0.3110
     22  N         24.3530  -22.1060  -12.7510 N.3     1  UNL1        0.0970
     23  C         25.3160  -23.2120  -12.8610 C.3     1  UNL1        0.2770
     24  C         25.1320  -23.9610  -14.1880 C.3     1  UNL1        0.0690
     25  C         25.0920  -23.0310  -15.3720 C.2     1  UNL1       -0.0490
     26  C         25.2720  -23.5300  -16.6680 C.2     1  UNL1        0.0070
     27  C         24.8100  -21.6670  -15.1790 C.2     1  UNL1       -0.0240
     28  C         25.2010  -22.6750  -17.7680 C.2     1  UNL1        0.0010
     29  C         24.9420  -21.3190  -17.5800 C.2     1  UNL1        0.0010
     30  C         24.7500  -20.8170  -16.2940 C.2     1  UNL1        0.0090
     31  C         24.6400  -21.0920  -13.7870 C.3     1  UNL1        0.3110
@<TRIPOS>BOND
     1    28    29    2
     2    28    26    1
     3    29    30    1
     4    26    25    2
     5    30    27    2
     6    25    27    1
     7    25    24    1
     8    27    31    1
     9    24    23    1
    10    31    22    1
    11    23    22    1
    12    22    21    1
    13    21     4    1
    14     3     4    2
    15     3     2    1
    16     4     5    1
    17     2     1    2
    18     5     6    2
    19     1     6    1
    20     1     7    1
    21     8     7    2
    22     7     9   am
    23    10     9    1
    24     9    11    1
    25    18    17    1
    26    16    11    2
    27    16    15    1
    28    11    12    1
    29    19    17    1
    30    17    15    1
    31    17    20    1
    32    15    14    2
    33    12    13    2
    34    14    13    1
