@<TRIPOS>MOLECULE
2582_out_ligand_01.pdbqt
 36 38 0 0 0
SMALL
GASTEIGER

@<TRIPOS>ATOM
      1  C         23.8910  -21.6530  -12.9640 C.2     1  UNL1        0.0870
      2  C         25.1060  -21.0990  -12.8410 C.2     1  UNL1        0.1180
      3  C         25.6530  -20.7870  -11.5100 C.2     1  UNL1        0.2720
      4  O         26.7520  -20.2520  -11.4240 O.2     1  UNL1       -0.2660
      5  N         24.9090  -21.1050  -10.4080 N.am    1  UNL1       -0.1850
      6  C         23.7380  -21.6270  -10.5730 C.2     1  UNL1        0.1730
      7  N         23.1530  -21.9280  -11.8060 N.pl3   1  UNL1       -0.3160
      8  S         22.8530  -21.9580   -9.0760 S.3     1  UNL1       -0.0820
      9  C         22.5840  -23.7470   -9.1980 C.3     1  UNL1        0.1850
     10  C         21.2110  -24.1290   -8.6670 C.2     1  UNL1        0.2310
     11  O         20.7550  -25.2530   -8.8680 O.2     1  UNL1       -0.2720
     12  N         20.5970  -23.1160   -7.9560 N.am    1  UNL1       -0.3270
     13  H         21.0660  -22.2090   -7.9820 H       1  UNL1        0.1690
     14  C         19.3700  -23.1560   -7.2650 C.2     1  UNL1        0.0340
     15  C         19.0220  -22.0170   -6.5250 C.2     1  UNL1        0.0310
     16  C         17.8290  -21.9750   -5.7980 C.2     1  UNL1        0.0270
     17  C         16.9760  -23.0800   -5.8110 C.2     1  UNL1        0.0740
     18  C         17.3160  -24.2270   -6.5300 C.2     1  UNL1        0.0270
     19  C         18.5100  -24.2600   -7.2600 C.2     1  UNL1        0.0310
     20  S         15.4900  -23.0430   -4.8560 S.O2    1  UNL1        0.2390
     21  O         15.2330  -24.3620   -4.3280 O.2     1  UNL1       -0.2060
     22  O         14.4840  -22.2820   -5.5580 O.2     1  UNL1       -0.2060
     23  N         15.9400  -22.0990   -3.5430 N.3     1  UNL1       -0.2250
     24  H         16.9470  -22.1770   -3.3950 H       1  UNL1        0.1360
     25  H         15.3820  -22.3490   -2.7270 H       1  UNL1        0.1360
     26  C         21.7260  -22.3040  -11.9120 C.3     1  UNL1        0.1370
     27  C         20.8360  -21.0570  -11.9860 C.3     1  UNL1        0.0590
     28  C         19.4370  -21.3480  -11.4970 C.2     1  UNL1       -0.0570
     29  C         19.1150  -22.6070  -10.9750 C.2     1  UNL1        0.0070
     30  C         17.8280  -22.8660  -10.5020 C.2     1  UNL1        0.0010
     31  C         16.8540  -21.8700  -10.5440 C.2     1  UNL1        0.0000
     32  C         17.1670  -20.6130  -11.0590 C.2     1  UNL1        0.0010
     33  C         18.4530  -20.3510  -11.5310 C.2     1  UNL1        0.0070
     34  N         23.4100  -21.9290  -14.2320 N.pl3   1  UNL1       -0.2880
     35  H         24.0990  -22.3560  -14.8480 H       1  UNL1        0.1250
     36  H         22.5690  -22.5010  -14.2070 H       1  UNL1        0.1250
@<TRIPOS>BOND
     1    35    34    1
     2    34    36    1
     3    34     1    1
     4     1     2    2
     5     1     7    1
     6     2     3    1
     7    27    26    1
     8    27    28    1
     9    26     7    1
    10     7     6    1
    11    33    28    2
    12    33    32    1
    13     3     4    2
    14     3     5    1
    15    28    29    1
    16    32    31    2
    17    29    30    2
    18     6     5    2
    19     6     8    1
    20    31    30    1
    21     9     8    1
    22     9    10    1
    23    11    10    2
    24    10    12   am
    25    13    12    1
    26    12    14    1
    27    14    19    2
    28    14    15    1
    29    19    18    1
    30    18    17    2
    31    15    16    2
    32    17    16    1
    33    17    20    1
    34    22    20    2
    35    20    21    2
    36    20    23    1
    37    23    24    1
    38    23    25    1
