@<TRIPOS>MOLECULE
2588_out_ligand_01.pdbqt
 29 32 0 0 0
SMALL
GASTEIGER

@<TRIPOS>ATOM
      1  N         16.9000  -23.0670   -9.0960 N.pl3   1  UNL1       -0.2560
      2  C         15.9750  -22.2700   -9.7060 C.2     1  UNL1        0.1170
      3  C         16.6620  -21.5450  -10.6500 C.2     1  UNL1        0.0580
      4  C         18.0180  -21.9770  -10.5610 C.2     1  UNL1        0.1460
      5  N         18.1390  -22.9190   -9.6060 N.2     1  UNL1       -0.1650
      6  C         19.1930  -21.5200  -11.3470 C.2     1  UNL1        0.2760
      7  O         19.1290  -20.5500  -12.0960 O.2     1  UNL1       -0.2660
      8  N         20.3350  -22.2800  -11.1290 N.am    1  UNL1       -0.3220
      9  H         20.2820  -22.9750  -10.3990 H       1  UNL1        0.1690
     10  C         21.5950  -22.1450  -11.7510 C.2     1  UNL1        0.0370
     11  C         22.6760  -22.8030  -11.1420 C.2     1  UNL1        0.0320
     12  C         23.9590  -22.7260  -11.6870 C.2     1  UNL1        0.0420
     13  C         24.1760  -21.9930  -12.8480 C.2     1  UNL1        0.1020
     14  C         23.1020  -21.3600  -13.4800 C.2     1  UNL1        0.1040
     15  O         25.4630  -21.9440  -13.3180 O.2     1  UNL1       -0.3460
     16  C         21.8200  -21.4230  -12.9260 C.2     1  UNL1        0.0690
     17  O         23.2340  -20.6510  -14.6480 O.2     1  UNL1       -0.3460
     18  C         24.4750  -20.9430  -15.2990 C.3     1  UNL1        0.2020
     19  C         25.6210  -20.9150  -14.3010 C.3     1  UNL1        0.2020
     20  C         16.6910  -24.0390   -8.0210 C.3     1  UNL1        0.3250
     21  O         15.9750  -23.4260   -6.9520 O.2     1  UNL1       -0.3300
     22  C         16.7160  -22.8150   -5.9740 C.2     1  UNL1        0.0770
     23  C         16.2830  -23.0410   -4.6560 C.2     1  UNL1       -0.0290
     24  C         16.9730  -22.4450   -3.5920 C.2     1  UNL1        0.0100
     25  C         15.0760  -23.8940   -4.3740 C.3     1  UNL1        0.0510
     26  C         18.0880  -21.6420   -3.8310 C.2     1  UNL1        0.0070
     27  C         18.5370  -21.4280   -5.1360 C.2     1  UNL1       -0.0590
     28  C         19.7180  -20.5380   -5.3960 C.3     1  UNL1        0.0480
     29  C         17.8360  -22.0060   -6.2050 C.2     1  UNL1        0.0440
@<TRIPOS>BOND
     1    18    17    1
     2    18    19    1
     3    17    14    1
     4    19    15    1
     5    14    16    1
     6    14    13    2
     7    15    13    1
     8    16    10    2
     9    13    12    1
    10     7     6    2
    11    10    11    1
    12    10     8    1
    13    12    11    2
    14     6     8   am
    15     6     4    1
    16     8     9    1
    17     3     4    1
    18     3     2    2
    19     4     5    2
    20     2     1    1
    21     5     1    1
    22     1    20    1
    23    20    21    1
    24    21    22    1
    25    29    22    2
    26    29    27    1
    27    22    23    1
    28    28    27    1
    29    27    26    2
    30    23    25    1
    31    23    24    2
    32    26    24    1
