@<TRIPOS>MOLECULE
258_out_ligand_01.pdbqt
 34 38 0 0 0
SMALL
GASTEIGER

@<TRIPOS>ATOM
      1  C         20.3200  -22.6320  -10.2920 C.2     1  UNL1        0.0340
      2  C         19.5630  -22.1530  -11.3600 C.2     1  UNL1        0.0170
      3  C         18.2170  -21.8660  -11.1650 C.2     1  UNL1        0.0030
      4  C         17.6330  -22.0540   -9.9070 C.2     1  UNL1        0.0300
      5  C         18.3710  -22.5270   -8.8070 C.2     1  UNL1        0.0460
      6  C         19.7310  -22.8050   -9.0270 C.2     1  UNL1        0.0470
      7  C         21.7680  -22.9290  -10.4460 C.2     1  UNL1        0.2520
      8  O         22.3430  -23.6250   -9.6190 O.2     1  UNL1       -0.2680
      9  N         22.3790  -22.3930  -11.5600 N.am    1  UNL1       -0.3520
     10  H         21.8450  -21.8060  -12.1870 H       1  UNL1        0.1630
     11  C         23.8210  -22.4950  -11.7650 C.3     1  UNL1        0.0880
     12  C         24.1780  -22.4040  -13.2540 C.3     1  UNL1        0.0550
     13  C         24.5770  -20.9840  -13.6440 C.3     1  UNL1        0.2750
     14  N         25.7280  -20.4630  -12.8930 N.3     1  UNL1        0.0920
     15  C         25.8900  -21.0770  -11.5630 C.3     1  UNL1        0.2750
     16  C         24.5490  -21.4330  -10.9300 C.3     1  UNL1        0.0550
     17  C         26.9710  -20.5360  -13.6800 C.3     1  UNL1        0.3110
     18  C         26.9570  -19.6680  -14.9220 C.2     1  UNL1       -0.0300
     19  C         26.7670  -18.2820  -14.8190 C.2     1  UNL1        0.0090
     20  C         26.7440  -17.4820  -15.9620 C.2     1  UNL1        0.0010
     21  C         26.9090  -18.0590  -17.2200 C.2     1  UNL1        0.0000
     22  C         27.0970  -19.4340  -17.3360 C.2     1  UNL1        0.0010
     23  C         27.1210  -20.2370  -16.1940 C.2     1  UNL1        0.0090
     24  N         17.7660  -22.7100   -7.5240 N.am    1  UNL1       -0.2440
     25  C         16.6700  -23.5140   -7.2700 C.2     1  UNL1        0.2660
     26  O         15.9840  -24.2140   -7.9940 O.2     1  UNL1       -0.2670
     27  C         16.3760  -23.4080   -5.8450 C.2     1  UNL1        0.0480
     28  C         15.3810  -24.0010   -5.0900 C.2     1  UNL1        0.0180
     29  C         17.3020  -22.5570   -5.2880 C.2     1  UNL1        0.0480
     30  C         15.3480  -23.7050   -3.7230 C.2     1  UNL1        0.0010
     31  C         16.2990  -22.8350   -3.1530 C.2     1  UNL1        0.0010
     32  C         17.2940  -22.2480   -3.9410 C.2     1  UNL1        0.0180
     33  C         18.1990  -22.1200   -6.3520 C.2     1  UNL1        0.2660
     34  O         19.1450  -21.3930   -6.1040 O.2     1  UNL1       -0.2670
@<TRIPOS>BOND
     1    22    21    2
     2    22    23    1
     3    21    20    1
     4    23    18    2
     5    20    19    2
     6    18    19    1
     7    18    17    1
     8    17    14    1
     9    13    12    1
    10    13    14    1
    11    12    11    1
    12    14    15    1
    13    10     9    1
    14    11     9    1
    15    11    16    1
    16    15    16    1
    17     9     7   am
    18     2     3    1
    19     2     1    2
    20     3     4    2
    21     7     1    1
    22     7     8    2
    23     1     6    1
    24     4     5    1
    25     6     5    2
    26     5    24    1
    27    26    25    2
    28    24    25   am
    29    24    33   am
    30    25    27    1
    31    33    34    2
    32    33    29    1
    33    27    29    2
    34    27    28    1
    35    29    32    1
    36    28    30    2
    37    32    31    2
    38    30    31    1
