@<TRIPOS>MOLECULE
25911_out_ligand_01.pdbqt
 33 36 0 0 0
SMALL
GASTEIGER

@<TRIPOS>ATOM
      1  N         17.4120  -22.5400  -10.3640 N.ar    1  UNL1       -0.1940
      2  N         18.4710  -23.2780   -9.8640 N.ar    1  UNL1        0.0260
      3  C         19.5070  -22.7690  -10.4650 C.ar    1  UNL1        0.7550
      4  N         20.7820  -23.2070  -10.2680 N.2     1  UNL1       -0.0430
      5  C         21.7340  -22.5980  -10.9310 C.2     1  UNL1        0.1480
      6  C         21.4630  -21.4330  -11.8440 C.2     1  UNL1        0.0690
      7  C         20.1880  -21.0610  -11.9860 C.2     1  UNL1        0.1240
      8  N         19.2340  -21.7420  -11.3030 N.ar    1  UNL1       -0.1000
      9  C         17.8770  -21.5530  -11.2470 C.ar    1  UNL1        0.3640
     10  O         17.2110  -20.7090  -11.8250 O.2     1  UNL1       -0.2440
     11  C         16.0450  -22.7190   -9.9280 C.3     1  UNL1        0.2590
     12  C         15.9420  -23.1980   -8.4760 C.2     1  UNL1        0.2420
     13  O         15.6930  -24.3780   -8.2320 O.2     1  UNL1       -0.2710
     14  N         16.2660  -22.2210   -7.5480 N.am    1  UNL1       -0.3250
     15  H         16.5380  -21.3370   -7.9800 H       1  UNL1        0.1690
     16  C         16.2810  -22.3110   -6.1350 C.2     1  UNL1        0.0490
     17  C         15.1070  -22.5000   -5.3930 C.2     1  UNL1        0.0300
     18  C         15.1360  -22.5930   -3.9980 C.2     1  UNL1        0.0020
     19  C         16.3420  -22.4980   -3.3170 C.2     1  UNL1        0.0010
     20  C         17.5190  -22.3040   -4.0340 C.2     1  UNL1        0.0180
     21  C         17.5060  -22.2020   -5.4420 C.2     1  UNL1        0.0740
     22  C         18.8120  -21.9810   -6.1590 C.3     1  UNL1        0.4190
     23  F         19.7110  -21.2930   -5.4050 F       1  UNL1       -0.1660
     24  F         19.4260  -23.1520   -6.4960 F       1  UNL1       -0.1660
     25  F         18.6950  -21.2850   -7.3240 F       1  UNL1       -0.1660
     26  N         23.0160  -23.0440  -10.7080 N.pl3   1  UNL1       -0.3400
     27  H         23.0570  -24.0610  -10.6950 H       1  UNL1        0.1670
     28  C         24.1940  -22.5150  -11.2810 C.2     1  UNL1        0.0330
     29  C         24.7560  -22.9950  -12.4700 C.2     1  UNL1        0.0290
     30  C         25.9320  -22.4350  -12.9820 C.2     1  UNL1        0.0020
     31  C         26.5620  -21.3930  -12.3060 C.2     1  UNL1        0.0000
     32  C         26.0230  -20.9140  -11.1160 C.2     1  UNL1        0.0020
     33  C         24.8490  -21.4740  -10.6070 C.2     1  UNL1        0.0290
@<TRIPOS>BOND
     1    30    29    1
     2    30    31    2
     3    29    28    2
     4    31    32    1
     5     7     6    2
     6     7     8    1
     7     6     5    1
     8    10     9    2
     9     8     9   ar
    10     8     3   ar
    11    28    26    1
    12    28    33    1
    13     9     1   ar
    14    32    33    2
    15     5    26    1
    16     5     4    2
    17    26    27    1
    18     3     4    1
    19     3     2   ar
    20     1    11    1
    21     1     2   ar
    22    11    12    1
    23    12    13    2
    24    12    14   am
    25    15    14    1
    26    14    16    1
    27    25    22    1
    28    24    22    1
    29    22    21    1
    30    22    23    1
    31    16    21    2
    32    16    17    1
    33    21    20    1
    34    17    18    2
    35    20    19    2
    36    18    19    1
