@<TRIPOS>MOLECULE
25936_out_ligand_01.pdbqt
 29 32 0 0 0
SMALL
GASTEIGER

@<TRIPOS>ATOM
      1  C         19.0430  -22.1660   -9.8870 C.2     1  UNL1        0.0670
      2  C         20.3780  -22.5600  -10.0980 C.2     1  UNL1        0.0490
      3  C         21.0390  -22.2210  -11.2800 C.2     1  UNL1        0.0360
      4  C         20.3500  -21.4840  -12.2350 C.2     1  UNL1        0.0330
      5  C         19.0200  -21.0910  -12.0150 C.2     1  UNL1        0.0580
      6  C         18.3050  -21.4100  -10.8480 C.2     1  UNL1        0.1860
      7  O         17.0860  -21.0450  -10.6690 O.2     1  UNL1       -0.2870
      8  C         18.3350  -22.5100   -8.6600 C.3     1  UNL1        0.1630
      9  O         18.8800  -22.2530   -7.4260 O.2     1  UNL1       -0.2910
     10  C         17.8850  -22.7270   -6.5800 C.2     1  UNL1        0.1040
     11  C         17.8900  -22.7190   -5.1920 C.2     1  UNL1        0.0400
     12  C         16.8230  -23.2330   -7.3400 C.2     1  UNL1        0.0690
     13  C         16.7520  -23.2640   -4.5770 C.2     1  UNL1        0.0090
     14  C         15.6710  -23.7860   -5.3180 C.2     1  UNL1       -0.0600
     15  C         14.4690  -24.3510   -4.6110 C.3     1  UNL1        0.0480
     16  C         15.6930  -23.7700   -6.7280 C.2     1  UNL1        0.0390
     17  N         17.1480  -23.0750   -8.6530 N.pl3   1  UNL1       -0.3340
     18  H         16.7530  -23.2510   -9.5950 H       1  UNL1        0.1680
     19  N         22.3710  -22.6610  -11.4280 N.am    1  UNL1       -0.3230
     20  C         23.5080  -22.0970  -10.8790 C.2     1  UNL1        0.2560
     21  O         23.5820  -21.1450  -10.1140 O.2     1  UNL1       -0.2670
     22  H         22.5040  -23.5000  -11.9760 H       1  UNL1        0.1690
     23  C         24.7660  -22.7780  -11.2930 C.2     1  UNL1        0.0380
     24  C         25.5320  -23.4180  -10.3050 C.2     1  UNL1        0.0170
     25  C         26.7090  -24.0790  -10.6510 C.2     1  UNL1        0.0010
     26  C         27.1200  -24.1090  -11.9820 C.2     1  UNL1        0.0010
     27  C         26.3560  -23.4820  -12.9690 C.2     1  UNL1        0.0070
     28  C         25.1720  -22.8040  -12.6400 C.2     1  UNL1       -0.0460
     29  C         24.3610  -22.1590  -13.7280 C.3     1  UNL1        0.0490
@<TRIPOS>BOND
     1    29    28    1
     2    27    28    1
     3    27    26    2
     4    28    23    2
     5     4     5    2
     6     4     3    1
     7     5     6    1
     8    26    25    1
     9    22    19    1
    10    19     3    1
    11    19    20   am
    12    23    20    1
    13    23    24    1
    14     3     2    2
    15    20    21    2
    16     6     7    1
    17     6     1    2
    18    25    24    2
    19     2     1    1
    20     1     8    1
    21    18    17    1
    22     8    17    1
    23     8     9    1
    24    17    12    1
    25     9    10    1
    26    12    16    1
    27    12    10    2
    28    16    14    2
    29    10    11    1
    30    14    15    1
    31    14    13    1
    32    11    13    2
