@<TRIPOS>MOLECULE
25934_out_ligand_01.pdbqt
 43 46 0 0 0
SMALL
GASTEIGER

@<TRIPOS>ATOM
      1  N         24.9320  -21.9750  -12.7910 N.pl3   1  UNL1       -0.2290
      2  C         23.7100  -21.9490  -12.3420 C.2     1  UNL1        0.1550
      3  N         22.6120  -21.4040  -12.9790 N.pl3   1  UNL1       -0.2600
      4  N         21.3220  -21.4120  -12.5540 N.2     1  UNL1       -0.1720
      5  C         21.0790  -21.9650  -11.4010 C.2     1  UNL1        0.0980
      6  C         22.1350  -22.5580  -10.5320 C.3     1  UNL1        0.0090
      7  C         21.8690  -23.0850   -9.2600 C.2     1  UNL1        0.0150
      8  C         22.9040  -23.6310   -8.4970 C.2     1  UNL1        0.0010
      9  C         24.2080  -23.6460   -8.9870 C.2     1  UNL1        0.0010
     10  C         24.4840  -23.1070  -10.2440 C.2     1  UNL1        0.0160
     11  C         23.4470  -22.5600  -11.0120 C.2     1  UNL1        0.0240
     12  H         22.7820  -20.9570  -13.8740 H       1  UNL1        0.1910
     13  C         19.6640  -21.9880  -10.9690 C.2     1  UNL1       -0.0030
     14  C         18.7020  -21.3680  -11.7640 C.2     1  UNL1        0.0140
     15  C         17.3640  -21.3950  -11.3680 C.2     1  UNL1        0.0090
     16  C         16.9630  -22.0660  -10.1960 C.2     1  UNL1       -0.0390
     17  C         15.5080  -22.0140   -9.8200 C.3     1  UNL1        0.0500
     18  C         17.9490  -22.7190   -9.4260 C.2     1  UNL1        0.0860
     19  C         19.3000  -22.6670   -9.8060 C.2     1  UNL1        0.0390
     20  S         17.5580  -23.5850   -7.9130 S.O2    1  UNL1        0.2600
     21  O         16.2520  -24.1880   -8.0680 O.2     1  UNL1       -0.2000
     22  O         18.7020  -24.4030   -7.5720 O.2     1  UNL1       -0.2000
     23  N         17.4550  -22.3990   -6.7410 N.3     1  UNL1       -0.3040
     24  H         17.1090  -21.5160   -7.1230 H       1  UNL1        0.1730
     25  C         17.1790  -22.5880   -5.2950 C.3     1  UNL1        0.0540
     26  C         18.1380  -21.6240   -4.5640 C.3     1  UNL1        0.0410
     27  C         17.4600  -24.0010   -4.7860 C.3     1  UNL1        0.0410
     28  C         15.7170  -22.1800   -4.9920 C.3     1  UNL1        0.1940
     29  O         15.5070  -22.0330   -3.5840 O.3     1  UNL1       -0.3980
     30  H         14.8920  -22.7350   -3.3070 H       1  UNL1        0.2090
     31  C         25.2290  -21.4100  -14.0340 C.2     1  UNL1        0.0600
     32  C         25.6380  -20.0820  -14.1160 C.2     1  UNL1        0.0340
     33  C         25.9170  -19.4960  -15.3550 C.2     1  UNL1        0.0400
     34  C         25.7800  -20.2320  -16.5410 C.2     1  UNL1        0.0840
     35  C         25.3470  -21.5750  -16.4650 C.2     1  UNL1        0.0670
     36  C         25.0740  -22.1460  -15.2080 C.2     1  UNL1        0.0510
     37  O         26.0510  -19.7120  -17.7840 O.2     1  UNL1       -0.3550
     38  C         25.9650  -18.3010  -17.9490 C.3     1  UNL1        0.2100
     39  C         25.1520  -22.4760  -17.6440 C.2     1  UNL1        0.2520
     40  N         23.8940  -22.6180  -18.1530 N.am    1  UNL1       -0.3660
     41  H         23.1270  -22.0500  -17.8170 H       1  UNL1        0.1590
     42  H         23.7790  -23.1720  -18.9890 H       1  UNL1        0.1590
     43  O         26.0870  -23.0830  -18.1530 O.2     1  UNL1       -0.2680
@<TRIPOS>BOND
     1    42    40    1
     2    43    39    2
     3    40    41    1
     4    40    39   am
     5    38    37    1
     6    37    34    1
     7    39    35    1
     8    34    35    2
     9    34    33    1
    10    35    36    1
    11    33    32    2
    12    36    31    2
    13    32    31    1
    14    31     1    1
    15    12     3    1
    16     3     4    1
    17     3     2    1
    18     1     2    1
    19     4     5    2
    20     2    11    2
    21    14    15    1
    22    14    13    2
    23     5    13    1
    24     5     6    1
    25    15    16    2
    26    11     6    1
    27    11    10    1
    28    13    19    1
    29     6     7    1
    30    10     9    2
    31    16    17    1
    32    16    18    1
    33    19    18    2
    34    18    20    1
    35     7     8    2
    36     9     8    1
    37    21    20    2
    38    20    22    2
    39    20    23    1
    40    24    23    1
    41    23    25    1
    42    25    28    1
    43    25    27    1
    44    25    26    1
    45    28    29    1
    46    29    30    1
