@<TRIPOS>MOLECULE
25949_out_ligand_01.pdbqt
 33 36 0 0 0
SMALL
GASTEIGER

@<TRIPOS>ATOM
      1  C         19.3980  -22.5360   -8.2990 C.2     1  UNL1        0.0980
      2  N         20.6740  -22.7590   -8.4250 N.pl3   1  UNL1       -0.1720
      3  N         21.2160  -22.5870   -9.6590 N.pl3   1  UNL1       -0.2600
      4  C         20.5800  -22.1430  -10.8010 C.2     1  UNL1        0.1550
      5  N         21.1330  -21.9060  -11.9550 N.pl3   1  UNL1       -0.2290
      6  C         19.1130  -21.9270  -10.6790 C.2     1  UNL1        0.0240
      7  C         18.3380  -21.5460  -11.7830 C.2     1  UNL1        0.0160
      8  C         16.9600  -21.3910  -11.6430 C.2     1  UNL1        0.0010
      9  C         16.3550  -21.6230  -10.4100 C.2     1  UNL1        0.0010
     10  C         17.1270  -22.0020   -9.3080 C.2     1  UNL1        0.0150
     11  C         18.5170  -22.1410   -9.4340 C.2     1  UNL1        0.0090
     12  H         22.2130  -22.7640   -9.7320 H       1  UNL1        0.1910
     13  C         22.5080  -22.1030  -12.1160 C.2     1  UNL1        0.0600
     14  C         23.1860  -23.0020  -11.2980 C.2     1  UNL1        0.0340
     15  C         24.5640  -23.1940  -11.4390 C.2     1  UNL1        0.0400
     16  C         25.2920  -22.4780  -12.4000 C.2     1  UNL1        0.0840
     17  C         24.6120  -21.5510  -13.2200 C.2     1  UNL1        0.0670
     18  C         23.2240  -21.3740  -13.0630 C.2     1  UNL1        0.0510
     19  O         26.6440  -22.6350  -12.5860 O.2     1  UNL1       -0.3550
     20  C         27.1210  -23.9190  -12.9700 C.3     1  UNL1        0.2100
     21  C         25.2570  -20.7140  -14.2800 C.2     1  UNL1        0.2520
     22  N         26.1120  -21.3160  -15.1560 N.am    1  UNL1       -0.3660
     23  H         26.5080  -20.7600  -15.8990 H       1  UNL1        0.1590
     24  H         26.2570  -22.3180  -15.1430 H       1  UNL1        0.1590
     25  O         25.0360  -19.5110  -14.3760 O.2     1  UNL1       -0.2680
     26  C         18.8280  -22.6910   -6.9410 C.2     1  UNL1       -0.0050
     27  C         18.2430  -23.9060   -6.5850 C.2     1  UNL1        0.0160
     28  C         17.7130  -24.0580   -5.3020 C.2     1  UNL1        0.0370
     29  C         17.7780  -23.0120   -4.3730 C.2     1  UNL1        0.0680
     30  C         18.3850  -21.8070   -4.7350 C.2     1  UNL1        0.0370
     31  C         18.9180  -21.6460   -6.0170 C.2     1  UNL1        0.0160
     32  O         17.2190  -23.2970   -3.1570 O.2     1  UNL1       -0.3560
     33  C         15.8750  -23.7610   -3.1580 C.3     1  UNL1        0.2100
@<TRIPOS>BOND
     1    23    22    1
     2    22    24    1
     3    22    21   am
     4    25    21    2
     5    21    17    1
     6    17    18    1
     7    17    16    2
     8    18    13    2
     9    20    19    1
    10    19    16    1
    11    16    15    1
    12    13     5    1
    13    13    14    1
    14     5     4    1
    15     7     8    2
    16     7     6    1
    17     8     9    1
    18    15    14    2
    19     4     6    2
    20     4     3    1
    21     6    11    1
    22     9    10    2
    23    12     3    1
    24     3     2    1
    25    11    10    1
    26    11     1    2
    27     2     1    1
    28     1    26    1
    29    26    27    2
    30    26    31    1
    31    27    28    1
    32    31    30    2
    33    28    29    2
    34    30    29    1
    35    29    32    1
    36    33    32    1
