@<TRIPOS>MOLECULE
25957_out_ligand_01.pdbqt
 33 37 0 0 0
SMALL
GASTEIGER

@<TRIPOS>ATOM
      1  O         22.6210  -21.5180   -7.7270 O.2     1  UNL1       -0.2820
      2  C         22.3980  -22.0340   -8.7950 C.2     1  UNL1        0.2520
      3  C         23.1290  -21.6460  -10.0810 C.2     1  UNL1        0.2950
      4  O         24.2040  -21.0850  -10.1460 O.2     1  UNL1       -0.2640
      5  N         22.3570  -22.0820  -11.1350 N.am    1  UNL1       -0.3320
      6  C         21.1810  -22.8200  -10.6910 C.3     1  UNL1        0.1690
      7  C         21.3560  -23.0110   -9.2040 C.3     1  UNL1        0.0760
      8  C         20.7070  -23.9800   -8.5180 C.2     1  UNL1        0.1950
      9  O         20.9980  -25.2130   -8.5250 O.2     1  UNL1       -0.2870
     10  C         19.5770  -23.4970   -7.6710 C.2     1  UNL1        0.0180
     11  C         19.7040  -22.3240   -6.9140 C.2     1  UNL1        0.0180
     12  C         18.6440  -21.8630   -6.1300 C.2     1  UNL1        0.0400
     13  C         17.4400  -22.5560   -6.1220 C.2     1  UNL1        0.1020
     14  C         17.2960  -23.7240   -6.8790 C.2     1  UNL1        0.1030
     15  O         16.4330  -22.0230   -5.3550 O.2     1  UNL1       -0.3460
     16  C         18.3550  -24.1870   -7.6590 C.2     1  UNL1        0.0550
     17  O         16.1350  -24.4540   -6.9150 O.2     1  UNL1       -0.3460
     18  C         15.2540  -24.0880   -5.8510 C.3     1  UNL1        0.2020
     19  C         15.1660  -22.5790   -5.7230 C.3     1  UNL1        0.2020
     20  C         19.9280  -22.0540  -11.1060 C.2     1  UNL1        0.0100
     21  C         18.6220  -22.5050  -11.0220 C.2     1  UNL1        0.0170
     22  C         17.6660  -21.5040  -11.3520 C.2     1  UNL1        0.0080
     23  C         18.2650  -20.3120  -11.6870 C.2     1  UNL1        0.0500
     24  S         19.9680  -20.4160  -11.6180 S.3     1  UNL1       -0.1040
     25  C         22.8870  -22.2460  -12.4740 C.3     1  UNL1        0.1290
     26  C         24.1350  -23.1320  -12.4950 C.3     1  UNL1        0.0400
     27  C         25.0160  -22.8670  -13.7100 C.3     1  UNL1        0.1310
     28  N         25.2780  -21.4340  -13.9060 N.pl3   1  UNL1       -0.3520
     29  C         26.1150  -20.6370  -13.1340 C.2     1  UNL1        0.1080
     30  C         26.1210  -19.3940  -13.7010 C.2     1  UNL1        0.1060
     31  N         25.2830  -19.4670  -14.7840 N.pl3   1  UNL1       -0.3610
     32  C         24.7890  -20.6990  -14.9200 C.3     1  UNL1        0.1820
     33  H         25.1210  -18.7210  -15.4560 H       1  UNL1        0.1660
@<TRIPOS>BOND
     1    33    31    1
     2    32    31    1
     3    32    28    1
     4    31    30    1
     5    28    27    1
     6    28    29    1
     7    27    26    1
     8    30    29    2
     9    26    25    1
    10    25     5    1
    11    23    24    1
    12    23    22    2
    13    24    20    1
    14    22    21    1
    15     5     6    1
    16     5     3   am
    17    20    21    2
    18    20     6    1
    19     6     7    1
    20     4     3    2
    21     3     2    1
    22     7     2    1
    23     7     8    1
    24     2     1    2
    25     9     8    2
    26     8    10    1
    27    10    16    2
    28    10    11    1
    29    16    14    1
    30    17    14    1
    31    17    18    1
    32    11    12    2
    33    14    13    2
    34    12    13    1
    35    13    15    1
    36    18    19    1
    37    19    15    1
