@<TRIPOS>MOLECULE
25966_out_ligand_01.pdbqt
 27 30 0 0 0
SMALL
GASTEIGER

@<TRIPOS>ATOM
      1  O         20.2670  -21.6990  -11.8620 O.2     1  UNL1       -0.2860
      2  C         20.2790  -22.2200  -10.7530 C.2     1  UNL1        0.1970
      3  C         21.5450  -22.5910  -10.0610 C.2     1  UNL1        0.0480
      4  C         21.4310  -23.1540   -8.8480 C.2     1  UNL1        0.1590
      5  O         20.2690  -23.4110   -8.1640 O.2     1  UNL1       -0.3200
      6  C         19.0760  -23.0870   -8.7680 C.2     1  UNL1        0.1010
      7  C         17.8860  -23.3620   -8.0620 C.3     1  UNL1        0.0520
      8  C         16.6060  -23.0930   -8.6350 C.2     1  UNL1        0.1820
      9  O         15.5110  -23.3570   -8.0330 O.2     1  UNL1       -0.2880
     10  C         16.6200  -22.5080   -9.9150 C.2     1  UNL1        0.0560
     11  C         17.7980  -22.2130  -10.6100 C.2     1  UNL1        0.0220
     12  C         19.0260  -22.5090  -10.0320 C.2     1  UNL1        0.0500
     13  C         17.9660  -24.0260   -6.6990 C.3     1  UNL1        0.2800
     14  N         17.5200  -23.1380   -5.5610 N.4     1  UNL1       -0.0670
     15  C         17.7570  -23.7080   -4.2100 C.3     1  UNL1        0.2350
     16  C         17.5360  -22.6400   -3.1530 C.3     1  UNL1        0.0280
     17  C         18.4810  -21.4520   -3.3400 C.3     1  UNL1        0.0030
     18  C         18.8810  -21.2270   -4.8000 C.3     1  UNL1        0.0280
     19  C         17.7950  -21.6810   -5.7610 C.3     1  UNL1        0.2350
     20  H         16.4730  -23.2070   -5.7210 H       1  UNL1        0.2800
     21  C         22.8710  -22.3930  -10.6760 C.2     1  UNL1       -0.0200
     22  C         23.2260  -23.0560  -11.8620 C.2     1  UNL1        0.0140
     23  C         24.4830  -22.8590  -12.4430 C.2     1  UNL1        0.0200
     24  C         25.3950  -21.9970  -11.8400 C.2     1  UNL1        0.0110
     25 BR         27.0940  -21.7290  -12.6240 Br      1  UNL1       -0.0510
     26  C         25.0650  -21.3360  -10.6600 C.2     1  UNL1        0.0200
     27  C         23.8090  -21.5350  -10.0800 C.2     1  UNL1        0.0140
@<TRIPOS>BOND
     1    25    24    1
     2    23    22    1
     3    23    24    2
     4     1     2    2
     5    22    21    2
     6    24    26    1
     7     2     3    1
     8     2    12    1
     9    21    27    1
    10    21     3    1
    11    26    27    2
    12    11    12    1
    13    11    10    2
    14     3     4    2
    15    12     6    2
    16    10     8    1
    17     4     5    1
    18     6     5    1
    19     6     7    1
    20     8     7    1
    21     8     9    2
    22     7    13    1
    23    13    14    1
    24    19    14    1
    25    19    18    1
    26    20    14    1
    27    14    15    1
    28    18    17    1
    29    15    16    1
    30    17    16    1
