@<TRIPOS>MOLECULE
25985_out_ligand_01.pdbqt
 38 42 0 0 0
SMALL
GASTEIGER

@<TRIPOS>ATOM
      1  O         19.3570  -20.3550   -5.3590 O.2     1  UNL1       -0.2440
      2  C         19.8150  -21.2640   -6.0480 C.2     1  UNL1        0.3580
      3  N         21.0620  -21.0930   -6.6000 N.am    1  UNL1       -0.1680
      4  C         21.3460  -21.7620   -7.6470 C.2     1  UNL1        0.1830
      5  C         20.4940  -22.7510   -8.2840 C.2     1  UNL1        0.0860
      6  C         20.6080  -23.2530   -9.5290 C.2     1  UNL1        0.0330
      7  C         19.3790  -23.2450   -7.4320 C.2     1  UNL1        0.2710
      8  O         18.8190  -24.3000   -7.7270 O.2     1  UNL1       -0.2660
      9  N         19.0920  -22.4450   -6.3200 N.am    1  UNL1       -0.2280
     10  O         22.5590  -21.5790   -8.1740 O.2     1  UNL1       -0.3440
     11  H         22.4740  -21.0020   -8.9520 H       1  UNL1        0.2190
     12  C         21.5860  -22.8720  -10.5520 C.2     1  UNL1       -0.0350
     13  C         21.2040  -21.9910  -11.5790 C.2     1  UNL1        0.0130
     14  C         22.1200  -21.5870  -12.5590 C.2     1  UNL1        0.0250
     15  C         23.4170  -22.0740  -12.5120 C.2     1  UNL1        0.0170
     16  C         23.7910  -22.9370  -11.4760 C.2     1  UNL1       -0.0350
     17  N         24.4930  -21.7730  -13.3740 N.pl3   1  UNL1       -0.2780
     18  C         22.9030  -23.3410  -10.4890 C.2     1  UNL1        0.0200
     19  C         25.2360  -23.2750  -11.6100 C.3     1  UNL1        0.0550
     20  C         25.4830  -22.8270  -13.0590 C.3     1  UNL1        0.1010
     21  C         24.1740  -21.5380  -14.7850 C.3     1  UNL1        0.1360
     22  C         25.0650  -20.4590  -15.3670 C.2     1  UNL1       -0.0230
     23  C         25.6000  -19.4920  -14.4930 C.2     1  UNL1        0.0100
     24  C         26.4200  -18.4660  -14.9660 C.2     1  UNL1        0.0010
     25  C         26.7200  -18.3880  -16.3220 C.2     1  UNL1        0.0020
     26  C         26.2030  -19.3370  -17.2020 C.2     1  UNL1        0.0240
     27  C         25.3800  -20.3680  -16.7310 C.2     1  UNL1        0.0410
     28 CL         24.7940  -21.5020  -17.8940 Cl      1  UNL1       -0.0840
     29  C         17.9500  -22.7610   -5.4820 C.2     1  UNL1        0.0480
     30  C         18.0910  -23.4030   -4.2410 C.2     1  UNL1        0.0300
     31  C         16.9820  -23.6910   -3.4380 C.2     1  UNL1        0.0030
     32  C         15.7030  -23.3410   -3.8570 C.2     1  UNL1        0.0160
     33  C         15.5180  -22.7060   -5.0890 C.2     1  UNL1        0.0500
     34  C         16.6450  -22.4160   -5.8840 C.2     1  UNL1        0.0460
     35  C         14.1400  -22.2920   -5.5430 C.3     1  UNL1        0.4170
     36  F         13.2720  -23.3420   -5.5710 F       1  UNL1       -0.1660
     37  F         13.5680  -21.3560   -4.7370 F       1  UNL1       -0.1660
     38  F         14.1240  -21.7610   -6.7980 F       1  UNL1       -0.1660
@<TRIPOS>BOND
     1    28    27    1
     2    26    27    1
     3    26    25    2
     4    27    22    2
     5    25    24    1
     6    22    21    1
     7    22    23    1
     8    24    23    2
     9    21    17    1
    10    17    20    1
    11    17    15    1
    12    20    19    1
    13    14    15    2
    14    14    13    1
    15    15    16    1
    16    19    16    1
    17    13    12    2
    18    16    18    2
    19    12    18    1
    20    12     6    1
    21     6     5    2
    22    11    10    1
    23     5     4    1
    24     5     7    1
    25    10     4    1
    26     8     7    2
    27     4     3    2
    28     7     9   am
    29    38    35    1
    30     3     2    1
    31     9     2   am
    32     9    29    1
    33     2     1    2
    34    34    29    2
    35    34    33    1
    36    36    35    1
    37    35    33    1
    38    35    37    1
    39    29    30    1
    40    33    32    2
    41    30    31    2
    42    32    31    1
