@<TRIPOS>MOLECULE
259_out_ligand_01.pdbqt
 40 44 0 0 0
SMALL
GASTEIGER

@<TRIPOS>ATOM
      1  N         21.2560  -22.4020  -10.9590 N.am    1  UNL1       -0.2440
      2  C         21.9800  -21.7910  -11.9910 C.2     1  UNL1        0.2670
      3  O         21.5610  -20.8780  -12.7070 O.2     1  UNL1       -0.2670
      4  C         23.3850  -22.2800  -12.1870 C.2     1  UNL1        0.0600
      5  C         23.9360  -22.1500  -13.4130 C.2     1  UNL1        0.1240
      6  C         24.0830  -22.9100  -11.0590 C.2     1  UNL1       -0.0030
      7  C         25.4840  -23.0170  -10.9760 C.2     1  UNL1        0.0130
      8  C         26.0960  -23.6240   -9.8750 C.2     1  UNL1        0.0010
      9  C         25.3210  -24.1230   -8.8360 C.2     1  UNL1        0.0010
     10  C         23.9360  -24.0010   -8.8910 C.2     1  UNL1        0.0180
     11  C         23.3180  -23.3850   -9.9940 C.2     1  UNL1        0.0440
     12  C         21.8410  -23.2560  -10.0050 C.2     1  UNL1        0.2660
     13  O         21.2240  -23.9350   -9.1850 O.2     1  UNL1       -0.2670
     14  C         19.8330  -22.1450  -10.8760 C.2     1  UNL1        0.0470
     15  C         19.1820  -21.3270  -11.8190 C.2     1  UNL1        0.0300
     16  C         17.8110  -21.0610  -11.7350 C.2     1  UNL1        0.0040
     17  C         17.0560  -21.6050  -10.7030 C.2     1  UNL1        0.0250
     18  C         17.6810  -22.4260   -9.7650 C.2     1  UNL1        0.0770
     19  C         19.0540  -22.6930   -9.8430 C.2     1  UNL1        0.0550
     20  S         16.7440  -23.0730   -8.3950 S.O2    1  UNL1        0.2460
     21  O         16.0090  -24.2290   -8.8680 O.2     1  UNL1       -0.2060
     22  O         16.0510  -21.9550   -7.7880 O.2     1  UNL1       -0.2060
     23  N         17.9220  -23.5720   -7.2960 N.pl3   1  UNL1       -0.1790
     24  H         17.7870  -24.5560   -7.0480 H       1  UNL1        0.1460
     25  C         18.1810  -22.7420   -6.1570 C.2     1  UNL1        0.0560
     26  C         19.0440  -21.6490   -6.2520 C.2     1  UNL1        0.0270
     27  C         19.2470  -20.8330   -5.1420 C.2     1  UNL1        0.0020
     28  C         18.5920  -21.1110   -3.9420 C.2     1  UNL1        0.0030
     29  C         17.7330  -22.2100   -3.8430 C.2     1  UNL1        0.0380
     30  C         17.5230  -23.0340   -4.9490 C.2     1  UNL1        0.0900
     31  O         16.7150  -24.1430   -4.9800 O.2     1  UNL1       -0.3540
     32  C         15.3210  -23.9350   -4.7880 C.3     1  UNL1        0.2100
     33  N         23.4040  -21.5460  -14.5340 N.pl3   1  UNL1       -0.1980
     34  H         22.5490  -21.0070  -14.3420 H       1  UNL1        0.1830
     35  C         23.8840  -21.4170  -15.7890 C.cat   1  UNL1        0.7230
     36  N         23.9730  -22.3420  -16.7200 N.2     1  UNL1        0.0430
     37  N         24.5350  -21.7750  -17.8420 N.2     1  UNL1       -0.1290
     38  C         24.7920  -20.5200  -17.5620 C.2     1  UNL1        0.2490
     39  N         24.3970  -20.2520  -16.2870 N.pl3   1  UNL1       -0.1810
     40  H         24.4970  -19.3810  -15.7950 H       1  UNL1        0.1850
@<TRIPOS>BOND
     1    37    38    2
     2    37    36    1
     3    38    39    1
     4    36    35    2
     5    39    40    1
     6    39    35    1
     7    35    33    1
     8    33    34    1
     9    33     5    1
    10     5     4    2
    11     3     2    2
    12     4     2    1
    13     4     6    1
    14     2     1   am
    15    15    16    1
    16    15    14    2
    17    16    17    2
    18     6     7    2
    19     6    11    1
    20     7     8    1
    21     1    14    1
    22     1    12   am
    23    14    19    1
    24    17    18    1
    25    12    11    1
    26    12    13    2
    27    11    10    2
    28     8     9    2
    29    19    18    2
    30    18    20    1
    31    10     9    1
    32    21    20    2
    33    20    22    2
    34    20    23    1
    35    23    24    1
    36    23    25    1
    37    26    25    2
    38    26    27    1
    39    25    30    1
    40    27    28    2
    41    31    30    1
    42    31    32    1
    43    30    29    2
    44    28    29    1
