@<TRIPOS>MOLECULE
25_out_ligand_01.pdbqt
 29 32 0 0 0
SMALL
GASTEIGER

@<TRIPOS>ATOM
      1  O         17.2290  -22.1920  -10.1240 O.2     1  UNL1       -0.2670
      2  C         17.9210  -22.5820   -9.1840 C.2     1  UNL1        0.2610
      3  N         19.2860  -22.9170   -9.2410 N.am    1  UNL1       -0.3130
      4  C         19.8960  -23.7650   -8.2060 C.3     1  UNL1        0.1330
      5  C         20.8990  -24.7510   -8.7770 C.3     1  UNL1        0.0250
      6  C         22.0160  -23.9840   -9.4510 C.3     1  UNL1        0.0420
      7  C         21.4700  -22.9620  -10.4120 C.2     1  UNL1       -0.0300
      8  C         22.3340  -22.4880  -11.4200 C.2     1  UNL1        0.0190
      9  C         21.9150  -21.5270  -12.3460 C.2     1  UNL1       -0.0270
     10  C         20.6150  -21.0310  -12.2350 C.2     1  UNL1        0.0120
     11  C         19.7560  -21.4860  -11.2270 C.2     1  UNL1        0.0310
     12  C         20.1550  -22.4600  -10.3020 C.2     1  UNL1        0.0430
     13  C         22.8570  -21.0330  -13.4270 C.3     1  UNL1        0.1790
     14  O         22.1660  -20.0780  -14.2390 O.3     1  UNL1       -0.3890
     15  H         22.6430  -20.0150  -15.0840 H       1  UNL1        0.2100
     16  C         23.4060  -22.1970  -14.2950 C.3     1  UNL1        0.3090
     17  N         24.8580  -22.3870  -14.4420 N.3     1  UNL1        0.0950
     18  C         25.6210  -22.4580  -13.1880 C.3     1  UNL1        0.2980
     19  C         25.8670  -23.8760  -12.6460 C.3     1  UNL1        0.1980
     20  O         26.4230  -24.7330  -13.6520 O.3     1  UNL1       -0.3880
     21  C         25.5370  -24.8160  -14.7720 C.3     1  UNL1        0.1980
     22  C         25.2720  -23.4330  -15.3860 C.3     1  UNL1        0.2980
     23  C         17.1950  -22.7480   -7.9070 C.2     1  UNL1        0.0710
     24  C         17.6340  -22.0430   -6.7800 C.2     1  UNL1        0.0200
     25  C         16.9800  -22.2130   -5.5580 C.2     1  UNL1        0.0010
     26  C         15.9010  -23.0940   -5.4580 C.2     1  UNL1        0.0030
     27  C         15.4800  -23.8140   -6.5770 C.2     1  UNL1        0.0430
     28  C         16.1350  -23.6440   -7.7950 C.2     1  UNL1        0.1320
     29  F         15.7220  -24.3600   -8.8510 F       1  UNL1       -0.2050
@<TRIPOS>BOND
     1    22    21    1
     2    22    17    1
     3    15    14    1
     4    21    20    1
     5    17    16    1
     6    17    18    1
     7    16    13    1
     8    14    13    1
     9    20    19    1
    10    13     9    1
    11    18    19    1
    12     9    10    2
    13     9     8    1
    14    10    11    1
    15     8     7    2
    16    11    12    2
    17     7    12    1
    18     7     6    1
    19    12     3    1
    20     1     2    2
    21     6     5    1
    22     3     2   am
    23     3     4    1
    24     2    23    1
    25    29    28    1
    26     5     4    1
    27    23    28    2
    28    23    24    1
    29    28    27    1
    30    24    25    2
    31    27    26    2
    32    25    26    1
