@<TRIPOS>MOLECULE
26006_out_ligand_01.pdbqt
 35 39 0 0 0
SMALL
GASTEIGER

@<TRIPOS>ATOM
      1  O         22.6190  -21.4050  -14.4120 O.2     1  UNL1       -0.2440
      2  C         22.6620  -21.6480  -13.2060 C.2     1  UNL1        0.3580
      3  N         21.6000  -21.2510  -12.4320 N.am    1  UNL1       -0.1680
      4  C         21.5120  -21.6900  -11.2370 C.2     1  UNL1        0.1830
      5  C         22.4710  -22.5480  -10.5580 C.2     1  UNL1        0.0860
      6  C         22.3250  -23.1830   -9.3790 C.2     1  UNL1        0.0330
      7  C         23.7600  -22.7190  -11.2730 C.2     1  UNL1        0.2710
      8  O         24.7600  -23.0980  -10.6620 O.2     1  UNL1       -0.2660
      9  N         23.7360  -22.3380  -12.6170 N.am    1  UNL1       -0.2250
     10  C         21.1440  -23.1870   -8.5170 C.2     1  UNL1       -0.0350
     11  C         20.2080  -24.2130   -8.5930 C.2     1  UNL1        0.0130
     12  C         19.0830  -24.2090   -7.7550 C.2     1  UNL1        0.0310
     13  C         18.8440  -23.1840   -6.8210 C.2     1  UNL1        0.0360
     14  C         19.8240  -22.1650   -6.7390 C.2     1  UNL1       -0.0310
     15  N         17.7290  -23.1820   -5.9570 N.pl3   1  UNL1       -0.3760
     16  C         20.9510  -22.1670   -7.5870 C.2     1  UNL1        0.0210
     17  C         19.6830  -21.0080   -5.7810 C.3     1  UNL1        0.0420
     18  C         18.6290  -21.2690   -4.7250 C.3     1  UNL1        0.0240
     19  C         17.4020  -21.8620   -5.3910 C.3     1  UNL1        0.1230
     20  C         16.5840  -24.0610   -6.2520 C.3     1  UNL1        0.1610
     21  C         16.0530  -23.8810   -7.6620 C.2     1  UNL1       -0.0400
     22  C         15.5550  -24.9820   -8.3770 C.2     1  UNL1        0.0090
     23  C         15.0790  -24.8270   -9.6800 C.2     1  UNL1        0.0010
     24  C         15.1030  -23.5710  -10.2840 C.2     1  UNL1        0.0000
     25  C         15.6030  -22.4720   -9.5870 C.2     1  UNL1        0.0010
     26  C         16.0780  -22.6240   -8.2830 C.2     1  UNL1        0.0090
     27  O         20.4560  -21.2860  -10.5280 O.2     1  UNL1       -0.3440
     28  H         20.7730  -20.9190   -9.6850 H       1  UNL1        0.2190
     29  C         24.8850  -22.6570  -13.4240 C.2     1  UNL1        0.0860
     30  C         25.0670  -23.9440  -13.9570 C.2     1  UNL1        0.0330
     31  C         26.1750  -24.2340  -14.7620 C.2     1  UNL1        0.0020
     32  C         27.1210  -23.2480  -15.0390 C.2     1  UNL1        0.0030
     33  C         26.9670  -21.9740  -14.5010 C.2     1  UNL1        0.0440
     34  C         25.8620  -21.6880  -13.7010 C.2     1  UNL1        0.1430
     35  F         25.8010  -20.4770  -13.1260 F       1  UNL1       -0.2040
@<TRIPOS>BOND
     1    32    31    2
     2    32    33    1
     3    31    30    1
     4    33    34    2
     5     1     2    2
     6    30    29    2
     7    34    29    1
     8    34    35    1
     9    29     9    1
    10     2     9   am
    11     2     3    1
    12     9     7   am
    13     3     4    2
    14     7     8    2
    15     7     5    1
    16     4     5    1
    17     4    27    1
    18     5     6    2
    19    27    28    1
    20    24    23    2
    21    24    25    1
    22    23    22    1
    23    25    26    2
    24     6    10    1
    25    11    10    2
    26    11    12    1
    27    10    16    1
    28    22    21    2
    29    26    21    1
    30    12    13    2
    31    21    20    1
    32    16    14    2
    33    13    14    1
    34    13    15    1
    35    14    17    1
    36    20    15    1
    37    15    19    1
    38    17    18    1
    39    19    18    1
