@<TRIPOS>MOLECULE
26041_out_ligand_01.pdbqt
 33 37 0 0 0
SMALL
GASTEIGER

@<TRIPOS>ATOM
      1  C         20.8900  -22.4800  -10.4140 C.2     1  UNL1        0.1220
      2  N         20.9190  -21.8930  -11.5800 N.2     1  UNL1       -0.2500
      3  C         19.7330  -21.3560  -12.0470 C.2     1  UNL1        0.1370
      4  C         18.5800  -21.3930  -11.3630 C.2     1  UNL1        0.1380
      5  N         18.5520  -22.0030  -10.1210 N.pl3   1  UNL1       -0.2400
      6  N         17.5070  -22.1410   -9.2790 N.2     1  UNL1       -0.1670
      7  C         17.9890  -22.8170   -8.2260 C.2     1  UNL1        0.0910
      8  C         19.3720  -23.0870   -8.3840 C.2     1  UNL1        0.0690
      9  C         19.7020  -22.5650   -9.6130 C.2     1  UNL1        0.0950
     10  S         22.3150  -23.2340   -9.7470 S.3     1  UNL1       -0.0990
     11  C         23.4340  -21.8180   -9.5940 C.3     1  UNL1        0.1840
     12  C         24.3400  -21.7070  -10.8120 C.2     1  UNL1        0.2310
     13  N         24.0180  -22.6080  -11.8130 N.am    1  UNL1       -0.3260
     14  H         23.1780  -23.1630  -11.6530 H       1  UNL1        0.1690
     15  O         25.2510  -20.8840  -10.8440 O.2     1  UNL1       -0.2720
     16  C         24.6470  -22.7820  -13.0610 C.2     1  UNL1        0.0350
     17  C         25.4200  -23.9370  -13.2270 C.2     1  UNL1        0.0290
     18  C         26.0720  -24.1880  -14.4330 C.2     1  UNL1        0.0040
     19  C         25.9590  -23.2810  -15.4850 C.2     1  UNL1        0.0180
     20  C         25.2020  -22.1140  -15.3380 C.2     1  UNL1        0.0020
     21  C         24.5390  -21.8800  -14.1250 C.2     1  UNL1        0.0480
     22  S         25.0960  -21.0140  -16.7450 S.3     1  UNL1       -0.1340
     23  C         24.7880  -22.1760  -18.1030 C.3     1  UNL1        0.0950
     24  C         17.1440  -23.1460   -7.0770 C.2     1  UNL1        0.0050
     25  C         16.0600  -24.0120   -7.3040 C.2     1  UNL1        0.0150
     26  C         15.1790  -24.3310   -6.2780 C.2     1  UNL1        0.0020
     27  C         15.3720  -23.7880   -5.0110 C.2     1  UNL1        0.0120
     28  C         16.4540  -22.9350   -4.7460 C.2     1  UNL1       -0.0250
     29  C         16.6310  -22.4130   -3.4530 C.2     1  UNL1        0.0120
     30  C         17.3710  -22.6050   -5.7780 C.2     1  UNL1       -0.0130
     31  C         17.7060  -21.5800   -3.1530 C.2     1  UNL1        0.0010
     32  C         18.6250  -21.2610   -4.1420 C.2     1  UNL1        0.0010
     33  C         18.4630  -21.7680   -5.4330 C.2     1  UNL1        0.0130
@<TRIPOS>BOND
     1    23    22    1
     2    22    20    1
     3    19    20    2
     4    19    18    1
     5    20    21    1
     6    18    17    2
     7    21    16    2
     8    17    16    1
     9    16    13    1
    10     3     2    1
    11     3     4    2
    12    13    14    1
    13    13    12   am
    14     2     1    2
    15     4     5    1
    16    15    12    2
    17    12    11    1
    18     1    10    1
    19     1     9    1
    20     5     9    1
    21     5     6    1
    22    10    11    1
    23     9     8    2
    24     6     7    2
    25     8     7    1
    26     7    24    1
    27    25    24    2
    28    25    26    1
    29    24    30    1
    30    26    27    2
    31    30    33    1
    32    30    28    2
    33    33    32    2
    34    27    28    1
    35    28    29    1
    36    32    31    1
    37    29    31    2
