@<TRIPOS>MOLECULE
26088_out_ligand_01.pdbqt
 35 37 0 0 0
SMALL
GASTEIGER

@<TRIPOS>ATOM
      1  C         19.5490  -21.8940  -11.2400 C.2     1  UNL1        0.0320
      2  C         20.2890  -22.7310  -10.3980 C.2     1  UNL1        0.0190
      3  C         21.6580  -22.9170  -10.6110 C.2     1  UNL1        0.0300
      4  C         22.3150  -22.2620  -11.6620 C.2     1  UNL1        0.0340
      5  C         21.5770  -21.4110  -12.4890 C.2     1  UNL1        0.0300
      6  C         20.2040  -21.2230  -12.2800 C.2     1  UNL1        0.0190
      7  C         18.0910  -21.7340  -10.9770 C.2     1  UNL1        0.2520
      8  N         17.4660  -22.7590  -10.3060 N.am    1  UNL1       -0.3480
      9  H         18.0210  -23.4690   -9.8410 H       1  UNL1        0.1630
     10  O         17.5070  -20.7170  -11.3330 O.2     1  UNL1       -0.2680
     11  C         16.0980  -22.6400   -9.8380 C.3     1  UNL1        0.2260
     12  C         15.9970  -23.1730   -8.4040 C.2     1  UNL1        0.2390
     13  N         16.2540  -22.1960   -7.4590 N.am    1  UNL1       -0.3250
     14  H         16.4510  -21.2740   -7.8230 H       1  UNL1        0.1690
     15  O         15.6690  -24.3390   -8.1940 O.2     1  UNL1       -0.2710
     16  C         16.2930  -22.3300   -6.0510 C.2     1  UNL1        0.0410
     17  C         15.1410  -22.6050   -5.2960 C.2     1  UNL1        0.0300
     18  C         15.2070  -22.7630   -3.9090 C.2     1  UNL1        0.0020
     19  C         16.4250  -22.6490   -3.2530 C.2     1  UNL1        0.0010
     20  C         17.5770  -22.3690   -3.9830 C.2     1  UNL1        0.0090
     21  C         17.5300  -22.2010   -5.3810 C.2     1  UNL1       -0.0320
     22  C         18.8350  -21.8980   -6.0880 C.3     1  UNL1        0.0360
     23  C         19.5590  -20.7060   -5.4820 C.3     1  UNL1        0.0100
     24  N         23.6940  -22.5070  -11.8110 N.am    1  UNL1       -0.3270
     25  C         24.7400  -21.8900  -11.1540 C.2     1  UNL1        0.2310
     26  O         24.6340  -21.0390  -10.2710 O.2     1  UNL1       -0.2720
     27  H         23.9530  -23.1370  -12.5620 H       1  UNL1        0.1690
     28  C         26.1300  -22.4020  -11.5130 C.3     1  UNL1        0.1850
     29  S         26.6860  -22.0610  -13.2070 S.3     1  UNL1       -0.0800
     30  C         26.0900  -23.4620  -14.0180 C.ar    1  UNL1        0.1980
     31  N         25.6470  -24.5570  -13.4460 N.ar    1  UNL1       -0.1350
     32  N         25.2960  -25.3950  -14.4770 N.ar    1  UNL1        0.0180
     33  N         25.5230  -24.8260  -15.6550 N.ar    1  UNL1       -0.0030
     34  N         26.0310  -23.6160  -15.3720 N.ar    1  UNL1       -0.2590
     35  C         26.4150  -22.7160  -16.4220 C.3     1  UNL1        0.1770
@<TRIPOS>BOND
     1    35    34    1
     2    33    34   ar
     3    33    32   ar
     4    34    30   ar
     5    32    31   ar
     6    30    31   ar
     7    30    29    1
     8    29    28    1
     9    27    24    1
    10     5     6    1
    11     5     4    2
    12     6     1    2
    13    24     4    1
    14    24    25   am
    15     4     3    1
    16    28    25    1
    17    10     7    2
    18     1     7    1
    19     1     2    1
    20    25    26    2
    21     7     8   am
    22     3     2    2
    23     8     9    1
    24     8    11    1
    25    11    12    1
    26    12    15    2
    27    12    13   am
    28    14    13    1
    29    13    16    1
    30    22    23    1
    31    22    21    1
    32    16    21    2
    33    16    17    1
    34    21    20    1
    35    17    18    2
    36    20    19    2
    37    18    19    1
