@<TRIPOS>MOLECULE
26087_out_ligand_01.pdbqt
 32 35 0 0 0
SMALL
GASTEIGER

@<TRIPOS>ATOM
      1  N         24.0820  -23.2630  -10.7610 N.am    1  UNL1       -0.3530
      2  C         23.2460  -22.4940   -9.9840 C.2     1  UNL1        0.2220
      3  O         23.5580  -21.3820   -9.5690 O.2     1  UNL1       -0.2730
      4  H         23.8150  -24.2010  -11.0260 H       1  UNL1        0.1630
      5  C         25.3420  -22.7580  -11.2830 C.3     1  UNL1        0.1130
      6  C         26.5140  -23.5430  -10.6950 C.3     1  UNL1        0.0370
      7  C         25.2500  -22.7570  -12.8020 C.2     1  UNL1       -0.0360
      8  C         24.4250  -21.7980  -13.4190 C.2     1  UNL1        0.0110
      9  C         24.2330  -21.7920  -14.8010 C.2     1  UNL1        0.0250
     10  C         24.8730  -22.7540  -15.5830 C.2     1  UNL1        0.0740
     11  C         25.6930  -23.7180  -14.9950 C.2     1  UNL1        0.0250
     12  C         25.8790  -23.7180  -13.6100 C.2     1  UNL1        0.0110
     13  S         24.5620  -22.8000  -17.3230 S.O2    1  UNL1        0.2390
     14  O         25.7780  -23.1690  -18.0130 O.2     1  UNL1       -0.2060
     15  O         23.3070  -23.4750  -17.5610 O.2     1  UNL1       -0.2060
     16  N         24.3020  -21.1820  -17.6800 N.3     1  UNL1       -0.2250
     17  H         24.0890  -20.6650  -16.8270 H       1  UNL1        0.1360
     18  H         23.5900  -21.0950  -18.4060 H       1  UNL1        0.1360
     19  C         21.8910  -23.1280   -9.6960 C.3     1  UNL1        0.1440
     20  C         20.7930  -22.3760  -10.3760 C.2     1  UNL1       -0.0130
     21  C         20.9820  -21.5670  -11.4820 C.2     1  UNL1        0.1510
     22  O         19.8120  -21.0560  -11.9200 O.2     1  UNL1       -0.3210
     23  C         18.8380  -21.5370  -11.1070 C.2     1  UNL1        0.0860
     24  C         17.4850  -21.2560  -11.2700 C.2     1  UNL1        0.0390
     25  C         19.3750  -22.3450  -10.1040 C.2     1  UNL1        0.0170
     26  C         16.6060  -21.8440  -10.3610 C.2     1  UNL1        0.0150
     27  C         17.0630  -22.6570   -9.3170 C.2     1  UNL1       -0.0250
     28  C         16.1480  -23.2300   -8.4200 C.2     1  UNL1        0.0120
     29  C         18.4570  -22.9090   -9.1540 C.2     1  UNL1       -0.0120
     30  C         16.5820  -24.0290   -7.3630 C.2     1  UNL1        0.0010
     31  C         17.9420  -24.2530   -7.1770 C.2     1  UNL1        0.0010
     32  C         18.8700  -23.6990   -8.0610 C.2     1  UNL1        0.0130
@<TRIPOS>BOND
     1    18    16    1
     2    14    13    2
     3    16    13    1
     4    16    17    1
     5    15    13    2
     6    13    10    1
     7    10    11    2
     8    10     9    1
     9    11    12    1
    10     9     8    2
    11    12     7    2
    12     8     7    1
    13     7     5    1
    14    22    21    1
    15    22    23    1
    16    21    20    2
    17     5     1    1
    18     5     6    1
    19    24    23    2
    20    24    26    1
    21    23    25    1
    22     4     1    1
    23     1     2   am
    24    20    25    1
    25    20    19    1
    26    26    27    2
    27    25    29    2
    28     2    19    1
    29     2     3    2
    30    27    29    1
    31    27    28    1
    32    29    32    1
    33    28    30    2
    34    32    31    2
    35    30    31    1
