@<TRIPOS>MOLECULE
26096_out_ligand_01.pdbqt
 33 36 0 0 0
SMALL
GASTEIGER

@<TRIPOS>ATOM
      1  C         19.9170  -23.1330   -9.9090 C.2     1  UNL1        0.2520
      2  O         19.6720  -24.3330   -9.8670 O.2     1  UNL1       -0.2680
      3  N         18.9480  -22.1540   -9.8630 N.am    1  UNL1       -0.3490
      4  H         19.2210  -21.1870   -9.7590 H       1  UNL1        0.1630
      5  C         21.3240  -22.6550   -9.9700 C.2     1  UNL1        0.0330
      6  C         22.0600  -22.4010   -8.8080 C.2     1  UNL1        0.0190
      7  C         23.3850  -21.9570   -8.8790 C.2     1  UNL1        0.0310
      8  C         23.9420  -21.7750  -10.1500 C.ar    1  UNL1        0.0430
      9  N         25.2050  -21.3560  -10.5120 N.ar    1  UNL1       -0.3580
     10  C         23.2270  -22.0060  -11.3280 C.ar    1  UNL1       -0.0000
     11  C         25.3100  -21.3280  -11.8730 C.ar    1  UNL1        0.0170
     12  H         25.9390  -21.1110   -9.8630 H       1  UNL1        0.1660
     13  C         26.5200  -20.9140  -12.6320 C.3     1  UNL1        0.0580
     14  C         24.1020  -21.7160  -12.4120 C.ar    1  UNL1       -0.0230
     15  C         26.3840  -21.3520  -14.1030 C.3     1  UNL1        0.0100
     16  C         24.9740  -21.0580  -14.6730 C.3     1  UNL1       -0.0140
     17  C         24.9060  -21.4190  -16.1540 C.3     1  UNL1        0.0100
     18  C         23.8720  -21.8120  -13.8840 C.3     1  UNL1        0.0450
     19  C         21.8930  -22.4450  -11.2360 C.2     1  UNL1        0.0310
     20  C         17.5370  -22.4850   -9.7580 C.3     1  UNL1        0.1140
     21  C         16.6800  -21.4930  -10.5490 C.3     1  UNL1        0.0370
     22  C         17.1490  -22.5760   -8.2900 C.2     1  UNL1       -0.0360
     23  C         15.8680  -22.9850   -7.8800 C.2     1  UNL1        0.0110
     24  C         15.5390  -23.0410   -6.5230 C.2     1  UNL1        0.0250
     25  C         16.4870  -22.6710   -5.5680 C.2     1  UNL1        0.0740
     26  C         17.7630  -22.2590   -5.9520 C.2     1  UNL1        0.0250
     27  C         18.0850  -22.2040   -7.3090 C.2     1  UNL1        0.0110
     28  S         16.0650  -22.7580   -3.8470 S.O2    1  UNL1        0.2390
     29  O         16.2810  -24.1110   -3.3880 O.2     1  UNL1       -0.2060
     30  O         14.8210  -22.0570   -3.6440 O.2     1  UNL1       -0.2060
     31  N         17.2990  -21.8450   -3.1530 N.3     1  UNL1       -0.2250
     32  H         17.2260  -20.8860   -3.4940 H       1  UNL1        0.1360
     33  H         17.3060  -21.8890   -2.1350 H       1  UNL1        0.1360
@<TRIPOS>BOND
     1    17    16    1
     2    16    15    1
     3    16    18    1
     4    15    13    1
     5    18    14    1
     6    13    11    1
     7    14    11   ar
     8    14    10   ar
     9    11     9   ar
    10    10    19    1
    11    10     8   ar
    12    19     5    2
    13    21    20    1
    14     9     8   ar
    15     9    12    1
    16     8     7    1
    17     5     1    1
    18     5     6    1
    19     1     2    2
    20     1     3   am
    21     3     4    1
    22     3    20    1
    23    20    22    1
    24     7     6    2
    25    22    23    2
    26    22    27    1
    27    23    24    1
    28    27    26    2
    29    24    25    2
    30    26    25    1
    31    25    28    1
    32    28    30    2
    33    28    29    2
    34    28    31    1
    35    32    31    1
    36    31    33    1
