@<TRIPOS>MOLECULE
26092_out_ligand_01.pdbqt
 30 33 0 0 0
SMALL
GASTEIGER

@<TRIPOS>ATOM
      1  N         20.9720  -22.6350   -9.1960 N.am    1  UNL1       -0.3200
      2  C         20.5010  -23.8450   -8.7120 C.2     1  UNL1        0.2220
      3  O         20.8550  -24.9670   -9.0560 O.2     1  UNL1       -0.2730
      4  H         20.6420  -21.7800   -8.7490 H       1  UNL1        0.1690
      5  C         21.8570  -22.4240  -10.2450 C.ar    1  UNL1        0.0930
      6  C         21.5430  -21.8330  -11.4670 C.ar    1  UNL1        0.0720
      7  C         22.6960  -21.8500  -12.3510 C.ar    1  UNL1       -0.0260
      8  C         23.8040  -22.3900  -11.7210 C.ar    1  UNL1       -0.0080
      9  C         22.7820  -21.3750  -13.7770 C.3     1  UNL1        0.0410
     10  S         23.4800  -22.9010  -10.1390 S.2     1  UNL1       -0.0750
     11  C         25.1580  -22.5830  -12.3350 C.3     1  UNL1        0.0470
     12  C         25.2830  -21.7720  -13.6310 C.3     1  UNL1        0.0050
     13  C         24.0270  -21.9110  -14.4990 C.3     1  UNL1        0.0050
     14  C         20.1940  -21.3180  -11.7220 C.2     1  UNL1        0.2520
     15  N         20.0610  -19.9690  -11.8840 N.am    1  UNL1       -0.3660
     16  H         19.1070  -19.6330  -11.8800 H       1  UNL1        0.1590
     17  H         20.7610  -19.3460  -11.5080 H       1  UNL1        0.1590
     18  O         19.1900  -22.0310  -11.7200 O.2     1  UNL1       -0.2680
     19  C         19.5280  -23.6420   -7.5600 C.3     1  UNL1        0.1080
     20  C         19.3700  -22.1750   -7.1660 C.3     1  UNL1        0.0500
     21  C         18.5190  -21.9960   -5.9440 C.2     1  UNL1       -0.0300
     22  C         18.8390  -21.2270   -4.8410 C.2     1  UNL1        0.0960
     23  N         17.8160  -21.3230   -3.9370 N.pl3   1  UNL1       -0.3650
     24  C         16.8270  -22.1440   -4.4230 C.2     1  UNL1        0.0420
     25  H         17.7910  -20.8690   -3.0340 H       1  UNL1        0.1650
     26  C         15.6100  -22.5300   -3.8440 C.2     1  UNL1        0.0300
     27  C         17.2380  -22.5820   -5.6830 C.2     1  UNL1       -0.0020
     28  C         14.7880  -23.3920   -4.5760 C.2     1  UNL1        0.0020
     29  C         15.1670  -23.8430   -5.8370 C.2     1  UNL1        0.0010
     30  C         16.3870  -23.4470   -6.3990 C.2     1  UNL1        0.0140
@<TRIPOS>BOND
     1    13     9    1
     2    13    12    1
     3     9     7    1
     4    12    11    1
     5     7     8   ar
     6     7     6   ar
     7    11     8    1
     8    15    16    1
     9    15    14   am
    10    15    17    1
    11    14    18    2
    12    14     6    1
    13     8    10   ar
    14     6     5   ar
    15     5    10   ar
    16     5     1    1
    17     1     4    1
    18     1     2   am
    19     3     2    2
    20     2    19    1
    21    19    20    1
    22    20    21    1
    23    30    29    2
    24    30    27    1
    25    21    27    1
    26    21    22    2
    27    29    28    1
    28    27    24    2
    29    22    23    1
    30    28    26    2
    31    24    23    1
    32    24    26    1
    33    23    25    1
