@<TRIPOS>MOLECULE
26103_out_ligand_01.pdbqt
 35 38 0 0 0
SMALL
GASTEIGER

@<TRIPOS>ATOM
      1  N         16.4520  -24.7740   -5.9850 N.1     1  UNL1       -0.1910
      2  C         17.2470  -23.9280   -6.0010 C.1     1  UNL1        0.1010
      3  C         18.2200  -22.8730   -5.9990 C.2     1  UNL1        0.0610
      4  C         18.1460  -21.9090   -4.9800 C.2     1  UNL1        0.0240
      5  C         19.0800  -20.8760   -4.9120 C.2     1  UNL1        0.0020
      6  C         20.1000  -20.8030   -5.8540 C.2     1  UNL1        0.0010
      7  C         20.1820  -21.7570   -6.8700 C.2     1  UNL1        0.0200
      8  C         19.2370  -22.7900   -6.9660 C.2     1  UNL1        0.0260
      9  S         19.4190  -23.9610   -8.3160 S.3     1  UNL1       -0.0880
     10  C         19.0850  -22.8990   -9.7220 C.2     1  UNL1        0.0210
     11  C         17.7460  -22.5350   -9.9420 C.2     1  UNL1        0.0200
     12  C         17.3990  -21.6650  -10.9780 C.2     1  UNL1        0.0010
     13  C         18.3840  -21.1450  -11.8140 C.2     1  UNL1        0.0010
     14  C         19.7160  -21.5100  -11.6250 C.2     1  UNL1        0.0180
     15  C         20.0680  -22.3990  -10.5950 C.2     1  UNL1        0.0490
     16  C         21.5070  -22.7550  -10.5030 C.2     1  UNL1        0.2570
     17  O         21.8520  -23.5320   -9.6220 O.2     1  UNL1       -0.2670
     18  N         22.3170  -22.1050  -11.4130 N.am    1  UNL1       -0.3230
     19  H         21.8600  -21.4600  -12.0490 H       1  UNL1        0.1690
     20  C         23.7120  -22.2260  -11.5610 C.2     1  UNL1        0.0360
     21  C         24.6430  -21.4800  -10.8350 C.2     1  UNL1        0.0290
     22  C         26.0170  -21.6580  -11.0380 C.2     1  UNL1        0.0040
     23  C         26.4740  -22.5780  -11.9780 C.2     1  UNL1        0.0250
     24  C         25.5450  -23.3150  -12.7160 C.2     1  UNL1        0.0820
     25  C         24.1730  -23.1600  -12.4950 C.2     1  UNL1        0.0540
     26  S         26.1100  -24.5130  -13.8950 S.O2    1  UNL1        0.2640
     27  O         27.1130  -25.3260  -13.2350 O.2     1  UNL1       -0.2000
     28  O         24.9700  -25.1270  -14.5350 O.2     1  UNL1       -0.2000
     29  N         26.9540  -23.6000  -15.0000 N.3     1  UNL1       -0.2680
     30  H         27.9590  -23.6980  -14.8860 H       1  UNL1        0.1800
     31  C         26.4280  -22.7570  -15.9710 C.3     1  UNL1        0.1080
     32  N         26.3170  -23.0610  -17.2200 N.3     1  UNL1       -0.2760
     33  C         25.7150  -21.8690  -17.8530 C.3     1  UNL1        0.1510
     34  C         25.0480  -21.1020  -16.7230 C.3     1  UNL1        0.0290
     35  C         25.9490  -21.4060  -15.5500 C.3     1  UNL1        0.0800
@<TRIPOS>BOND
     1    33    32    1
     2    33    34    1
     3    32    31    1
     4    34    35    1
     5    31    35    1
     6    31    29    1
     7    29    30    1
     8    29    26    1
     9    28    26    2
    10    26    27    2
    11    26    24    1
    12    24    25    1
    13    24    23    2
    14    25    20    2
    15    19    18    1
    16    23    22    1
    17    13    14    2
    18    13    12    1
    19    14    15    1
    20    20    18    1
    21    20    21    1
    22    18    16   am
    23    22    21    2
    24    12    11    2
    25    15    16    1
    26    15    10    2
    27    16    17    2
    28    11    10    1
    29    10     9    1
    30     9     8    1
    31     8     7    1
    32     8     3    2
    33     7     6    2
    34     2     3    1
    35     2     1    3
    36     3     4    1
    37     6     5    1
    38     4     5    2
