@<TRIPOS>MOLECULE
26106_out_ligand_01.pdbqt
 32 35 0 0 0
SMALL
GASTEIGER

@<TRIPOS>ATOM
      1  C         24.4000  -22.6290  -11.4300 C.2     1  UNL1        0.0360
      2  C         25.4180  -21.7120  -11.1550 C.2     1  UNL1        0.0290
      3  C         26.5150  -21.5820  -12.0140 C.2     1  UNL1        0.0040
      4  C         26.6080  -22.3710  -13.1580 C.2     1  UNL1        0.0250
      5  C         25.6050  -23.3020  -13.4260 C.2     1  UNL1        0.0820
      6  C         24.4970  -23.4220  -12.5790 C.2     1  UNL1        0.0540
      7  N         23.2520  -22.7950  -10.6270 N.am    1  UNL1       -0.3230
      8  C         23.1740  -23.4300   -9.4000 C.2     1  UNL1        0.2560
      9  O         24.0680  -24.0430   -8.8300 O.2     1  UNL1       -0.2670
     10  H         22.3850  -22.4650  -11.0260 H       1  UNL1        0.1690
     11  C         21.8290  -23.3810   -8.7580 C.2     1  UNL1        0.0320
     12  C         21.5070  -22.2760   -7.9640 C.2     1  UNL1        0.0180
     13  C         20.2540  -22.1970   -7.3470 C.2     1  UNL1        0.0130
     14  C         19.2960  -23.2100   -7.5180 C.2     1  UNL1       -0.0260
     15  C         19.6290  -24.3040   -8.3350 C.2     1  UNL1        0.0130
     16  C         20.8810  -24.3900   -8.9550 C.2     1  UNL1        0.0180
     17  C         17.9760  -23.1230   -6.8700 C.2     1  UNL1       -0.0260
     18  C         16.8760  -22.5650   -7.5430 C.2     1  UNL1        0.0120
     19  C         15.6220  -22.4830   -6.9300 C.2     1  UNL1        0.0010
     20  C         15.4490  -22.9580   -5.6330 C.2     1  UNL1        0.0000
     21  C         16.5250  -23.5140   -4.9480 C.2     1  UNL1        0.0010
     22  C         17.7780  -23.5960   -5.5620 C.2     1  UNL1        0.0120
     23  S         25.6870  -24.2870  -14.8970 S.O2    1  UNL1        0.2640
     24  O         27.0350  -24.1640  -15.4180 O.2     1  UNL1       -0.2000
     25  O         25.1170  -25.5890  -14.6400 O.2     1  UNL1       -0.2000
     26  N         24.7350  -23.4560  -15.9800 N.3     1  UNL1       -0.2680
     27  H         23.8120  -23.8700  -16.0740 H       1  UNL1        0.1800
     28  C         25.0640  -22.2850  -16.6540 C.3     1  UNL1        0.1080
     29  N         25.5960  -22.2450  -17.8280 N.3     1  UNL1       -0.2760
     30  C         25.7360  -20.8080  -18.1400 C.3     1  UNL1        0.1510
     31  C         25.6680  -20.0890  -16.8030 C.3     1  UNL1        0.0290
     32  C         24.7520  -20.9780  -15.9980 C.3     1  UNL1        0.0800
@<TRIPOS>BOND
     1    30    29    1
     2    30    31    1
     3    29    28    1
     4    31    32    1
     5    28    32    1
     6    28    26    1
     7    27    26    1
     8    26    23    1
     9    24    23    2
    10    23    25    2
    11    23     5    1
    12     5     4    2
    13     5     6    1
    14     4     3    1
    15     6     1    2
    16     3     2    2
    17     1     2    1
    18     1     7    1
    19    10     7    1
    20     7     8   am
    21     8     9    2
    22     8    11    1
    23    16    11    2
    24    16    15    1
    25    11    12    1
    26    15    14    2
    27    12    13    2
    28    18    19    1
    29    18    17    2
    30    14    13    1
    31    14    17    1
    32    19    20    2
    33    17    22    1
    34    20    21    1
    35    22    21    2
