@<TRIPOS>MOLECULE
26111_out_ligand_01.pdbqt
 37 41 0 0 0
SMALL
GASTEIGER

@<TRIPOS>ATOM
      1  C         19.2340  -22.5800  -10.2910 C.2     1  UNL1        0.0330
      2  C         18.4000  -21.6920  -10.9880 C.2     1  UNL1        0.0170
      3  C         17.0570  -21.5470  -10.6310 C.2     1  UNL1        0.0030
      4  C         16.5330  -22.2990   -9.5810 C.2     1  UNL1        0.0250
      5  C         17.3590  -23.2030   -8.9030 C.2     1  UNL1        0.0760
      6  C         18.7080  -23.3460   -9.2450 C.2     1  UNL1        0.0410
      7  C         20.6560  -22.7110  -10.7200 C.2     1  UNL1        0.2560
      8  N         21.0800  -21.7730  -11.6410 N.am    1  UNL1       -0.3160
      9  H         20.3970  -21.3150  -12.2310 H       1  UNL1        0.1690
     10  O         21.3150  -23.6570  -10.3020 O.2     1  UNL1       -0.2670
     11  C         22.3920  -21.6660  -12.0460 C.ar    1  UNL1        0.0930
     12  C         23.6110  -21.7770  -11.4040 C.ar    1  UNL1        0.0730
     13  C         24.6930  -21.6830  -12.3610 C.ar    1  UNL1       -0.0260
     14  C         24.2260  -21.4430  -13.6410 C.ar    1  UNL1       -0.0080
     15  C         26.1630  -21.7900  -12.0660 C.3     1  UNL1        0.0410
     16  S         22.5350  -21.3000  -13.7020 S.2     1  UNL1       -0.0750
     17  C         25.0820  -21.2450  -14.8540 C.3     1  UNL1        0.0470
     18  C         26.5190  -21.7150  -14.5820 C.3     1  UNL1        0.0050
     19  C         27.0210  -21.2330  -13.2130 C.3     1  UNL1        0.0050
     20  C         23.7680  -21.8970   -9.9620 C.2     1  UNL1        0.2520
     21  N         24.4000  -23.0370   -9.5490 N.am    1  UNL1       -0.3660
     22  H         24.3250  -23.8390  -10.1590 H       1  UNL1        0.1590
     23  H         24.2650  -23.2250   -8.5650 H       1  UNL1        0.1590
     24  O         23.3810  -21.0520   -9.1620 O.2     1  UNL1       -0.2680
     25  S         16.6710  -24.1600   -7.5630 S.O2    1  UNL1        0.2480
     26  O         17.7910  -24.8780   -6.9940 O.2     1  UNL1       -0.2050
     27  O         15.5240  -24.8710   -8.0920 O.2     1  UNL1       -0.2050
     28  N         16.0930  -22.9260   -6.4770 N.pl3   1  UNL1       -0.1720
     29  C         14.8890  -23.3880   -5.7070 C.3     1  UNL1        0.1140
     30  C         14.5580  -22.4540   -4.5590 C.3     1  UNL1        0.0200
     31  C         15.7290  -22.4330   -3.5970 C.3     1  UNL1        0.0420
     32  C         16.9760  -22.0110   -4.3230 C.2     1  UNL1       -0.0360
     33  C         17.9890  -21.3680   -3.5910 C.2     1  UNL1        0.0090
     34  C         17.1420  -22.2580   -5.7000 C.2     1  UNL1        0.0310
     35  C         19.1360  -20.9030   -4.2250 C.2     1  UNL1        0.0010
     36  C         19.2680  -21.0610   -5.5980 C.2     1  UNL1        0.0020
     37  C         18.2720  -21.7170   -6.3280 C.2     1  UNL1        0.0250
@<TRIPOS>BOND
     1    17    18    1
     2    17    14    1
     3    18    19    1
     4    16    14   ar
     5    16    11   ar
     6    14    13   ar
     7    19    15    1
     8    13    15    1
     9    13    12   ar
    10     9     8    1
    11    11     8    1
    12    11    12   ar
    13     8     7   am
    14    12    20    1
    15     2     3    1
    16     2     1    2
    17     7    10    2
    18     7     1    1
    19     3     4    2
    20     1     6    1
    21    22    21    1
    22    20    21   am
    23    20    24    2
    24     4     5    1
    25    21    23    1
    26     6     5    2
    27     5    25    1
    28    27    25    2
    29    25    26    2
    30    25    28    1
    31    28    29    1
    32    28    34    1
    33    37    34    1
    34    37    36    2
    35    29    30    1
    36    34    32    2
    37    36    35    1
    38    30    31    1
    39    32    31    1
    40    32    33    1
    41    35    33    2
