@<TRIPOS>MOLECULE
26116_out_ligand_01.pdbqt
 40 43 0 0 0
SMALL
GASTEIGER

@<TRIPOS>ATOM
      1  C         20.0400  -22.1340  -11.0140 C.2     1  UNL1        0.0320
      2  C         20.7220  -21.5930  -12.1120 C.2     1  UNL1        0.0190
      3  C         22.0700  -21.8990  -12.3180 C.2     1  UNL1        0.0310
      4  C         22.7390  -22.7360  -11.4240 C.2     1  UNL1        0.0420
      5  C         22.0700  -23.2730  -10.3260 C.2     1  UNL1        0.0310
      6  C         20.7240  -22.9650  -10.1160 C.2     1  UNL1        0.0190
      7  C         18.6060  -21.8360  -10.7520 C.2     1  UNL1        0.2520
      8  N         17.8430  -22.8600  -10.2330 N.am    1  UNL1       -0.3480
      9  H         18.3120  -23.6230   -9.7610 H       1  UNL1        0.1630
     10  O         18.1540  -20.7110  -10.9400 O.2     1  UNL1       -0.2680
     11  C         16.4630  -22.6130   -9.8570 C.3     1  UNL1        0.2260
     12  C         16.2250  -23.0830   -8.4210 C.2     1  UNL1        0.2390
     13  N         16.5710  -22.1170   -7.4880 N.am    1  UNL1       -0.3250
     14  H         17.2870  -21.4770   -7.8320 H       1  UNL1        0.1690
     15  O         15.8800  -24.2390   -8.1860 O.2     1  UNL1       -0.2710
     16  C         16.4500  -22.2400   -6.0810 C.2     1  UNL1        0.0460
     17  C         15.2070  -22.2270   -5.4120 C.2     1  UNL1       -0.0350
     18  C         15.1770  -22.3930   -4.0140 C.2     1  UNL1        0.0090
     19  C         13.8790  -22.0020   -6.0880 C.3     1  UNL1        0.0500
     20  C         16.3500  -22.5050   -3.2770 C.2     1  UNL1        0.0010
     21  C         17.5770  -22.4520   -3.9270 C.2     1  UNL1        0.0090
     22  C         17.6460  -22.3150   -5.3230 C.2     1  UNL1       -0.0350
     23  C         19.0100  -22.3010   -5.9630 C.3     1  UNL1        0.0500
     24  N         24.0950  -23.0870  -11.6580 N.pl3   1  UNL1       -0.2810
     25  H         24.4000  -24.0140  -11.3560 H       1  UNL1        0.1790
     26  S         25.2800  -21.9340  -11.2990 S.O2    1  UNL1        0.2630
     27  O         26.4950  -22.6760  -11.0400 O.2     1  UNL1       -0.2000
     28  O         24.7600  -20.9920  -10.3310 O.2     1  UNL1       -0.2000
     29  C         25.4900  -21.1050  -12.8560 C.2     1  UNL1        0.0820
     30  C         25.0600  -21.7410  -14.0470 C.2     1  UNL1        0.0280
     31  C         25.2070  -21.1070  -15.2860 C.2     1  UNL1        0.0330
     32  C         25.7730  -19.8530  -15.2730 C.ar    1  UNL1        0.0630
     33  N         26.0420  -18.9910  -16.3290 N.ar    1  UNL1       -0.3070
     34  C         26.1830  -19.2280  -14.0940 C.ar    1  UNL1        0.0640
     35  C         26.6170  -17.8180  -15.8200 C.ar    1  UNL1        0.3250
     36  H         25.8550  -19.1430  -17.3070 H       1  UNL1        0.1700
     37  O         26.9740  -16.8450  -16.4600 O.2     1  UNL1       -0.2470
     38  N         26.7000  -17.9820  -14.4290 N.ar    1  UNL1       -0.3060
     39  H         27.0690  -17.2810  -13.8060 H       1  UNL1        0.1700
     40  C         26.0540  -19.8210  -12.8630 C.2     1  UNL1        0.0570
@<TRIPOS>BOND
     1    36    33    1
     2    37    35    2
     3    33    35   ar
     4    33    32   ar
     5    35    38   ar
     6    31    32    2
     7    31    30    1
     8    32    34   ar
     9    38    34   ar
    10    38    39    1
    11    34    40    2
    12    30    29    2
    13    40    29    1
    14    29    26    1
    15     3     2    1
    16     3     4    2
    17     2     1    2
    18    24     4    1
    19    24    25    1
    20    24    26    1
    21     4     5    1
    22    26    27    2
    23    26    28    2
    24     1     7    1
    25     1     6    1
    26    10     7    2
    27     7     8   am
    28     5     6    2
    29     8    11    1
    30     8     9    1
    31    11    12    1
    32    12    15    2
    33    12    13   am
    34    14    13    1
    35    13    16    1
    36    19    17    1
    37    16    17    2
    38    16    22    1
    39    23    22    1
    40    17    18    1
    41    22    21    2
    42    18    20    2
    43    21    20    1
