@<TRIPOS>MOLECULE
26127_out_ligand_01.pdbqt
 29 31 0 0 0
SMALL
GASTEIGER

@<TRIPOS>ATOM
      1  N         21.7240  -23.1560   -9.3710 N.am    1  UNL1       -0.3520
      2  C         20.6720  -23.9500   -8.9540 C.2     1  UNL1        0.2310
      3  O         20.6670  -25.1690   -9.0950 O.2     1  UNL1       -0.2720
      4  H         21.7630  -22.2100   -9.0150 H       1  UNL1        0.1630
      5  C         22.9550  -23.7300   -9.8820 C.3     1  UNL1        0.1130
      6  C         24.0340  -23.7940   -8.7970 C.3     1  UNL1        0.0370
      7  C         23.4060  -22.9480  -11.1060 C.2     1  UNL1       -0.0360
      8  C         24.7670  -22.9260  -11.4520 C.2     1  UNL1        0.0110
      9  C         25.2080  -22.2230  -12.5740 C.2     1  UNL1        0.0250
     10  C         24.2810  -21.5470  -13.3700 C.2     1  UNL1        0.0740
     11  C         22.9240  -21.5530  -13.0460 C.2     1  UNL1        0.0250
     12  C         22.4890  -22.2570  -11.9200 C.2     1  UNL1        0.0110
     13  S         24.8500  -20.6530  -14.7910 S.O2    1  UNL1        0.2390
     14  O         23.9770  -20.9500  -15.9020 O.2     1  UNL1       -0.2060
     15  O         25.1650  -19.3030  -14.3860 O.2     1  UNL1       -0.2060
     16  N         26.2970  -21.4470  -15.1300 N.3     1  UNL1       -0.2250
     17  H         26.4090  -22.3190  -14.6150 H       1  UNL1        0.1360
     18  H         26.3650  -21.5880  -16.1400 H       1  UNL1        0.1360
     19  C         19.5120  -23.1640   -8.2970 C.3     1  UNL1        0.0680
     20  C         18.7310  -24.1350   -7.3820 C.3     1  UNL1        0.0240
     21  C         18.1290  -23.2860   -6.2620 C.3     1  UNL1        0.0020
     22  C         18.8670  -21.9520   -6.2920 C.3     1  UNL1        0.0020
     23  C         20.0370  -22.1590   -7.2480 C.3     1  UNL1        0.0240
     24  C         18.6960  -22.4330   -9.3780 C.2     1  UNL1       -0.0400
     25  C         17.2930  -22.4670   -9.4440 C.2     1  UNL1        0.0080
     26  C         16.6040  -21.8000  -10.4600 C.2     1  UNL1        0.0010
     27  C         17.3000  -21.0860  -11.4310 C.2     1  UNL1        0.0000
     28  C         18.6880  -21.0340  -11.3840 C.2     1  UNL1        0.0010
     29  C         19.3780  -21.6990  -10.3690 C.2     1  UNL1        0.0080
@<TRIPOS>BOND
     1    18    16    1
     2    14    13    2
     3    16    13    1
     4    16    17    1
     5    13    15    2
     6    13    10    1
     7    10    11    2
     8    10     9    1
     9    11    12    1
    10     9     8    2
    11    12     7    2
    12     8     7    1
    13    27    28    2
    14    27    26    1
    15    28    29    1
    16     7     5    1
    17    26    25    2
    18    29    24    2
    19     5     1    1
    20     5     6    1
    21    25    24    1
    22    24    19    1
    23     1     4    1
    24     1     2   am
    25     3     2    2
    26     2    19    1
    27    19    20    1
    28    19    23    1
    29    20    21    1
    30    23    22    1
    31    22    21    1
