@<TRIPOS>MOLECULE
26126_out_ligand_01.pdbqt
 34 36 0 0 0
SMALL
GASTEIGER

@<TRIPOS>ATOM
      1  N         18.9510  -22.6750  -10.3010 N.am    1  UNL1       -0.3490
      2  C         19.5470  -21.6890  -11.0560 C.2     1  UNL1        0.2520
      3  O         18.9660  -20.6860  -11.4500 O.2     1  UNL1       -0.2680
      4  H         19.4050  -23.5740  -10.2170 H       1  UNL1        0.1630
      5  C         20.9710  -21.9110  -11.4280 C.2     1  UNL1        0.0340
      6  C         21.7850  -22.6320  -10.5490 C.2     1  UNL1        0.0180
      7  C         23.1340  -22.8580  -10.8500 C.2     1  UNL1        0.0220
      8  C         23.7020  -22.3750  -12.0390 C.2     1  UNL1        0.0410
      9  C         22.8600  -21.6850  -12.9310 C.2     1  UNL1        0.1210
     10  C         21.5040  -21.4480  -12.6340 C.2     1  UNL1        0.0540
     11  S         25.4490  -22.6960  -12.2680 S.3     1  UNL1       -0.0470
     12  C         26.0620  -21.1140  -11.9480 C.ar    1  UNL1        0.2020
     13  N         25.9500  -20.4220  -10.8370 N.ar    1  UNL1       -0.1350
     14  N         26.5940  -19.2300  -11.0720 N.ar    1  UNL1        0.0180
     15  N         27.0880  -19.1890  -12.3030 N.ar    1  UNL1       -0.0030
     16  N         26.7500  -20.3670  -12.8580 N.ar    1  UNL1       -0.2580
     17  C         27.0940  -20.6620  -14.2190 C.3     1  UNL1        0.1770
     18  N         23.3440  -21.1860  -14.2120 N.pl3   1  UNL1       -0.1140
     19  O         23.3820  -21.9730  -15.1660 O.2     1  UNL1       -0.5320
     20  O         23.6440  -19.9850  -14.2710 O.2     1  UNL1       -0.5320
     21  C         17.5320  -22.6280   -9.9770 C.3     1  UNL1        0.1140
     22  C         16.8300  -21.4660  -10.6860 C.3     1  UNL1        0.0370
     23  C         17.3730  -22.5940   -8.4640 C.2     1  UNL1       -0.0360
     24  C         18.4790  -22.5150   -7.5990 C.2     1  UNL1        0.0110
     25  C         18.3000  -22.5140   -6.2140 C.2     1  UNL1        0.0250
     26  C         17.0130  -22.6140   -5.6810 C.2     1  UNL1        0.0740
     27  C         15.9030  -22.7020   -6.5220 C.2     1  UNL1        0.0250
     28  C         16.0860  -22.6980   -7.9070 C.2     1  UNL1        0.0110
     29  S         16.7970  -22.5880   -3.9280 S.O2    1  UNL1        0.2390
     30  O         15.4320  -22.2260   -3.6290 O.2     1  UNL1       -0.2060
     31  O         17.4390  -23.7450   -3.3470 O.2     1  UNL1       -0.2060
     32  N         17.7410  -21.2730   -3.4790 N.3     1  UNL1       -0.2250
     33  H         17.6100  -20.5110   -4.1440 H       1  UNL1        0.1360
     34  H         18.7130  -21.5640   -3.3720 H       1  UNL1        0.1360
@<TRIPOS>BOND
     1    19    18    2
     2    20    18    2
     3    17    16    1
     4    18     9    1
     5     9    10    1
     6     9     8    2
     7    16    15   ar
     8    16    12   ar
     9    10     5    2
    10    15    14   ar
    11    11     8    1
    12    11    12    1
    13     8     7    1
    14    12    13   ar
    15     3     2    2
    16     5     2    1
    17     5     6    1
    18    14    13   ar
    19     2     1   am
    20     7     6    2
    21    22    21    1
    22     1     4    1
    23     1    21    1
    24    21    23    1
    25    23    28    2
    26    23    24    1
    27    28    27    1
    28    24    25    2
    29    27    26    2
    30    25    26    1
    31    26    29    1
    32    33    32    1
    33    29    30    2
    34    29    32    1
    35    29    31    2
    36    32    34    1
