@<TRIPOS>MOLECULE
26121_out_ligand_01.pdbqt
 37 40 0 0 0
SMALL
GASTEIGER

@<TRIPOS>ATOM
      1  C         21.5350  -22.3040   -7.9550 C.2     1  UNL1        0.2450
      2  O         22.2510  -21.3990   -7.5310 O.2     1  UNL1       -0.2710
      3  N         20.3020  -22.6800   -7.4420 N.am    1  UNL1       -0.3250
      4  H         19.8710  -23.5040   -7.8470 H       1  UNL1        0.1690
      5  C         21.9640  -23.1450   -9.1770 C.3     1  UNL1        0.1810
      6  N         22.8350  -22.3300  -10.0160 N.am    1  UNL1       -0.3430
      7  C         24.1620  -22.6310  -10.2150 C.2     1  UNL1        0.2590
      8  O         24.6750  -23.5790   -9.6220 O.2     1  UNL1       -0.2670
      9  H         22.3850  -21.5660  -10.5070 H       1  UNL1        0.1630
     10  C         24.8630  -21.7690  -11.1600 C.2     1  UNL1        0.0720
     11  C         25.9050  -20.8750  -10.9630 C.2     1  UNL1        0.0250
     12  C         26.3040  -20.2200  -12.1660 C.2     1  UNL1        0.0090
     13  C         25.5580  -20.6290  -13.2470 C.2     1  UNL1        0.0500
     14  S         24.3810  -21.7850  -12.8100 S.3     1  UNL1       -0.0970
     15  C         20.7510  -23.7100   -9.9410 C.3     1  UNL1        0.0730
     16  C         19.8720  -22.6640  -10.5920 C.2     1  UNL1       -0.0560
     17  C         18.4870  -22.6550  -10.3850 C.2     1  UNL1        0.0070
     18  C         17.6910  -21.6690  -10.9710 C.2     1  UNL1        0.0010
     19  C         18.2700  -20.6850  -11.7690 C.2     1  UNL1        0.0000
     20  C         19.6460  -20.6870  -11.9850 C.2     1  UNL1        0.0010
     21  C         20.4440  -21.6700  -11.4000 C.2     1  UNL1        0.0070
     22  C         19.5990  -22.0870   -6.3710 C.2     1  UNL1        0.0360
     23  C         19.8310  -20.7910   -5.9040 C.2     1  UNL1        0.0290
     24  C         19.0980  -20.2770   -4.8280 C.2     1  UNL1        0.0040
     25  C         18.1200  -21.0520   -4.2110 C.2     1  UNL1        0.0250
     26  C         17.8670  -22.3380   -4.6890 C.2     1  UNL1        0.0820
     27  C         18.6100  -22.8630   -5.7540 C.2     1  UNL1        0.0540
     28  S         16.6590  -23.3550   -3.8830 S.O2    1  UNL1        0.2640
     29  O         15.7330  -22.5200   -3.1530 O.2     1  UNL1       -0.2000
     30  O         17.3810  -24.4180   -3.2100 O.2     1  UNL1       -0.2000
     31  N         15.8700  -24.1060   -5.1410 N.3     1  UNL1       -0.2680
     32  H         15.3390  -24.9130   -4.8300 H       1  UNL1        0.1800
     33  C         15.7980  -23.6670   -6.4590 C.3     1  UNL1        0.1080
     34  N         15.3530  -22.5100   -6.8170 N.3     1  UNL1       -0.2760
     35  C         15.4890  -22.4830   -8.2870 C.3     1  UNL1        0.1510
     36  C         15.6050  -23.9350   -8.7160 C.3     1  UNL1        0.0290
     37  C         16.3010  -24.5720   -7.5360 C.3     1  UNL1        0.0800
@<TRIPOS>BOND
     1    13    14    1
     2    13    12    2
     3    14    10    1
     4    12    11    1
     5    20    19    2
     6    20    21    1
     7    19    18    1
     8    21    16    2
     9    10    11    2
    10    10     7    1
    11    18    17    2
    12    16    17    1
    13    16    15    1
    14     9     6    1
    15     7     6   am
    16     7     8    2
    17     6     5    1
    18    15     5    1
    19     5     1    1
    20    36    35    1
    21    36    37    1
    22    35    34    1
    23     1     2    2
    24     1     3   am
    25     4     3    1
    26    37    33    1
    27     3    22    1
    28    34    33    1
    29    33    31    1
    30    22    23    2
    31    22    27    1
    32    23    24    1
    33    27    26    2
    34    31    32    1
    35    31    28    1
    36    24    25    2
    37    26    25    1
    38    26    28    1
    39    28    30    2
    40    28    29    2
