@<TRIPOS>MOLECULE
26122_out_ligand_01.pdbqt
 35 37 0 0 0
SMALL
GASTEIGER

@<TRIPOS>ATOM
      1  C         22.0500  -22.2850  -10.3890 C.3     1  UNL1        0.1260
      2  C         22.0740  -23.2460   -9.1890 C.3     1  UNL1        0.1330
      3  C         21.1680  -22.7680   -8.0680 C.2     1  UNL1        0.2240
      4  N         20.0450  -23.5730   -7.9390 N.am    1  UNL1       -0.3270
      5  H         19.9870  -24.3680   -8.5620 H       1  UNL1        0.1690
      6  O         21.4450  -21.8010   -7.3700 O.2     1  UNL1       -0.2730
      7  C         18.9470  -23.3810   -7.0760 C.2     1  UNL1        0.0340
      8  C         18.7830  -22.2610   -6.2520 C.2     1  UNL1        0.0310
      9  C         17.6370  -22.1190   -5.4610 C.2     1  UNL1        0.0270
     10  C         16.6450  -23.0990   -5.5040 C.2     1  UNL1        0.0740
     11  C         16.8050  -24.2400   -6.2930 C.2     1  UNL1        0.0270
     12  C         17.9570  -24.3760   -7.0750 C.2     1  UNL1        0.0310
     13  S         15.1670  -22.8830   -4.5480 S.O2    1  UNL1        0.2390
     14  O         14.6530  -24.1820   -4.1860 O.2     1  UNL1       -0.2060
     15  O         14.3570  -21.8670   -5.1810 O.2     1  UNL1       -0.2060
     16  N         15.7800  -22.1590   -3.1530 N.3     1  UNL1       -0.2250
     17  H         15.8250  -21.1430   -3.2150 H       1  UNL1        0.1360
     18  H         15.2260  -22.4720   -2.3520 H       1  UNL1        0.1360
     19  N         22.7920  -22.8170  -11.5310 N.am    1  UNL1       -0.3480
     20  C         24.0510  -22.3510  -11.8460 C.2     1  UNL1        0.2530
     21  O         24.7070  -21.5760  -11.1600 O.2     1  UNL1       -0.2680
     22  H         22.2530  -23.2400  -12.2750 H       1  UNL1        0.1630
     23  C         24.5640  -22.7840  -13.1570 C.2     1  UNL1        0.0530
     24  C         25.3310  -23.9590  -13.1910 C.2     1  UNL1        0.0190
     25  C         25.8580  -24.4060  -14.4030 C.2     1  UNL1        0.0010
     26  C         25.6060  -23.6940  -15.5770 C.2     1  UNL1        0.0020
     27  C         24.8220  -22.5350  -15.5450 C.2     1  UNL1        0.0250
     28  C         24.2990  -22.0740  -14.3330 C.2     1  UNL1        0.0490
     29 CL         23.3260  -20.6440  -14.3630 Cl      1  UNL1       -0.0830
     30  C         20.6230  -21.9800  -10.8350 C.2     1  UNL1       -0.0350
     31  C         19.5860  -22.9210  -10.6910 C.2     1  UNL1        0.0090
     32  C         18.2890  -22.6200  -11.1110 C.2     1  UNL1        0.0010
     33  C         18.0100  -21.3760  -11.6810 C.2     1  UNL1        0.0000
     34  C         19.0270  -20.4330  -11.8270 C.2     1  UNL1        0.0010
     35  C         20.3240  -20.7340  -11.4060 C.2     1  UNL1        0.0090
@<TRIPOS>BOND
     1    26    27    2
     2    26    25    1
     3    27    28    1
     4    25    24    2
     5    29    28    1
     6    28    23    2
     7    24    23    1
     8    23    20    1
     9    22    19    1
    10    20    19   am
    11    20    21    2
    12    34    33    2
    13    34    35    1
    14    33    32    1
    15    19     1    1
    16    35    30    2
    17    32    31    2
    18    30    31    1
    19    30     1    1
    20     1     2    1
    21     2     3    1
    22     5     4    1
    23     3     4   am
    24     3     6    2
    25     4     7    1
    26     7    12    2
    27     7     8    1
    28    12    11    1
    29    11    10    2
    30     8     9    2
    31    10     9    1
    32    10    13    1
    33    15    13    2
    34    13    14    2
    35    13    16    1
    36    17    16    1
    37    16    18    1
