@<TRIPOS>MOLECULE
26135_out_ligand_01.pdbqt
 35 38 0 0 0
SMALL
GASTEIGER

@<TRIPOS>ATOM
      1  C         19.2530  -22.2840  -10.0950 C.2     1  UNL1        0.0330
      2  C         18.3480  -21.5520  -10.8830 C.2     1  UNL1        0.0170
      3  C         16.9750  -21.6040  -10.6270 C.2     1  UNL1        0.0030
      4  C         16.4920  -22.3860   -9.5800 C.2     1  UNL1        0.0250
      5  C         17.3930  -23.1090   -8.7930 C.2     1  UNL1        0.0810
      6  C         18.7710  -23.0560   -9.0320 C.2     1  UNL1        0.0420
      7  C         20.7100  -22.1760  -10.4080 C.2     1  UNL1        0.2560
      8  N         21.0280  -22.1430  -11.7560 N.am    1  UNL1       -0.3230
      9  H         20.2620  -22.1160  -12.4150 H       1  UNL1        0.1690
     10  O         21.4960  -22.0980   -9.4720 O.2     1  UNL1       -0.2670
     11  C         22.3170  -22.0730  -12.3290 C.2     1  UNL1        0.0350
     12  C         22.4730  -21.2320  -13.4420 C.2     1  UNL1        0.0310
     13  C         23.7130  -21.1070  -14.0740 C.2     1  UNL1        0.0270
     14  C         24.8040  -21.8310  -13.5950 C.2     1  UNL1        0.0740
     15  C         24.6690  -22.6610  -12.4830 C.2     1  UNL1        0.0270
     16  C         23.4240  -22.7840  -11.8580 C.2     1  UNL1        0.0310
     17  S         26.3810  -21.6680  -14.3890 S.O2    1  UNL1        0.2390
     18  O         27.0610  -22.9400  -14.3270 O.2     1  UNL1       -0.2060
     19  O         26.9910  -20.4380  -13.9450 O.2     1  UNL1       -0.2060
     20  N         25.9260  -21.4690  -15.9990 N.3     1  UNL1       -0.2250
     21  H         25.0300  -20.9960  -16.1090 H       1  UNL1        0.1360
     22  H         25.9310  -22.3830  -16.4560 H       1  UNL1        0.1360
     23  S         16.7660  -24.1160   -7.4590 S.O2    1  UNL1        0.2650
     24  O         15.6890  -24.9150   -8.0100 O.2     1  UNL1       -0.2000
     25  O         17.9320  -24.7320   -6.8660 O.2     1  UNL1       -0.2000
     26  N         16.0770  -22.9350   -6.4050 N.pl3   1  UNL1       -0.2710
     27  C         14.7410  -23.2850   -5.8410 C.3     1  UNL1        0.1420
     28  C         14.8810  -24.0270   -4.5230 C.3     1  UNL1        0.0260
     29  C         15.6010  -23.1610   -3.5030 C.3     1  UNL1        0.0420
     30  C         16.8090  -22.4690   -4.0760 C.2     1  UNL1       -0.0310
     31  C         17.7240  -21.8760   -3.1890 C.2     1  UNL1        0.0090
     32  C         17.0000  -22.3320   -5.4620 C.2     1  UNL1        0.0510
     33  C         18.8160  -21.1550   -3.6710 C.2     1  UNL1        0.0010
     34  C         18.9930  -21.0040   -5.0420 C.2     1  UNL1        0.0020
     35  C         18.0850  -21.5820   -5.9320 C.2     1  UNL1        0.0310
@<TRIPOS>BOND
     1    22    20    1
     2    21    20    1
     3    20    17    1
     4    17    18    2
     5    17    19    2
     6    17    14    1
     7    13    14    2
     8    13    12    1
     9    14    15    1
    10    12    11    2
    11    15    16    2
    12     9     8    1
    13    11    16    1
    14    11     8    1
    15     8     7   am
    16     2     3    1
    17     2     1    2
    18     3     4    2
    19     7     1    1
    20     7    10    2
    21     1     6    1
    22     4     5    1
    23     6     5    2
    24     5    23    1
    25    24    23    2
    26    23    25    2
    27    23    26    1
    28    26    27    1
    29    26    32    1
    30    35    32    1
    31    35    34    2
    32    27    28    1
    33    32    30    2
    34    34    33    1
    35    28    29    1
    36    30    29    1
    37    30    31    1
    38    33    31    2
