@<TRIPOS>MOLECULE
26131_out_ligand_01.pdbqt
 33 37 0 0 0
SMALL
GASTEIGER

@<TRIPOS>ATOM
      1  N         24.4820  -21.7410  -13.1870 N.am    1  UNL1       -0.2430
      2  C         25.1770  -22.2340  -12.1020 C.2     1  UNL1        0.2660
      3  O         26.3700  -22.3510  -11.8870 O.2     1  UNL1       -0.2670
      4  C         24.1860  -22.6880  -11.1310 C.2     1  UNL1        0.0480
      5  C         24.3550  -23.2820   -9.8940 C.2     1  UNL1        0.0190
      6  C         23.2010  -23.6050   -9.1710 C.2     1  UNL1        0.0180
      7  C         21.9160  -23.3340   -9.7020 C.2     1  UNL1        0.0330
      8  C         21.7790  -22.7110  -10.9520 C.2     1  UNL1        0.0350
      9  C         22.9380  -22.4110  -11.6450 C.2     1  UNL1        0.0490
     10  C         23.1260  -21.7670  -12.9420 C.2     1  UNL1        0.2660
     11  O         22.1780  -21.3120  -13.5570 O.2     1  UNL1       -0.2670
     12  C         20.6790  -23.6560   -8.9370 C.2     1  UNL1        0.2560
     13  O         20.4400  -24.8350   -8.7120 O.2     1  UNL1       -0.2670
     14  N         19.9430  -22.5600   -8.5310 N.am    1  UNL1       -0.3230
     15  H         20.3480  -21.6460   -8.6860 H       1  UNL1        0.1690
     16  C         18.7150  -22.5660   -7.8350 C.2     1  UNL1        0.0370
     17  C         17.5440  -22.5620   -8.6080 C.2     1  UNL1        0.0320
     18  C         16.2850  -22.5800   -8.0020 C.2     1  UNL1        0.0420
     19  C         16.1870  -22.6080   -6.6150 C.2     1  UNL1        0.1020
     20  C         17.3460  -22.5880   -5.8350 C.2     1  UNL1        0.1040
     21  O         14.9230  -22.6470   -6.0870 O.2     1  UNL1       -0.3460
     22  C         18.6050  -22.5830   -6.4420 C.2     1  UNL1        0.0690
     23  O         17.3230  -22.5840   -4.4630 O.2     1  UNL1       -0.3460
     24  C         16.0280  -22.2370   -3.9630 C.3     1  UNL1        0.2020
     25  C         14.9470  -23.0080   -4.7010 C.3     1  UNL1        0.2020
     26  C         25.0960  -21.1540  -14.3310 C.2     1  UNL1        0.0520
     27  C         25.2280  -21.8160  -15.5720 C.2     1  UNL1       -0.0350
     28  C         25.7830  -21.1210  -16.6670 C.2     1  UNL1        0.0090
     29  C         24.8680  -23.2570  -15.8150 C.3     1  UNL1        0.0500
     30  C         26.2510  -19.8160  -16.5410 C.2     1  UNL1        0.0070
     31  C         26.1670  -19.1640  -15.3140 C.2     1  UNL1       -0.0600
     32  C         26.7090  -17.7750  -15.1470 C.3     1  UNL1        0.0480
     33  C         25.6070  -19.8430  -14.2210 C.2     1  UNL1        0.0370
@<TRIPOS>BOND
     1    28    30    2
     2    28    27    1
     3    30    31    1
     4    29    27    1
     5    27    26    2
     6    31    32    1
     7    31    33    2
     8    26    33    1
     9    26     1    1
    10    11    10    2
    11     1    10   am
    12     1     2   am
    13    10     9    1
    14     2     3    2
    15     2     4    1
    16     9     4    2
    17     9     8    1
    18     4     5    1
    19     8     7    2
    20     5     6    2
    21     7     6    1
    22     7    12    1
    23    12    13    2
    24    12    14   am
    25    15    14    1
    26    17    18    1
    27    17    16    2
    28    14    16    1
    29    18    19    2
    30    16    22    1
    31    19    21    1
    32    19    20    1
    33    22    20    2
    34    21    25    1
    35    20    23    1
    36    25    24    1
    37    23    24    1
