@<TRIPOS>MOLECULE
26137_out_ligand_01.pdbqt
 31 34 0 0 0
SMALL
GASTEIGER

@<TRIPOS>ATOM
      1  C         19.8830  -22.1250   -9.8480 C.2     1  UNL1        0.0360
      2  C         19.4590  -21.6370  -11.0940 C.2     1  UNL1        0.0290
      3  C         20.3630  -21.4660  -12.1460 C.2     1  UNL1        0.0040
      4  C         21.7030  -21.7960  -11.9670 C.2     1  UNL1        0.0250
      5  C         22.1240  -22.3060  -10.7350 C.2     1  UNL1        0.0820
      6  C         21.2270  -22.4600   -9.6720 C.2     1  UNL1        0.0540
      7  N         18.8980  -22.2660   -8.8520 N.am    1  UNL1       -0.3260
      8  C         18.6600  -23.3700   -8.0440 C.2     1  UNL1        0.2350
      9  O         19.3480  -24.3870   -8.0150 O.2     1  UNL1       -0.2720
     10  H         18.3700  -21.4320   -8.6290 H       1  UNL1        0.1690
     11  C         17.3930  -23.2140   -7.1460 C.3     1  UNL1        0.0680
     12  C         16.3250  -22.4020   -7.9120 C.3     1  UNL1        0.0240
     13  C         15.7570  -23.3840   -8.9300 C.3     1  UNL1        0.0020
     14  C         15.8050  -24.7450   -8.2440 C.3     1  UNL1        0.0020
     15  C         16.6550  -24.5640   -6.9850 C.3     1  UNL1        0.0240
     16  C         17.7980  -22.6490   -5.7780 C.2     1  UNL1       -0.0400
     17  C         17.4500  -23.2670   -4.5660 C.2     1  UNL1        0.0080
     18  C         17.8140  -22.7010   -3.3420 C.2     1  UNL1        0.0010
     19  C         18.5270  -21.5060   -3.3060 C.2     1  UNL1        0.0000
     20  C         18.8750  -20.8730   -4.4950 C.2     1  UNL1        0.0010
     21  C         18.5130  -21.4380   -5.7190 C.2     1  UNL1        0.0080
     22  S         23.8370  -22.7070  -10.5140 S.O2    1  UNL1        0.2640
     23  O         24.0130  -23.5140   -9.3280 O.2     1  UNL1       -0.2000
     24  O         24.5870  -21.4770  -10.6810 O.2     1  UNL1       -0.2000
     25  N         24.2080  -23.6190  -11.8580 N.3     1  UNL1       -0.2680
     26  H         23.5970  -24.4240  -11.9500 H       1  UNL1        0.1800
     27  C         25.1700  -23.3290  -12.8170 C.3     1  UNL1        0.1080
     28  N         26.3950  -23.7280  -12.7620 N.3     1  UNL1       -0.2760
     29  C         27.0280  -23.2080  -13.9890 C.3     1  UNL1        0.1510
     30  C         26.1260  -22.0830  -14.4710 C.3     1  UNL1        0.0290
     31  C         24.7610  -22.5390  -14.0170 C.3     1  UNL1        0.0800
@<TRIPOS>BOND
     1    30    31    1
     2    30    29    1
     3    31    27    1
     4    29    28    1
     5    27    28    1
     6    27    25    1
     7     3     4    2
     8     3     2    1
     9     4     5    1
    10    26    25    1
    11    25    22    1
    12     2     1    2
    13     5    22    1
    14     5     6    2
    15    24    22    2
    16    22    23    2
    17     1     6    1
    18     1     7    1
    19    13    14    1
    20    13    12    1
    21     7    10    1
    22     7     8   am
    23    14    15    1
    24     8     9    2
    25     8    11    1
    26    12    11    1
    27    11    15    1
    28    11    16    1
    29    16    21    2
    30    16    17    1
    31    21    20    1
    32    17    18    2
    33    20    19    2
    34    18    19    1
