@<TRIPOS>MOLECULE
2614_out_ligand_01.pdbqt
 34 38 0 0 0
SMALL
GASTEIGER

@<TRIPOS>ATOM
      1  C         23.0180  -21.8140  -12.9720 C.2     1  UNL1        0.0350
      2  C         23.7690  -22.5810  -12.0670 C.2     1  UNL1        0.0310
      3  C         23.2430  -22.9460  -10.8250 C.2     1  UNL1        0.0270
      4  C         21.9550  -22.5370  -10.4810 C.2     1  UNL1        0.0790
      5  C         21.1890  -21.7840  -11.3730 C.2     1  UNL1        0.0270
      6  C         21.7250  -21.4230  -12.6150 C.2     1  UNL1        0.0310
      7  S         21.2690  -22.9750   -8.9050 S.O2    1  UNL1        0.2590
      8  O         21.3000  -24.4190   -8.8240 O.2     1  UNL1       -0.2010
      9  O         21.8710  -22.1490   -7.8830 O.2     1  UNL1       -0.2010
     10  N         19.6550  -22.5620   -9.0640 N.3     1  UNL1       -0.3050
     11  H         19.3920  -22.4460  -10.0440 H       1  UNL1        0.1730
     12  C         18.5870  -22.9240   -8.1150 C.3     1  UNL1        0.0410
     13  C         18.7760  -22.0230   -6.8650 C.3     1  UNL1        0.0360
     14  C         17.6730  -22.2900   -5.8280 C.3     1  UNL1       -0.0120
     15  C         16.3030  -21.9980   -6.4630 C.3     1  UNL1        0.0090
     16  C         17.7310  -23.7650   -5.3990 C.3     1  UNL1        0.0090
     17  C         16.0920  -22.8960   -7.6920 C.3     1  UNL1       -0.0120
     18  C         16.1620  -24.3710   -7.2600 C.3     1  UNL1        0.0090
     19  C         17.2020  -22.6160   -8.7220 C.3     1  UNL1        0.0360
     20  C         17.5300  -24.6730   -6.6220 C.3     1  UNL1       -0.0120
     21  C         18.6400  -24.3940   -7.6520 C.3     1  UNL1        0.0360
     22  N         23.6430  -21.4840  -14.1960 N.am    1  UNL1       -0.3220
     23  C         24.7930  -20.7350  -14.3890 C.2     1  UNL1        0.2790
     24  O         25.4230  -20.2040  -13.4770 O.2     1  UNL1       -0.2650
     25  H         23.1750  -21.8500  -15.0190 H       1  UNL1        0.1690
     26  C         25.2470  -20.5860  -15.7990 C.2     1  UNL1        0.1790
     27  C         25.2420  -21.4880  -16.9030 C.2     1  UNL1        0.1550
     28  C         25.8740  -20.8290  -17.9410 C.2     1  UNL1        0.1500
     29  N         26.2070  -19.6100  -17.4500 N.pl3   1  UNL1       -0.2820
     30  C         26.8890  -18.5440  -18.1460 C.3     1  UNL1        0.1790
     31  N         25.8410  -19.4300  -16.1750 N.2     1  UNL1       -0.1650
     32  N         24.7400  -22.8200  -16.9990 N.pl3   1  UNL1       -0.1120
     33  O         23.5130  -22.9630  -17.0020 O.2     1  UNL1       -0.5320
     34  O         25.5790  -23.7270  -17.0400 O.2     1  UNL1       -0.5320
@<TRIPOS>BOND
     1    30    29    1
     2    28    29    1
     3    28    27    2
     4    29    31    1
     5    34    32    2
     6    33    32    2
     7    32    27    1
     8    27    26    1
     9    31    26    2
    10    26    23    1
    11    25    22    1
    12    23    22   am
    13    23    24    2
    14    22     1    1
    15     1     6    2
    16     1     2    1
    17     6     5    1
    18     2     3    2
    19     5     4    2
    20     3     4    1
    21     4     7    1
    22    11    10    1
    23    10     7    1
    24    10    12    1
    25     7     8    2
    26     7     9    2
    27    19    12    1
    28    19    17    1
    29    12    21    1
    30    12    13    1
    31    17    18    1
    32    17    15    1
    33    21    20    1
    34    18    20    1
    35    13    14    1
    36    20    16    1
    37    15    14    1
    38    14    16    1
