@<TRIPOS>MOLECULE
26141_out_ligand_01.pdbqt
 34 37 0 0 0
SMALL
GASTEIGER

@<TRIPOS>ATOM
      1  C         20.3290  -23.2100   -9.7130 C.2     1  UNL1        0.0320
      2  C         20.1550  -24.2370   -8.7720 C.2     1  UNL1        0.0180
      3  C         18.9480  -24.3690   -8.0830 C.2     1  UNL1        0.0260
      4  C         17.9140  -23.4650   -8.3390 C.2     1  UNL1        0.0750
      5  C         18.0620  -22.4550   -9.2950 C.2     1  UNL1        0.0260
      6  C         19.2710  -22.3290   -9.9850 C.2     1  UNL1        0.0180
      7  C         21.6380  -23.1150  -10.4230 C.2     1  UNL1        0.2560
      8  N         21.6260  -22.3460  -11.5730 N.am    1  UNL1       -0.3230
      9  H         20.7770  -21.8380  -11.7800 H       1  UNL1        0.1690
     10  O         22.6050  -23.6760   -9.9240 O.2     1  UNL1       -0.2670
     11  C         22.7020  -22.1120  -12.4550 C.2     1  UNL1        0.0350
     12  C         23.9280  -22.7700  -12.3870 C.2     1  UNL1        0.0320
     13  C         24.9490  -22.4840  -13.3070 C.2     1  UNL1        0.0320
     14  C         24.7580  -21.5370  -14.3130 C.2     1  UNL1        0.0340
     15  C         23.5260  -20.8790  -14.3840 C.2     1  UNL1        0.0320
     16  C         22.5080  -21.1640  -13.4650 C.2     1  UNL1        0.0320
     17  N         25.7310  -21.1920  -15.2720 N.am    1  UNL1       -0.3280
     18  C         25.5780  -21.1360  -16.6450 C.2     1  UNL1        0.2180
     19  C         26.8470  -20.7200  -17.3480 C.3     1  UNL1        0.1170
     20  O         24.5560  -21.3590  -17.2840 O.2     1  UNL1       -0.2740
     21  H         26.6430  -20.9490  -14.9080 H       1  UNL1        0.1690
     22  S         16.3550  -23.6130   -7.4790 S.O2    1  UNL1        0.2480
     23  O         15.7830  -24.8990   -7.8260 O.2     1  UNL1       -0.2050
     24  O         15.6490  -22.3800   -7.7580 O.2     1  UNL1       -0.2050
     25  N         16.8640  -23.6840   -5.8090 N.pl3   1  UNL1       -0.1720
     26  C         15.7390  -24.1210   -4.9160 C.3     1  UNL1        0.1140
     27  C         16.0760  -23.9290   -3.4510 C.3     1  UNL1        0.0200
     28  C         16.2990  -22.4520   -3.1930 C.3     1  UNL1        0.0420
     29  C         17.3800  -21.9330   -4.0990 C.2     1  UNL1       -0.0360
     30  C         18.1320  -20.8240   -3.6710 C.2     1  UNL1        0.0090
     31  C         17.6350  -22.5230   -5.3530 C.2     1  UNL1        0.0310
     32  C         19.1840  -20.3400   -4.4410 C.2     1  UNL1        0.0010
     33  C         19.5020  -20.9720   -5.6350 C.2     1  UNL1        0.0020
     34  C         18.7450  -22.0630   -6.0760 C.2     1  UNL1        0.0250
@<TRIPOS>BOND
     1    19    18    1
     2    20    18    2
     3    18    17   am
     4    17    21    1
     5    17    14    1
     6    15    14    2
     7    15    16    1
     8    14    13    1
     9    16    11    2
    10    13    12    2
    11    11    12    1
    12    11     8    1
    13     9     8    1
    14     8     7   am
    15     7    10    2
    16     7     1    1
    17     6     1    2
    18     6     5    1
    19     1     2    1
    20     5     4    2
    21     2     3    2
    22     4     3    1
    23     4    22    1
    24    23    22    2
    25    24    22    2
    26    22    25    1
    27    34    33    2
    28    34    31    1
    29    25    31    1
    30    25    26    1
    31    33    32    1
    32    31    29    2
    33    26    27    1
    34    32    30    2
    35    29    30    1
    36    29    28    1
    37    27    28    1
