@<TRIPOS>MOLECULE
26155_out_ligand_01.pdbqt
 29 32 0 0 0
SMALL
GASTEIGER

@<TRIPOS>ATOM
      1  C         19.2750  -22.2330  -10.4370 C.2     1  UNL1        0.0320
      2  C         19.8810  -23.0860   -9.5010 C.2     1  UNL1        0.0180
      3  C         19.1120  -23.7270   -8.5280 C.2     1  UNL1        0.0260
      4  C         17.7300  -23.5230   -8.5070 C.2     1  UNL1        0.0800
      5  C         17.1120  -22.6810   -9.4370 C.2     1  UNL1        0.0260
      6  C         17.8870  -22.0390  -10.4070 C.2     1  UNL1        0.0180
      7  S         16.7190  -24.3360   -7.2790 S.O2    1  UNL1        0.2650
      8  O         15.6270  -24.9860   -7.9740 O.2     1  UNL1       -0.2000
      9  O         17.6430  -25.0970   -6.4650 O.2     1  UNL1       -0.2000
     10  N         16.0840  -22.9920   -6.3950 N.pl3   1  UNL1       -0.2710
     11  C         14.7460  -23.2130   -5.7760 C.3     1  UNL1        0.1420
     12  C         14.8760  -23.7900   -4.3760 C.3     1  UNL1        0.0260
     13  C         15.6500  -22.8350   -3.4820 C.3     1  UNL1        0.0420
     14  C         16.8710  -22.2630   -4.1530 C.2     1  UNL1       -0.0310
     15  C         17.8220  -21.5990   -3.3600 C.2     1  UNL1        0.0090
     16  C         17.0430  -22.3070   -5.5480 C.2     1  UNL1        0.0510
     17  C         18.9290  -20.9860   -3.9430 C.2     1  UNL1        0.0010
     18  C         19.0880  -21.0130   -5.3230 C.2     1  UNL1        0.0020
     19  C         18.1450  -21.6650   -6.1210 C.2     1  UNL1        0.0310
     20  C         20.1380  -21.5800  -11.4600 C.2     1  UNL1        0.2510
     21  O         19.6920  -20.6720  -12.1530 O.2     1  UNL1       -0.2680
     22  N         21.4180  -22.0760  -11.5910 N.am    1  UNL1       -0.3540
     23  H         21.6010  -23.0100  -11.2450 H       1  UNL1        0.1620
     24  C         22.2710  -21.6410  -12.6850 C.3     1  UNL1        0.1550
     25  C         23.6350  -22.3460  -12.6450 C.3     1  UNL1        0.1390
     26  C         24.7900  -21.3790  -12.4280 C.3     1  UNL1        0.0350
     27  C         24.9630  -21.3910  -10.9290 C.3     1  UNL1        0.0290
     28  C         24.6560  -22.8310  -10.5950 C.3     1  UNL1        0.1680
     29  O         23.6440  -23.2560  -11.5170 O.3     1  UNL1       -0.3840
@<TRIPOS>BOND
     1    24    25    1
     2    24    22    1
     3    25    26    1
     4    25    29    1
     5    26    27    1
     6    21    20    2
     7    22    20   am
     8    22    23    1
     9    29    28    1
    10    20     1    1
    11    27    28    1
    12     1     6    2
    13     1     2    1
    14     6     5    1
    15     2     3    2
    16     5     4    2
    17     3     4    1
    18     4     7    1
    19     8     7    2
    20     7     9    2
    21     7    10    1
    22    10    11    1
    23    10    16    1
    24    19    16    1
    25    19    18    2
    26    11    12    1
    27    16    14    2
    28    18    17    1
    29    12    13    1
    30    14    13    1
    31    14    15    1
    32    17    15    2
