@<TRIPOS>MOLECULE
26152_out_ligand_01.pdbqt
 33 36 0 0 0
SMALL
GASTEIGER

@<TRIPOS>ATOM
      1  C         19.7030  -22.5820  -10.1720 C.2     1  UNL1        0.0160
      2  C         18.3080  -22.4750  -10.2850 C.2     1  UNL1        0.0190
      3  C         17.7290  -21.5280  -11.1330 C.2     1  UNL1        0.0010
      4  C         18.5330  -20.6800  -11.8890 C.2     1  UNL1        0.0010
      5  C         19.9210  -20.7800  -11.8000 C.2     1  UNL1        0.0180
      6  C         20.5090  -21.7330  -10.9500 C.2     1  UNL1        0.0480
      7  C         21.9920  -21.7800  -10.8970 C.2     1  UNL1        0.2530
      8  O         22.6250  -21.0860  -10.1120 O.2     1  UNL1       -0.2680
      9  N         22.5740  -22.6380  -11.8040 N.am    1  UNL1       -0.3530
     10  H         21.9960  -23.3030  -12.3020 H       1  UNL1        0.1630
     11  C         24.0030  -22.8430  -11.8110 C.3     1  UNL1        0.1610
     12  C         24.5060  -23.0170  -13.2200 C.2     1  UNL1       -0.0380
     13  C         25.2800  -24.1440  -13.5740 C.2     1  UNL1        0.0120
     14  C         25.7380  -24.3190  -14.8850 C.2     1  UNL1        0.0400
     15  C         25.4010  -23.3610  -15.8170 C.2     1  UNL1        0.1050
     16  C         24.6400  -22.2640  -15.4840 C.2     1  UNL1        0.1050
     17  O         25.7540  -23.3670  -17.1300 O.2     1  UNL1       -0.3230
     18  C         24.1800  -22.0630  -14.2010 C.2     1  UNL1        0.0480
     19  O         24.4160  -21.4450  -16.5460 O.2     1  UNL1       -0.3230
     20  C         25.1220  -22.1520  -17.5870 C.3     1  UNL1        0.3520
     21  S         20.3430  -23.8570   -9.0890 S.3     1  UNL1       -0.1200
     22  C         21.0260  -22.7860   -7.7720 C.3     1  UNL1        0.1820
     23  C         19.9180  -22.1740   -6.9260 C.2     1  UNL1        0.2310
     24  O         20.0720  -21.0880   -6.3750 O.2     1  UNL1       -0.2720
     25  N         18.7980  -22.9880   -6.8240 N.am    1  UNL1       -0.3270
     26  H         18.8180  -23.8270   -7.3950 H       1  UNL1        0.1690
     27  C         17.6160  -22.7470   -6.0990 C.2     1  UNL1        0.0340
     28  C         17.5530  -22.6850   -4.7030 C.2     1  UNL1        0.0320
     29  C         16.3360  -22.4440   -4.0580 C.2     1  UNL1        0.0440
     30  C         15.1810  -22.2680   -4.8110 C.2     1  UNL1        0.1160
     31  F         14.0160  -22.0370   -4.1920 F       1  UNL1       -0.2060
     32  C         15.2220  -22.3280   -6.1970 C.2     1  UNL1        0.0440
     33  C         16.4390  -22.5680   -6.8410 C.2     1  UNL1        0.0320
@<TRIPOS>BOND
     1    20    17    1
     2    20    19    1
     3    17    15    1
     4    19    16    1
     5    15    16    2
     6    15    14    1
     7    16    18    1
     8    14    13    2
     9    18    12    2
    10    13    12    1
    11    12    11    1
    12    10     9    1
    13     4     5    2
    14     4     3    1
    15    11     9    1
    16     9     7   am
    17     5     6    1
    18     3     2    2
    19     6     7    1
    20     6     1    2
    21     7     8    2
    22     2     1    1
    23     1    21    1
    24    21    22    1
    25    22    23    1
    26    26    25    1
    27    23    25   am
    28    23    24    2
    29    33    32    1
    30    33    27    2
    31    25    27    1
    32    32    30    2
    33    27    28    1
    34    30    31    1
    35    30    29    1
    36    28    29    2
