@<TRIPOS>MOLECULE
26173_out_ligand_01.pdbqt
 33 37 0 0 0
SMALL
GASTEIGER

@<TRIPOS>ATOM
      1  C         21.0860  -22.5700  -10.9090 C.2     1  UNL1        0.0320
      2  C         20.8880  -23.5220   -9.8970 C.2     1  UNL1        0.0180
      3  C         19.6590  -23.6100   -9.2400 C.2     1  UNL1        0.0260
      4  C         18.6280  -22.7400   -9.6030 C.2     1  UNL1        0.0800
      5  C         18.8030  -21.8050  -10.6280 C.2     1  UNL1        0.0260
      6  C         20.0330  -21.7230  -11.2850 C.2     1  UNL1        0.0180
      7  C         22.4170  -22.5210  -11.5840 C.2     1  UNL1        0.2560
      8  O         23.3050  -23.2510  -11.1610 O.2     1  UNL1       -0.2670
      9  N         22.5170  -21.6020  -12.6120 N.am    1  UNL1       -0.3230
     10  H         21.7340  -20.9770  -12.7500 H       1  UNL1        0.1690
     11  C         23.6320  -21.3690  -13.4470 C.2     1  UNL1        0.0370
     12  C         24.8860  -21.2800  -12.8230 C.2     1  UNL1        0.0320
     13  C         26.0420  -21.0380  -13.5710 C.2     1  UNL1        0.0420
     14  C         25.9520  -20.8780  -14.9490 C.2     1  UNL1        0.1020
     15  C         24.7110  -20.9870  -15.5820 C.2     1  UNL1        0.1040
     16  O         27.1210  -20.6200  -15.6180 O.2     1  UNL1       -0.3460
     17  C         23.5540  -21.2160  -14.8330 C.2     1  UNL1        0.0690
     18  O         24.5520  -20.8680  -16.9400 O.2     1  UNL1       -0.3460
     19  C         25.8040  -20.9880  -17.6260 C.3     1  UNL1        0.2020
     20  C         26.8670  -20.1440  -16.9460 C.3     1  UNL1        0.2020
     21  S         17.0410  -22.8330   -8.7860 S.O2    1  UNL1        0.2650
     22  O         16.6370  -21.4580   -8.5790 O.2     1  UNL1       -0.2000
     23  O         16.2140  -23.7500   -9.5430 O.2     1  UNL1       -0.2000
     24  N         17.4630  -23.5820   -7.2870 N.pl3   1  UNL1       -0.2710
     25  C         16.5560  -24.6810   -6.8480 C.3     1  UNL1        0.1420
     26  C         15.4100  -24.1450   -6.0050 C.3     1  UNL1        0.0260
     27  C         15.9470  -23.4620   -4.7580 C.3     1  UNL1        0.0420
     28  C         17.1250  -22.5680   -5.0420 C.2     1  UNL1       -0.0310
     29  C         17.5360  -21.6670   -4.0450 C.2     1  UNL1        0.0090
     30  C         17.8640  -22.6660   -6.2330 C.2     1  UNL1        0.0510
     31  C         18.6660  -20.8730   -4.2280 C.2     1  UNL1        0.0010
     32  C         19.4070  -20.9840   -5.3990 C.2     1  UNL1        0.0020
     33  C         19.0110  -21.8820   -6.3920 C.2     1  UNL1        0.0310
@<TRIPOS>BOND
     1    19    20    1
     2    19    18    1
     3    20    16    1
     4    18    15    1
     5    16    14    1
     6    15    14    2
     7    15    17    1
     8    14    13    1
     9    17    11    2
    10    13    12    2
    11    11    12    1
    12    11     9    1
    13    10     9    1
    14     9     7   am
    15     7     8    2
    16     7     1    1
    17     6     1    2
    18     6     5    1
    19     1     2    1
    20     5     4    2
    21     2     3    2
    22     4     3    1
    23     4    21    1
    24    23    21    2
    25    21    22    2
    26    21    24    1
    27    24    25    1
    28    24    30    1
    29    25    26    1
    30    33    30    1
    31    33    32    2
    32    30    28    2
    33    26    27    1
    34    32    31    1
    35    28    27    1
    36    28    29    1
    37    31    29    2
