@<TRIPOS>MOLECULE
26172_out_ligand_01.pdbqt
 35 38 0 0 0
SMALL
GASTEIGER

@<TRIPOS>ATOM
      1  C         20.2290  -22.9760   -9.7540 C.2     1  UNL1        0.0320
      2  C         20.7200  -21.9120  -10.5220 C.2     1  UNL1        0.0190
      3  C         22.0990  -21.7010  -10.6250 C.2     1  UNL1        0.0310
      4  C         22.9850  -22.5570   -9.9700 C.2     1  UNL1        0.0420
      5  C         22.5040  -23.6230   -9.2110 C.2     1  UNL1        0.0310
      6  C         21.1280  -23.8370   -9.1100 C.2     1  UNL1        0.0190
      7  N         24.3840  -22.3180  -10.0350 N.pl3   1  UNL1       -0.2810
      8  H         24.9290  -22.4860   -9.1900 H       1  UNL1        0.1790
      9  S         25.2140  -22.8660  -11.4030 S.O2    1  UNL1        0.2630
     10  O         24.2810  -23.4820  -12.3200 O.2     1  UNL1       -0.2000
     11  O         26.3650  -23.5910  -10.9080 O.2     1  UNL1       -0.2000
     12  C         25.8130  -21.3540  -12.1190 C.2     1  UNL1        0.0820
     13  C         26.6420  -20.5010  -11.3470 C.2     1  UNL1        0.0280
     14  C         27.1200  -19.3000  -11.8820 C.2     1  UNL1        0.0330
     15  C         26.7360  -19.0020  -13.1690 C.ar    1  UNL1        0.0630
     16  N         27.0460  -17.8970  -13.9540 N.ar    1  UNL1       -0.3070
     17  C         25.9090  -19.8400  -13.9180 C.ar    1  UNL1        0.0640
     18  C         26.4140  -18.0340  -15.1970 C.ar    1  UNL1        0.3250
     19  H         27.6180  -17.1070  -13.7030 H       1  UNL1        0.1700
     20  O         26.4640  -17.2520  -16.1290 O.2     1  UNL1       -0.2470
     21  N         25.7120  -19.2490  -15.1600 N.ar    1  UNL1       -0.3060
     22  H         25.1590  -19.5970  -15.9250 H       1  UNL1        0.1700
     23  C         25.4230  -21.0260  -13.4240 C.2     1  UNL1        0.0570
     24  C         18.7710  -23.2440   -9.6140 C.2     1  UNL1        0.2520
     25  N         18.2590  -23.1910   -8.3360 N.am    1  UNL1       -0.3490
     26  H         18.8960  -23.1940   -7.5520 H       1  UNL1        0.1630
     27  O         18.1020  -23.5240  -10.6020 O.2     1  UNL1       -0.2680
     28  C         16.8710  -23.5250   -8.0570 C.3     1  UNL1        0.1140
     29  C         15.9070  -22.5560   -8.7490 C.3     1  UNL1        0.0370
     30  C         16.6560  -23.5700   -6.5530 C.2     1  UNL1       -0.0360
     31  C         17.7340  -23.6110   -5.6540 C.2     1  UNL1        0.0090
     32  C         17.5130  -23.6750   -4.2770 C.2     1  UNL1        0.0010
     33  C         16.2120  -23.7080   -3.7800 C.2     1  UNL1        0.0000
     34  C         15.1310  -23.6790   -4.6590 C.2     1  UNL1        0.0010
     35  C         15.3520  -23.6130   -6.0370 C.2     1  UNL1        0.0090
@<TRIPOS>BOND
     1    20    18    2
     2    22    21    1
     3    18    21   ar
     4    18    16   ar
     5    21    17   ar
     6    16    19    1
     7    16    15   ar
     8    17    23    1
     9    17    15   ar
    10    23    12    2
    11    15    14    1
    12    10     9    2
    13    12     9    1
    14    12    13    1
    15    14    13    2
    16     9    11    2
    17     9     7    1
    18     3     2    1
    19     3     4    2
    20    27    24    2
    21     2     1    2
    22     7     4    1
    23     7     8    1
    24     4     5    1
    25     1    24    1
    26     1     6    1
    27    24    25   am
    28     5     6    2
    29    29    28    1
    30    25    28    1
    31    25    26    1
    32    28    30    1
    33    30    35    2
    34    30    31    1
    35    35    34    1
    36    31    32    2
    37    34    33    2
    38    32    33    1
