@<TRIPOS>MOLECULE
26187_out_ligand_01.pdbqt
 30 33 0 0 0
SMALL
GASTEIGER

@<TRIPOS>ATOM
      1  N         20.2370  -22.8800   -7.8160 N.am    1  UNL1       -0.3270
      2  C         20.9510  -23.8010   -8.5640 C.2     1  UNL1        0.2260
      3  O         20.6330  -24.9760   -8.7430 O.2     1  UNL1       -0.2730
      4  H         20.6200  -21.9450   -7.7550 H       1  UNL1        0.1690
      5  C         22.1940  -23.2540   -9.2600 C.3     1  UNL1        0.1440
      6  C         21.9540  -22.6300  -10.5960 C.2     1  UNL1       -0.0130
      7  C         20.7070  -22.3220  -11.1060 C.2     1  UNL1        0.1510
      8  O         20.8070  -21.7320  -12.3160 O.2     1  UNL1       -0.3210
      9  C         22.1290  -21.6710  -12.6230 C.2     1  UNL1        0.0860
     10  C         22.6300  -21.1230  -13.7980 C.2     1  UNL1        0.0390
     11  C         22.9030  -22.2240  -11.6040 C.2     1  UNL1        0.0170
     12  C         24.0170  -21.1350  -13.9550 C.2     1  UNL1        0.0150
     13  C         24.8630  -21.6780  -12.9780 C.2     1  UNL1       -0.0250
     14  C         26.2520  -21.6730  -13.1700 C.2     1  UNL1        0.0120
     15  C         24.3240  -22.2390  -11.7840 C.2     1  UNL1       -0.0120
     16  C         27.1110  -22.2120  -12.2110 C.2     1  UNL1        0.0010
     17  C         26.5920  -22.7670  -11.0470 C.2     1  UNL1        0.0010
     18  C         25.2130  -22.7860  -10.8330 C.2     1  UNL1        0.0130
     19  C         19.0670  -23.1040   -7.0610 C.2     1  UNL1        0.0340
     20  C         18.7740  -22.1690   -6.0550 C.2     1  UNL1        0.0310
     21  C         17.6350  -22.3090   -5.2560 C.2     1  UNL1        0.0270
     22  C         16.7800  -23.3900   -5.4670 C.2     1  UNL1        0.0740
     23  C         17.0640  -24.3370   -6.4520 C.2     1  UNL1        0.0270
     24  C         18.2040  -24.1870   -7.2500 C.2     1  UNL1        0.0310
     25  S         15.3330  -23.5920   -4.4640 S.O2    1  UNL1        0.2390
     26  O         15.6670  -24.4400   -3.3420 O.2     1  UNL1       -0.2060
     27  O         14.2100  -23.8540   -5.3300 O.2     1  UNL1       -0.2060
     28  N         15.1510  -22.0470   -3.8190 N.3     1  UNL1       -0.2250
     29  H         14.3090  -21.9400   -3.2540 H       1  UNL1        0.1360
     30  H         15.1920  -21.3660   -4.5790 H       1  UNL1        0.1360
@<TRIPOS>BOND
     1    12    10    1
     2    12    13    2
     3    10     9    2
     4    14    13    1
     5    14    16    2
     6    13    15    1
     7     9     8    1
     8     9    11    1
     9     8     7    1
    10    16    17    1
    11    15    11    2
    12    15    18    1
    13    11     6    1
    14     7     6    2
    15    17    18    2
    16     6     5    1
    17     5     2    1
    18     3     2    2
    19     2     1   am
    20     1     4    1
    21     1    19    1
    22    24    19    2
    23    24    23    1
    24    19    20    1
    25    23    22    2
    26    20    21    2
    27    22    21    1
    28    22    25    1
    29    27    25    2
    30    30    28    1
    31    25    28    1
    32    25    26    2
    33    28    29    1
