@<TRIPOS>MOLECULE
26192_out_ligand_01.pdbqt
 32 36 0 0 0
SMALL
GASTEIGER

@<TRIPOS>ATOM
      1  C         20.7390  -22.7080  -10.3990 C.2     1  UNL1        0.0330
      2  C         20.0340  -21.8460  -11.2770 C.2     1  UNL1        0.0180
      3  C         20.6810  -21.2440  -12.3620 C.2     1  UNL1        0.0190
      4  C         22.0200  -21.5340  -12.5410 C.2     1  UNL1        0.0480
      5  C         22.7060  -22.3870  -11.6960 C.2     1  UNL1        0.0490
      6  C         22.0950  -22.9970  -10.6170 C.2     1  UNL1        0.0350
      7  C         24.0840  -22.4720  -12.1780 C.2     1  UNL1        0.2620
      8  O         24.9550  -23.1290  -11.6430 O.2     1  UNL1       -0.2670
      9  N         24.1540  -21.6750  -13.2860 N.am    1  UNL1       -0.2760
     10  C         22.9590  -21.0750  -13.5640 C.2     1  UNL1        0.2620
     11  O         22.6670  -20.2990  -14.4540 O.2     1  UNL1       -0.2670
     12  C         20.0580  -23.3660   -9.2490 C.2     1  UNL1        0.2560
     13  O         20.5950  -24.3470   -8.7520 O.2     1  UNL1       -0.2670
     14  N         18.8850  -22.7580   -8.8400 N.am    1  UNL1       -0.3230
     15  H         18.6420  -21.8770   -9.2740 H       1  UNL1        0.1690
     16  C         18.0160  -23.1820   -7.8120 C.2     1  UNL1        0.0370
     17  C         16.8370  -23.8990   -8.0330 C.2     1  UNL1        0.0320
     18  C         16.0200  -24.2730   -6.9590 C.2     1  UNL1        0.0420
     19  C         16.3740  -23.9270   -5.6600 C.2     1  UNL1        0.1020
     20  C         17.5620  -23.2310   -5.4280 C.2     1  UNL1        0.1040
     21  O         15.5160  -24.3060   -4.6600 O.2     1  UNL1       -0.3460
     22  C         18.3700  -22.8470   -6.4990 C.2     1  UNL1        0.0690
     23  O         17.9960  -22.8830   -4.1730 O.2     1  UNL1       -0.3460
     24  C         17.2920  -23.6090   -3.1590 C.3     1  UNL1        0.2020
     25  C         15.7990  -23.6150   -3.4400 C.3     1  UNL1        0.2020
     26  C         25.3430  -21.5190  -14.0930 C.3     1  UNL1        0.1740
     27  C         25.1070  -21.9750  -15.5150 C.2     1  UNL1       -0.0400
     28  C         25.2990  -21.0920  -16.5860 C.2     1  UNL1        0.0090
     29  C         25.0570  -21.5070  -17.8970 C.2     1  UNL1        0.0010
     30  C         24.6150  -22.8040  -18.1470 C.2     1  UNL1        0.0000
     31  C         24.4100  -23.6870  -17.0890 C.2     1  UNL1        0.0010
     32  C         24.6510  -23.2740  -15.7780 C.2     1  UNL1        0.0090
@<TRIPOS>BOND
     1    30    29    2
     2    30    31    1
     3    29    28    1
     4    31    32    2
     5    28    27    2
     6    32    27    1
     7    27    26    1
     8    11    10    2
     9    26     9    1
    10    10     9   am
    11    10     4    1
    12     9     7   am
    13     4     3    2
    14     4     5    1
    15     3     2    1
    16     7     5    1
    17     7     8    2
    18     5     6    2
    19     2     1    2
    20     6     1    1
    21     1    12    1
    22    15    14    1
    23    12    14   am
    24    12    13    2
    25    14    16    1
    26    17    16    2
    27    17    18    1
    28    16    22    1
    29    18    19    2
    30    22    20    2
    31    19    20    1
    32    19    21    1
    33    20    23    1
    34    21    25    1
    35    23    24    1
    36    25    24    1
