@<TRIPOS>MOLECULE
26197_out_ligand_01.pdbqt
 34 38 0 0 0
SMALL
GASTEIGER

@<TRIPOS>ATOM
      1  C         19.4550  -22.0660  -10.7620 C.2     1  UNL1        0.0330
      2  C         19.2220  -20.9080  -11.5180 C.2     1  UNL1        0.0170
      3  C         17.9260  -20.4020  -11.6450 C.2     1  UNL1        0.0030
      4  C         16.8590  -21.0420  -11.0120 C.2     1  UNL1        0.0250
      5  C         17.1000  -22.1850  -10.2460 C.2     1  UNL1        0.0800
      6  C         18.3910  -22.7050  -10.1170 C.2     1  UNL1        0.0420
      7  S         15.7610  -23.0040   -9.4210 S.O2    1  UNL1        0.2590
      8  O         16.0560  -24.4190   -9.4360 O.2     1  UNL1       -0.2010
      9  O         14.5150  -22.4800   -9.9350 O.2     1  UNL1       -0.2010
     10  N         15.9460  -22.4860   -7.8520 N.3     1  UNL1       -0.3060
     11  H         15.8750  -21.4810   -7.7000 H       1  UNL1        0.1730
     12  C         16.6500  -23.3040   -6.8630 C.3     1  UNL1        0.1260
     13  C         15.6080  -24.0660   -6.0280 C.3     1  UNL1        0.0310
     14  C         14.9210  -23.1510   -5.0190 C.3     1  UNL1        0.0070
     15  C         15.9390  -22.5890   -4.0310 C.3     1  UNL1        0.0390
     16  C         17.1900  -22.0640   -4.6930 C.2     1  UNL1       -0.0500
     17  C         18.0470  -21.2350   -3.9520 C.2     1  UNL1        0.0070
     18  C         17.5450  -22.4300   -6.0060 C.2     1  UNL1       -0.0290
     19  C         19.2310  -20.7550   -4.5090 C.2     1  UNL1        0.0010
     20  C         19.5760  -21.1020   -5.8120 C.2     1  UNL1        0.0010
     21  C         18.7390  -21.9320   -6.5550 C.2     1  UNL1        0.0100
     22  C         20.8240  -22.6190  -10.5870 C.2     1  UNL1        0.2560
     23  O         20.9790  -23.5160   -9.7680 O.2     1  UNL1       -0.2670
     24  N         21.7830  -22.0630  -11.4140 N.am    1  UNL1       -0.3230
     25  H         21.4580  -21.4210  -12.1250 H       1  UNL1        0.1690
     26  C         23.1620  -22.3570  -11.4440 C.2     1  UNL1        0.0370
     27  C         24.1020  -21.7960  -10.5570 C.2     1  UNL1        0.0320
     28  C         25.4620  -22.1250  -10.6420 C.2     1  UNL1        0.0420
     29  C         25.8510  -23.0100  -11.6190 C.2     1  UNL1        0.1050
     30  C         24.9430  -23.5600  -12.4910 C.2     1  UNL1        0.1070
     31  O         27.1190  -23.4410  -11.8500 O.2     1  UNL1       -0.3230
     32  C         23.5970  -23.2550  -12.4310 C.2     1  UNL1        0.0690
     33  O         25.5250  -24.4080  -13.3810 O.2     1  UNL1       -0.3230
     34  C         26.9050  -24.3320  -12.9640 C.3     1  UNL1        0.3520
@<TRIPOS>BOND
     1    33    34    1
     2    33    30    1
     3    34    31    1
     4    30    32    1
     5    30    29    2
     6    32    26    2
     7    25    24    1
     8    31    29    1
     9     3     2    1
    10     3     4    2
    11    29    28    1
    12     2     1    2
    13    26    24    1
    14    26    27    1
    15    24    22   am
    16     4     5    1
    17     1    22    1
    18     1     6    1
    19    28    27    2
    20    22    23    2
    21     5     6    2
    22     5     7    1
    23     9     7    2
    24     8     7    2
    25     7    10    1
    26    10    11    1
    27    10    12    1
    28    12    13    1
    29    12    18    1
    30    21    18    1
    31    21    20    2
    32    13    14    1
    33    18    16    2
    34    20    19    1
    35    14    15    1
    36    16    15    1
    37    16    17    1
    38    19    17    2
