@<TRIPOS>MOLECULE
26205_out_ligand_01.pdbqt
 33 36 0 0 0
SMALL
GASTEIGER

@<TRIPOS>ATOM
      1  C         23.2720  -21.9770  -11.3580 C.2     1  UNL1        0.0800
      2  C         21.9710  -22.1530  -11.8270 C.2     1  UNL1        0.0270
      3  C         20.9190  -22.2640  -10.9130 C.2     1  UNL1        0.0310
      4  C         21.1590  -22.2070   -9.5320 C.2     1  UNL1        0.0350
      5  C         22.4710  -22.0430   -9.0780 C.2     1  UNL1        0.0310
      6  C         23.5300  -21.9330   -9.9860 C.2     1  UNL1        0.0270
      7  N         20.0430  -22.3250   -8.6850 N.am    1  UNL1       -0.3210
      8  C         19.4610  -23.4740   -8.1780 C.2     1  UNL1        0.2800
      9  O         19.8420  -24.6190   -8.3970 O.2     1  UNL1       -0.2650
     10  H         19.5910  -21.4630   -8.3940 H       1  UNL1        0.1690
     11  C         18.3120  -23.1850   -7.3300 C.ar    1  UNL1        0.1500
     12  O         18.4950  -23.1420   -5.9710 O.2     1  UNL1       -0.3040
     13  C         17.2910  -22.8610   -5.4080 C.ar    1  UNL1        0.0870
     14  C         17.0530  -22.7320   -4.0410 C.2     1  UNL1        0.0380
     15  C         16.3190  -22.7170   -6.3890 C.ar    1  UNL1        0.0070
     16  C         15.7410  -22.4380   -3.6600 C.2     1  UNL1        0.0030
     17  C         14.7310  -22.2850   -4.6130 C.2     1  UNL1        0.0010
     18  C         15.0040  -22.4210   -5.9820 C.2     1  UNL1        0.0150
     19  C         16.9810  -22.9270   -7.6370 C.ar    1  UNL1       -0.0090
     20  C         16.3820  -22.8830   -8.9960 C.3     1  UNL1        0.0520
     21  S         24.6240  -21.8640  -12.5020 S.O2    1  UNL1        0.2640
     22  O         25.0610  -23.1940  -12.8710 O.2     1  UNL1       -0.2000
     23  O         25.5680  -20.9180  -11.9390 O.2     1  UNL1       -0.2000
     24  N         23.9750  -21.0970  -13.8370 N.pl3   1  UNL1       -0.2640
     25  H         23.4980  -20.2340  -13.6030 H       1  UNL1        0.1800
     26  C         24.5960  -21.2390  -15.0930 C.2     1  UNL1        0.1410
     27  C         25.5550  -20.3320  -15.4770 C.2     1  UNL1        0.0770
     28  C         26.0540  -20.4870  -16.7530 C.2     1  UNL1        0.0360
     29  C         27.1210  -19.5680  -17.2670 C.3     1  UNL1        0.0700
     30  N         25.6100  -21.4500  -17.5850 N.2     1  UNL1       -0.2390
     31  C         24.6410  -22.2610  -17.1230 C.2     1  UNL1        0.1240
     32  N         24.1060  -22.1880  -15.8950 N.2     1  UNL1       -0.2160
     33  C         24.1530  -23.3460  -18.0300 C.3     1  UNL1        0.0930
@<TRIPOS>BOND
     1    33    31    1
     2    30    31    2
     3    30    28    1
     4    29    28    1
     5    31    32    1
     6    28    27    2
     7    32    26    2
     8    27    26    1
     9    26    24    1
    10    24    25    1
    11    24    21    1
    12    22    21    2
    13    21    23    2
    14    21     1    1
    15     2     1    2
    16     2     3    1
    17     1     6    1
    18     3     4    2
    19     6     5    2
    20     4     5    1
    21     4     7    1
    22    20    19    1
    23     7    10    1
    24     7     8   am
    25     9     8    2
    26     8    11    1
    27    19    11   ar
    28    19    15   ar
    29    11    12   ar
    30    15    18    1
    31    15    13   ar
    32    18    17    2
    33    12    13   ar
    34    13    14    1
    35    17    16    1
    36    14    16    2
