@<TRIPOS>MOLECULE
26210_out_ligand_01.pdbqt
 28 31 0 0 0
SMALL
GASTEIGER

@<TRIPOS>ATOM
      1  C         17.8080  -22.3180   -9.8380 C.2     1  UNL1        0.0390
      2  C         17.0460  -21.3970  -10.5770 C.2     1  UNL1        0.0170
      3  C         17.6210  -20.6960  -11.6350 C.2     1  UNL1        0.0010
      4  C         18.9560  -20.9130  -11.9600 C.2     1  UNL1        0.0010
      5  C         19.7190  -21.8240  -11.2260 C.2     1  UNL1        0.0090
      6  C         19.1640  -22.5400  -10.1490 C.2     1  UNL1       -0.0330
      7  C         20.0350  -23.5100   -9.3840 C.3     1  UNL1        0.1220
      8  S         21.2460  -22.6810   -8.3130 S.3     1  UNL1       -0.0870
      9  C         22.5690  -22.4360   -9.3860 C.ar    1  UNL1        0.1670
     10  N         23.4340  -21.4520   -9.3960 N.ar    1  UNL1       -0.2230
     11  C         24.2660  -21.7310  -10.4550 C.ar    1  UNL1        0.0860
     12  C         25.3750  -21.0200  -10.9340 C.2     1  UNL1        0.0340
     13  C         23.8860  -22.9090  -11.0950 C.ar    1  UNL1        0.0630
     14  C         26.0660  -21.5220  -12.0460 C.2     1  UNL1        0.0020
     15  C         25.6600  -22.7060  -12.6680 C.2     1  UNL1        0.0020
     16  C         24.5550  -23.4310  -12.2040 C.2     1  UNL1        0.0320
     17  N         22.7900  -23.3330  -10.3890 N.ar    1  UNL1       -0.3330
     18  H         22.2360  -24.1570  -10.5600 H       1  UNL1        0.1680
     19  C         17.1300  -23.0470   -8.7350 C.2     1  UNL1        0.2520
     20  O         16.3870  -23.9870   -8.9740 O.2     1  UNL1       -0.2680
     21  N         17.4030  -22.5580   -7.4760 N.am    1  UNL1       -0.3520
     22  H         17.9580  -21.7130   -7.4010 H       1  UNL1        0.1630
     23  C         16.8240  -23.0900   -6.2480 C.3     1  UNL1        0.0840
     24  C         17.8000  -23.0530   -5.0570 C.3     1  UNL1        0.0250
     25  C         17.3380  -22.1310   -3.9330 C.3     1  UNL1        0.0020
     26  C         15.9320  -22.4740   -3.4430 C.3     1  UNL1        0.0000
     27  C         14.9680  -22.8850   -4.5570 C.3     1  UNL1        0.0020
     28  C         15.4550  -22.4660   -5.9390 C.3     1  UNL1        0.0250
@<TRIPOS>BOND
     1    15    16    2
     2    15    14    1
     3    16    13    1
     4    14    12    2
     5     4     3    2
     6     4     5    1
     7     3     2    1
     8     5     6    2
     9    13    11   ar
    10    13    17   ar
    11    12    11    1
    12     2     1    2
    13    18    17    1
    14    11    10   ar
    15    17     9   ar
    16     6     1    1
    17     6     7    1
    18     1    19    1
    19    10     9   ar
    20     9     8    1
    21     7     8    1
    22    20    19    2
    23    19    21   am
    24    21    22    1
    25    21    23    1
    26    23    28    1
    27    23    24    1
    28    28    27    1
    29    24    25    1
    30    27    26    1
    31    25    26    1
