@<TRIPOS>MOLECULE
26218_out_ligand_01.pdbqt
 33 37 0 0 0
SMALL
GASTEIGER

@<TRIPOS>ATOM
      1  C         19.1580  -22.4960  -10.4660 C.2     1  UNL1        0.1090
      2  N         19.8680  -21.6460  -11.2500 N.2     1  UNL1       -0.2530
      3  C         19.1980  -20.6560  -11.8860 C.2     1  UNL1        0.1180
      4  C         17.8330  -20.4570  -11.7730 C.2     1  UNL1        0.0200
      5  C         17.1100  -21.3210  -10.9550 C.2     1  UNL1        0.0210
      6  C         17.7870  -22.3420  -10.2810 C.2     1  UNL1        0.0670
      7  S         20.1300  -23.7800   -9.7020 S.3     1  UNL1       -0.1000
      8  C         21.3540  -22.7590   -8.8230 C.3     1  UNL1        0.1840
      9  C         22.3760  -22.1550   -9.7760 C.2     1  UNL1        0.2310
     10  O         22.9340  -21.0920   -9.5150 O.2     1  UNL1       -0.2720
     11  N         22.5910  -22.9430  -10.8990 N.am    1  UNL1       -0.3260
     12  H         22.0510  -23.8010  -10.9640 H       1  UNL1        0.1690
     13  C         23.4080  -22.6510  -12.0100 C.2     1  UNL1        0.0370
     14  C         24.6670  -23.2920  -12.0500 C.2     1  UNL1        0.0320
     15  C         25.5580  -23.0760  -13.1070 C.2     1  UNL1        0.0420
     16  C         25.1620  -22.2180  -14.1060 C.2     1  UNL1        0.1050
     17  C         23.9370  -21.5950  -14.0800 C.2     1  UNL1        0.1070
     18  O         25.8900  -21.8920  -15.2080 O.2     1  UNL1       -0.3230
     19  C         23.0400  -21.7860  -13.0460 C.2     1  UNL1        0.0690
     20  O         23.7460  -20.7890  -15.1590 O.2     1  UNL1       -0.3230
     21  C         24.9740  -21.0020  -15.8810 C.3     1  UNL1        0.3520
     22  C         17.0040  -23.2770   -9.4680 C.2     1  UNL1        0.2570
     23  O         16.3130  -24.0850  -10.0840 O.2     1  UNL1       -0.2670
     24  N         17.0710  -23.1770   -8.0840 N.am    1  UNL1       -0.3430
     25  C         16.4680  -24.2400   -7.2880 C.3     1  UNL1        0.1310
     26  C         18.0610  -22.3380   -7.4010 C.3     1  UNL1        0.1650
     27  C         15.8220  -23.6840   -6.0210 C.3     1  UNL1        0.0590
     28  C         16.7830  -22.8220   -5.2470 C.2     1  UNL1       -0.0490
     29  C         16.6110  -22.6330   -3.8690 C.2     1  UNL1        0.0080
     30  C         17.8270  -22.1620   -5.9180 C.2     1  UNL1       -0.0340
     31  C         17.4880  -21.8180   -3.1530 C.2     1  UNL1        0.0010
     32  C         18.5300  -21.1720   -3.8120 C.2     1  UNL1        0.0010
     33  C         18.6960  -21.3400   -5.1880 C.2     1  UNL1        0.0090
@<TRIPOS>BOND
     1    21    18    1
     2    21    20    1
     3    18    16    1
     4    20    17    1
     5    16    17    2
     6    16    15    1
     7    17    19    1
     8    15    14    2
     9    19    13    2
    10    14    13    1
    11    13    11    1
    12     3     4    2
    13     3     2    1
    14     4     5    1
    15     2     1    2
    16    12    11    1
    17     5     6    2
    18    11     9   am
    19     1     6    1
    20     1     7    1
    21     6    22    1
    22    23    22    2
    23     9    10    2
    24     9     8    1
    25     7     8    1
    26    22    24   am
    27    24    26    1
    28    24    25    1
    29    26    30    1
    30    25    27    1
    31    27    28    1
    32    30    28    2
    33    30    33    1
    34    28    29    1
    35    33    32    2
    36    29    31    2
    37    32    31    1
