@<TRIPOS>MOLECULE
26228_out_ligand_01.pdbqt
 35 38 0 0 0
SMALL
GASTEIGER

@<TRIPOS>ATOM
      1  C         19.9150  -22.7640   -9.3630 C.2     1  UNL1        0.0320
      2  C         20.9160  -23.5570   -8.7850 C.2     1  UNL1        0.0190
      3  C         22.1470  -23.7100   -9.4300 C.2     1  UNL1        0.0310
      4  C         22.3770  -23.0770  -10.6510 C.2     1  UNL1        0.0420
      5  C         21.3810  -22.3020  -11.2410 C.2     1  UNL1        0.0310
      6  C         20.1510  -22.1460  -10.5990 C.2     1  UNL1        0.0190
      7  N         23.6080  -23.2680  -11.3340 N.pl3   1  UNL1       -0.2810
      8  H         23.5670  -23.4500  -12.3360 H       1  UNL1        0.1790
      9  S         24.8820  -22.2140  -10.9750 S.O2    1  UNL1        0.2630
     10  O         26.0870  -22.9760  -10.7340 O.2     1  UNL1       -0.2000
     11  O         24.3700  -21.2940   -9.9810 O.2     1  UNL1       -0.2000
     12  C         25.0690  -21.3060  -12.4910 C.2     1  UNL1        0.0820
     13  C         24.3180  -21.7010  -13.6260 C.2     1  UNL1        0.0280
     14  C         24.4300  -21.0020  -14.8320 C.2     1  UNL1        0.0330
     15  C         25.2890  -19.9280  -14.8440 C.ar    1  UNL1        0.0630
     16  N         25.6050  -19.0560  -15.8790 N.ar    1  UNL1       -0.3070
     17  C         26.0170  -19.5370  -13.7190 C.ar    1  UNL1        0.0640
     18  C         26.5310  -18.1130  -15.4110 C.ar    1  UNL1        0.3250
     19  H         25.2450  -19.0640  -16.8200 H       1  UNL1        0.1700
     20  O         27.0240  -17.2010  -16.0480 O.2     1  UNL1       -0.2470
     21  N         26.7780  -18.4280  -14.0660 N.ar    1  UNL1       -0.3060
     22  H         27.4100  -17.9080  -13.4790 H       1  UNL1        0.1700
     23  C         25.9290  -20.1990  -12.5190 C.2     1  UNL1        0.0570
     24  C         18.5830  -22.5800   -8.7220 C.2     1  UNL1        0.2510
     25  O         18.4780  -21.8770   -7.7250 O.2     1  UNL1       -0.2680
     26  N         17.5280  -23.2640   -9.2930 N.am    1  UNL1       -0.3570
     27  H         17.7500  -24.0460   -9.8950 H       1  UNL1        0.1620
     28  C         16.2250  -23.2750   -8.6460 C.3     1  UNL1        0.1270
     29  C         16.0920  -24.4430   -7.6710 C.3     1  UNL1        0.0580
     30  C         16.1410  -23.9900   -6.2350 C.2     1  UNL1       -0.0570
     31  C         14.9910  -23.4950   -5.6040 C.2     1  UNL1        0.0070
     32  C         15.0360  -23.0920   -4.2680 C.2     1  UNL1        0.0010
     33  C         16.2260  -23.1840   -3.5510 C.2     1  UNL1        0.0000
     34  C         17.3740  -23.6790   -4.1670 C.2     1  UNL1        0.0010
     35  C         17.3320  -24.0820   -5.5020 C.2     1  UNL1        0.0070
@<TRIPOS>BOND
     1    19    16    1
     2    20    18    2
     3    16    18   ar
     4    16    15   ar
     5    18    21   ar
     6    15    14    2
     7    15    17   ar
     8    14    13    1
     9    21    17   ar
    10    21    22    1
    11    17    23    2
    12    13    12    2
    13    23    12    1
    14    12     9    1
    15     8     7    1
    16     7     9    1
    17     7     4    1
    18     5     4    2
    19     5     6    1
    20     9    10    2
    21     9    11    2
    22     4     3    1
    23     6     1    2
    24    27    26    1
    25     3     2    2
    26     1     2    1
    27     1    24    1
    28    26    24   am
    29    26    28    1
    30    24    25    2
    31    28    29    1
    32    29    30    1
    33    30    31    2
    34    30    35    1
    35    31    32    1
    36    35    34    2
    37    32    33    2
    38    34    33    1
