@<TRIPOS>MOLECULE
26245_out_ligand_01.pdbqt
 34 37 0 0 0
SMALL
GASTEIGER

@<TRIPOS>ATOM
      1  C         18.5290  -22.4390  -10.4530 C.2     1  UNL1        0.1030
      2  C         19.7300  -23.1000  -10.1740 C.2     1  UNL1        0.0510
      3  C         19.8760  -23.8620   -9.0080 C.2     1  UNL1       -0.0320
      4  C         18.7890  -24.0070   -8.1450 C.2     1  UNL1        0.0390
      5  C         17.5730  -23.3630   -8.4240 C.2     1  UNL1        0.1120
      6  C         17.4470  -22.5590   -9.5610 C.2     1  UNL1        0.1240
      7  C         21.1440  -24.5250   -8.6810 C.2     1  UNL1        0.0170
      8  C         22.3720  -24.1250   -9.0540 C.2     1  UNL1        0.0750
      9  C         22.7010  -22.9190   -9.8620 C.2     1  UNL1        0.2450
     10  O         22.6030  -21.8180   -9.3350 O.2     1  UNL1       -0.2680
     11  N         23.0460  -23.2100  -11.1620 N.am    1  UNL1       -0.3240
     12  H         23.0130  -24.1850  -11.4300 H       1  UNL1        0.1690
     13  C         23.4870  -22.3160  -12.1560 C.2     1  UNL1        0.0350
     14  C         24.8250  -21.9670  -12.3530 C.2     1  UNL1        0.0290
     15  C         25.1800  -21.0800  -13.3750 C.2     1  UNL1        0.0020
     16  C         24.2040  -20.5380  -14.2080 C.2     1  UNL1        0.0000
     17  C         22.8670  -20.8820  -14.0200 C.2     1  UNL1        0.0020
     18  C         22.5120  -21.7670  -12.9990 C.2     1  UNL1        0.0290
     19  O         18.3140  -21.6940  -11.5850 O.2     1  UNL1       -0.3530
     20  C         19.2430  -20.6490  -11.8530 C.3     1  UNL1        0.2100
     21  S         16.2590  -23.5390   -7.2310 S.O2    1  UNL1        0.2510
     22  O         15.5280  -24.7610   -7.4920 O.2     1  UNL1       -0.2050
     23  O         15.5490  -22.2720   -7.2440 O.2     1  UNL1       -0.2050
     24  N         17.1070  -23.6810   -5.7620 N.pl3   1  UNL1       -0.1710
     25  C         16.3240  -24.2080   -4.5930 C.3     1  UNL1        0.1180
     26  C         17.0290  -23.6760   -3.3360 C.3     1  UNL1        0.0560
     27  C         17.7600  -22.4910   -3.8750 C.2     1  UNL1       -0.0350
     28  C         18.4090  -21.5010   -3.1530 C.2     1  UNL1        0.0090
     29  C         17.7910  -22.5160   -5.2700 C.2     1  UNL1        0.0310
     30  C         19.1120  -20.5230   -3.8580 C.2     1  UNL1        0.0010
     31  C         19.1770  -20.5660   -5.2580 C.2     1  UNL1        0.0020
     32  C         18.5270  -21.5780   -5.9730 C.2     1  UNL1        0.0250
     33  O         16.2450  -21.9730   -9.8590 O.2     1  UNL1       -0.3520
     34  C         15.3300  -22.9180  -10.4190 C.3     1  UNL1        0.2100
@<TRIPOS>BOND
     1    16    17    2
     2    16    15    1
     3    17    18    1
     4    15    14    2
     5    18    13    2
     6    14    13    1
     7    13    11    1
     8    20    19    1
     9    19     1    1
    10    12    11    1
    11    11     9   am
    12     1     2    2
    13     1     6    1
    14    34    33    1
    15     2     3    1
    16     9    10    2
    17     9     8    1
    18    33     6    1
    19     6     5    2
    20     8     7    2
    21     3     7    1
    22     3     4    2
    23     5     4    1
    24     5    21    1
    25    22    21    2
    26    23    21    2
    27    21    24    1
    28    32    29    1
    29    32    31    2
    30    24    29    1
    31    24    25    1
    32    29    27    2
    33    31    30    1
    34    25    26    1
    35    27    26    1
    36    27    28    1
    37    30    28    2
