@<TRIPOS>MOLECULE
2624_out_ligand_01.pdbqt
 36 39 0 0 0
SMALL
GASTEIGER

@<TRIPOS>ATOM
      1  C         18.3050  -23.2040   -9.0190 C.2     1  UNL1        0.0800
      2  C         18.5220  -22.3570  -10.1060 C.2     1  UNL1        0.0270
      3  C         19.8220  -22.1590  -10.5820 C.2     1  UNL1        0.0310
      4  C         20.9040  -22.8150   -9.9890 C.2     1  UNL1        0.0350
      5  C         20.6670  -23.6840   -8.9130 C.2     1  UNL1        0.0310
      6  C         19.3710  -23.8860   -8.4310 C.2     1  UNL1        0.0270
      7  N         22.2390  -22.6700  -10.4080 N.am    1  UNL1       -0.3210
      8  C         23.2070  -21.8120   -9.9150 C.2     1  UNL1        0.2790
      9  O         23.0540  -21.0240   -8.9880 O.2     1  UNL1       -0.2650
     10  H         22.5510  -23.2650  -11.1670 H       1  UNL1        0.1690
     11  C         24.4740  -21.9380  -10.6150 C.2     1  UNL1        0.1430
     12  C         25.5170  -21.0440  -10.7700 C.2     1  UNL1        0.0450
     13  C         26.5020  -21.6930  -11.5490 C.2     1  UNL1        0.0370
     14  C         26.0110  -22.9500  -11.8330 C.2     1  UNL1        0.0730
     15  O         24.7780  -23.1090  -11.2670 O.2     1  UNL1       -0.3080
     16  C         26.5520  -24.1030  -12.5930 C.3     1  UNL1        0.2150
     17  N         25.9190  -24.1930  -13.9030 N.pl3   1  UNL1       -0.2730
     18  C         25.6830  -23.1610  -14.7710 C.2     1  UNL1        0.1500
     19  C         25.0500  -23.7240  -15.8590 C.2     1  UNL1        0.1390
     20  C         24.9390  -25.0900  -15.5510 C.2     1  UNL1        0.1760
     21  N         25.4580  -25.3820  -14.3530 N.2     1  UNL1       -0.1820
     22  N         24.6010  -23.0550  -17.0390 N.pl3   1  UNL1       -0.1130
     23  O         24.2550  -21.8730  -16.9130 O.2     1  UNL1       -0.5320
     24  O         24.5960  -23.7080  -18.0890 O.2     1  UNL1       -0.5320
     25  S         16.6490  -23.4640   -8.4190 S.O2    1  UNL1        0.2630
     26  O         15.7460  -23.2550   -9.5330 O.2     1  UNL1       -0.2000
     27  O         16.6360  -24.7020   -7.6710 O.2     1  UNL1       -0.2000
     28  N         16.4050  -22.1610   -7.3750 N.pl3   1  UNL1       -0.2800
     29  H         16.8140  -21.2990   -7.7310 H       1  UNL1        0.1790
     30  C         16.3750  -22.3680   -5.9660 C.2     1  UNL1        0.0480
     31  C         15.2060  -22.8450   -5.3650 C.2     1  UNL1        0.0300
     32  C         15.1610  -23.0770   -3.9910 C.2     1  UNL1        0.0020
     33  C         16.2850  -22.8280   -3.2090 C.2     1  UNL1        0.0010
     34  C         17.4510  -22.3410   -3.8000 C.2     1  UNL1        0.0090
     35  C         17.5120  -22.1030   -5.1830 C.2     1  UNL1       -0.0350
     36  C         18.7830  -21.5620   -5.7750 C.3     1  UNL1        0.0500
@<TRIPOS>BOND
     1    24    22    2
     2    22    23    2
     3    22    19    1
     4    19    20    1
     5    19    18    2
     6    20    21    2
     7    18    17    1
     8    21    17    1
     9    17    16    1
    10    16    14    1
    11    14    13    2
    12    14    15    1
    13    13    12    1
    14    15    11    1
    15    10     7    1
    16    12    11    2
    17    11     8    1
    18     3     2    1
    19     3     4    2
    20     7     4    1
    21     7     8   am
    22     2     1    2
    23     4     5    1
    24     8     9    2
    25    26    25    2
    26     1     6    1
    27     1    25    1
    28     5     6    2
    29    25    27    2
    30    25    28    1
    31    29    28    1
    32    28    30    1
    33    30    31    2
    34    30    35    1
    35    36    35    1
    36    31    32    1
    37    35    34    2
    38    32    33    2
    39    34    33    1
