@<TRIPOS>MOLECULE
26251_out_ligand_01.pdbqt
 35 38 0 0 0
SMALL
GASTEIGER

@<TRIPOS>ATOM
      1  C         17.7330  -23.6370   -8.2700 C.2     1  UNL1        0.0800
      2  C         17.1860  -22.7990   -9.2480 C.2     1  UNL1        0.0260
      3  C         18.0240  -22.1990  -10.1910 C.2     1  UNL1        0.0180
      4  C         19.4060  -22.4480  -10.1630 C.2     1  UNL1        0.0320
      5  C         19.9400  -23.2890   -9.1750 C.2     1  UNL1        0.0180
      6  C         19.1060  -23.8930   -8.2310 C.2     1  UNL1        0.0260
      7  C         20.3450  -21.8190  -11.1390 C.2     1  UNL1        0.2560
      8  O         19.9230  -20.8820  -11.8050 O.2     1  UNL1       -0.2670
      9  N         21.6110  -22.3700  -11.1540 N.am    1  UNL1       -0.3160
     10  H         21.8410  -23.0790  -10.4590 H       1  UNL1        0.1690
     11  C         22.6860  -22.0070  -11.9540 C.ar    1  UNL1        0.0930
     12  S         22.4530  -21.2930  -13.4920 S.2     1  UNL1       -0.0750
     13  C         24.0970  -21.1590  -13.7120 C.ar    1  UNL1       -0.0080
     14  C         24.8450  -21.6480  -12.6760 C.ar    1  UNL1       -0.0260
     15  C         24.8850  -20.5930  -14.8300 C.3     1  UNL1        0.0470
     16  C         24.0380  -22.1810  -11.6270 C.ar    1  UNL1        0.0730
     17  C         26.2950  -21.4650  -12.9590 C.3     1  UNL1        0.0410
     18  C         26.2870  -20.4750  -14.1650 C.3     1  UNL1        0.0100
     19  C         24.4460  -22.8110  -10.3710 C.2     1  UNL1        0.2520
     20  N         25.6010  -23.5360  -10.3870 N.am    1  UNL1       -0.3660
     21  H         25.8130  -24.0600   -9.5490 H       1  UNL1        0.1590
     22  H         26.0450  -23.8200  -11.2450 H       1  UNL1        0.1590
     23  O         23.7810  -22.7390   -9.3400 O.2     1  UNL1       -0.2680
     24  S         16.6440  -24.3900   -7.0780 S.O2    1  UNL1        0.2650
     25  O         15.5180  -24.9020   -7.8310 O.2     1  UNL1       -0.2000
     26  O         17.4400  -25.2640   -6.2400 O.2     1  UNL1       -0.2000
     27  N         16.1500  -23.0460   -6.1460 N.pl3   1  UNL1       -0.2720
     28  C         15.0920  -22.1610   -6.7090 C.3     1  UNL1        0.1370
     29  C         13.9860  -21.8180   -5.7240 C.3     1  UNL1        0.0280
     30  C         17.1720  -22.4040   -5.3580 C.2     1  UNL1        0.0450
     31  C         17.1450  -22.5910   -3.9730 C.2     1  UNL1        0.0300
     32  C         18.0580  -21.9260   -3.1530 C.2     1  UNL1        0.0020
     33  C         18.9890  -21.0530   -3.7140 C.2     1  UNL1        0.0000
     34  C         19.0010  -20.8390   -5.0920 C.2     1  UNL1        0.0020
     35  C         18.0860  -21.5030   -5.9120 C.2     1  UNL1        0.0300
@<TRIPOS>BOND
     1    15    18    1
     2    15    13    1
     3    18    17    1
     4    13    12   ar
     5    13    14   ar
     6    12    11   ar
     7    17    14    1
     8    14    16   ar
     9    11    16   ar
    10    11     9    1
    11     8     7    2
    12    16    19    1
    13    22    20    1
    14     9     7   am
    15     9    10    1
    16     7     4    1
    17    20    19   am
    18    20    21    1
    19    19    23    2
    20     3     4    2
    21     3     2    1
    22     4     5    1
    23     2     1    2
    24     5     6    2
    25     1     6    1
    26     1    24    1
    27    25    24    2
    28    24    26    2
    29    24    27    1
    30    28    27    1
    31    28    29    1
    32    27    30    1
    33    35    30    2
    34    35    34    1
    35    30    31    1
    36    34    33    2
    37    31    32    2
    38    33    32    1
