@<TRIPOS>MOLECULE
26256_out_ligand_01.pdbqt
 27 30 0 0 0
SMALL
GASTEIGER

@<TRIPOS>ATOM
      1  C         19.9710  -21.9270  -11.1550 C.2     1  UNL1        0.0330
      2  C         18.8190  -21.3320  -11.7320 C.2     1  UNL1        0.0180
      3  C         17.5390  -21.5760  -11.2200 C.2     1  UNL1        0.0190
      4  C         17.4480  -22.4240  -10.1360 C.2     1  UNL1        0.0480
      5  C         18.5660  -23.0150   -9.5780 C.2     1  UNL1        0.0490
      6  C         19.8440  -22.7960  -10.0610 C.2     1  UNL1        0.0350
      7  C         18.1160  -23.8490   -8.4650 C.2     1  UNL1        0.2620
      8  O         18.8720  -24.4720   -7.7460 O.2     1  UNL1       -0.2670
      9  N         16.7560  -23.7310   -8.4200 N.am    1  UNL1       -0.2740
     10  C         16.2830  -22.8820   -9.3820 C.2     1  UNL1        0.2620
     11  O         15.1400  -22.5350   -9.6090 O.2     1  UNL1       -0.2670
     12  C         21.2930  -21.6200  -11.7710 C.2     1  UNL1        0.2520
     13  O         21.3410  -20.9360  -12.7860 O.2     1  UNL1       -0.2680
     14  N         22.4090  -22.1200  -11.1330 N.am    1  UNL1       -0.3520
     15  H         22.3150  -22.6830  -10.3010 H       1  UNL1        0.1630
     16  C         23.7440  -21.9630  -11.6980 C.3     1  UNL1        0.0840
     17  C         24.2150  -23.2610  -12.3600 C.3     1  UNL1        0.0250
     18  C         25.5700  -23.0890  -13.0490 C.3     1  UNL1        0.0020
     19  C         26.4490  -22.0090  -12.4150 C.3     1  UNL1        0.0000
     20  C         26.1910  -21.8780  -10.9210 C.3     1  UNL1        0.0020
     21  C         24.7380  -21.5010  -10.6190 C.3     1  UNL1        0.0250
     22  C         15.9120  -24.4280   -7.4770 C.3     1  UNL1        0.2000
     23  C         15.8650  -23.6620   -6.2030 C.2     1  UNL1        0.0700
     24  C         15.1730  -22.5390   -5.8000 C.2     1  UNL1        0.0360
     25  C         15.5510  -22.2960   -4.4580 C.2     1  UNL1        0.0270
     26  C         16.4490  -23.2840   -4.1280 C.2     1  UNL1        0.1420
     27  O         16.6470  -24.1180   -5.1820 O.2     1  UNL1       -0.3250
@<TRIPOS>BOND
     1    18    19    1
     2    18    17    1
     3    13    12    2
     4    19    20    1
     5    17    16    1
     6    12     1    1
     7    12    14   am
     8     2     3    1
     9     2     1    2
    10    16    14    1
    11    16    21    1
    12     3     4    2
    13     1     6    1
    14    14    15    1
    15    20    21    1
    16     4     5    1
    17     4    10    1
    18     6     5    2
    19    11    10    2
    20     5     7    1
    21    10     9   am
    22     7     9   am
    23     7     8    2
    24     9    22    1
    25    22    23    1
    26    23    24    2
    27    23    27    1
    28    24    25    1
    29    27    26    1
    30    25    26    2
