@<TRIPOS>MOLECULE
26255_out_ligand_01.pdbqt
 34 37 0 0 0
SMALL
GASTEIGER

@<TRIPOS>ATOM
      1  C         21.3180  -22.8120  -10.2810 C.2     1  UNL1        0.0340
      2  C         22.6040  -23.3270  -10.0980 C.2     1  UNL1        0.0310
      3  C         23.6130  -23.0650  -11.0320 C.2     1  UNL1        0.0270
      4  C         23.3310  -22.2970  -12.1620 C.2     1  UNL1        0.0750
      5  C         22.0540  -21.7640  -12.3510 C.2     1  UNL1        0.0270
      6  C         21.0530  -22.0270  -11.4120 C.2     1  UNL1        0.0310
      7  N         20.2450  -23.0300   -9.3930 N.am    1  UNL1       -0.3260
      8  C         20.1830  -22.7340   -8.0380 C.2     1  UNL1        0.2350
      9  O         21.0950  -22.2310   -7.3810 O.2     1  UNL1       -0.2720
     10  H         19.4100  -23.4260   -9.8070 H       1  UNL1        0.1690
     11  C         18.8630  -23.1430   -7.3410 C.3     1  UNL1        0.1440
     12  C         17.6490  -23.0940   -8.2710 C.2     1  UNL1       -0.0410
     13  C         17.4840  -22.1080   -9.2560 C.2     1  UNL1        0.0080
     14  C         16.3450  -22.0890  -10.0640 C.2     1  UNL1        0.0010
     15  C         15.3510  -23.0500   -9.8970 C.2     1  UNL1        0.0000
     16  C         15.4940  -24.0330   -8.9220 C.2     1  UNL1        0.0010
     17  C         16.6320  -24.0550   -8.1150 C.2     1  UNL1        0.0080
     18  C         18.6560  -22.4600   -5.9830 C.2     1  UNL1       -0.0410
     19  C         19.0930  -21.1520   -5.7140 C.2     1  UNL1        0.0080
     20  C         18.9210  -20.5900   -4.4480 C.2     1  UNL1        0.0010
     21  C         18.3180  -21.3250   -3.4310 C.2     1  UNL1        0.0000
     22  C         17.8830  -22.6250   -3.6770 C.2     1  UNL1        0.0010
     23  C         18.0520  -23.1900   -4.9430 C.2     1  UNL1        0.0080
     24  S         24.6100  -21.9320  -13.3380 S.O2    1  UNL1        0.2480
     25  O         25.2730  -20.7340  -12.8590 O.2     1  UNL1       -0.2050
     26  O         25.3800  -23.1290  -13.6010 O.2     1  UNL1       -0.2050
     27  N         23.7790  -21.4730  -14.7020 N.pl3   1  UNL1       -0.1480
     28  H         23.3690  -20.5490  -14.6310 H       1  UNL1        0.1490
     29  C         24.3910  -21.7050  -15.9270 C.cat   1  UNL1        0.2150
     30  N         25.5030  -21.0360  -16.2350 N.2     1  UNL1       -0.2300
     31  C         26.1170  -21.4190  -17.3680 C.2     1  UNL1        0.1210
     32  C         25.6780  -22.4620  -18.1510 C.2     1  UNL1        0.0390
     33  C         24.5530  -23.1120  -17.6960 C.2     1  UNL1        0.1210
     34  N         23.8990  -22.7670  -16.5720 N.2     1  UNL1       -0.2300
@<TRIPOS>BOND
     1    32    33    1
     2    32    31    2
     3    33    34    2
     4    31    30    1
     5    34    29    1
     6    30    29    2
     7    29    27    1
     8    27    28    1
     9    27    24    1
    10    26    24    2
    11    24    25    2
    12    24     4    1
    13     5     4    2
    14     5     6    1
    15     4     3    1
    16     6     1    2
    17     3     2    2
    18     1     2    1
    19     1     7    1
    20    14    15    2
    21    14    13    1
    22    15    16    1
    23    10     7    1
    24     7     8   am
    25    13    12    2
    26    16    17    2
    27    12    17    1
    28    12    11    1
    29     8     9    2
    30     8    11    1
    31    11    18    1
    32    18    19    2
    33    18    23    1
    34    19    20    1
    35    23    22    2
    36    20    21    2
    37    22    21    1
