@<TRIPOS>MOLECULE
26262_out_ligand_01.pdbqt
 35 38 0 0 0
SMALL
GASTEIGER

@<TRIPOS>ATOM
      1  C         19.0740  -23.1510   -6.8160 C.2     1  UNL1        0.0750
      2  C         19.9750  -22.0880   -6.9020 C.2     1  UNL1        0.0270
      3  C         21.0320  -22.1530   -7.8170 C.2     1  UNL1        0.0310
      4  C         21.1820  -23.2630   -8.6620 C.2     1  UNL1        0.0350
      5  C         20.2560  -24.3080   -8.5830 C.2     1  UNL1        0.0310
      6  C         19.2010  -24.2550   -7.6650 C.2     1  UNL1        0.0270
      7  N         22.2770  -23.2570   -9.5480 N.am    1  UNL1       -0.3230
      8  C         23.0760  -22.1880   -9.8840 C.2     1  UNL1        0.2570
      9  O         23.0320  -21.0490   -9.4440 O.2     1  UNL1       -0.2670
     10  H         22.5110  -24.1460   -9.9700 H       1  UNL1        0.1690
     11  C         24.1000  -22.5640  -10.8980 C.2     1  UNL1        0.0500
     12  C         25.1290  -23.2860  -10.4320 C.2     1  UNL1        0.0920
     13  C         26.1940  -23.7570  -11.3420 C.2     1  UNL1        0.2460
     14  O         27.1210  -24.4370  -10.9230 O.2     1  UNL1       -0.2680
     15  N         26.0800  -23.4170  -12.6600 N.am    1  UNL1       -0.3230
     16  C         25.0340  -22.6430  -13.1740 C.2     1  UNL1        0.0460
     17  H         26.8240  -23.7370  -13.2650 H       1  UNL1        0.1690
     18  C         25.0260  -22.3180  -14.5280 C.2     1  UNL1        0.0300
     19  C         24.0160  -22.1970  -12.3180 C.2     1  UNL1        0.0060
     20  C         23.9900  -21.5370  -15.0400 C.2     1  UNL1        0.0020
     21  C         22.9720  -21.0850  -14.2010 C.2     1  UNL1        0.0010
     22  C         22.9820  -21.4120  -12.8470 C.2     1  UNL1        0.0150
     23  S         17.7100  -23.0610   -5.6830 S.O2    1  UNL1        0.2470
     24  O         18.1160  -22.2070   -4.5800 O.2     1  UNL1       -0.2050
     25  O         17.2200  -24.3960   -5.4250 O.2     1  UNL1       -0.2050
     26  N         16.5640  -22.1670   -6.5300 N.pl3   1  UNL1       -0.1650
     27  H         15.7250  -22.0340   -5.9690 H       1  UNL1        0.1470
     28  C         16.3750  -22.5390   -7.8790 C.2     1  UNL1        0.1200
     29  C         15.6470  -23.6680   -8.1840 C.2     1  UNL1        0.0720
     30  C         15.5320  -23.9550   -9.5230 C.2     1  UNL1        0.0360
     31  C         14.7260  -25.1330   -9.9730 C.3     1  UNL1        0.0700
     32  N         16.1050  -23.1890  -10.4720 N.2     1  UNL1       -0.2390
     33  C         16.8210  -22.1220  -10.0610 C.2     1  UNL1        0.1240
     34  N         16.9810  -21.7590   -8.7800 N.2     1  UNL1       -0.2210
     35  C         17.4860  -21.2850  -11.1130 C.3     1  UNL1        0.0930
@<TRIPOS>BOND
     1    20    18    1
     2    20    21    2
     3    18    16    2
     4    21    22    1
     5    17    15    1
     6    16    15    1
     7    16    19    1
     8    22    19    2
     9    15    13   am
    10    19    11    1
    11    13    14    2
    12    13    12    1
    13    35    33    1
    14    11    12    2
    15    11     8    1
    16    32    33    2
    17    32    30    1
    18    33    34    1
    19    31    30    1
    20    10     7    1
    21     8     7   am
    22     8     9    2
    23     7     4    1
    24    30    29    2
    25    34    28    2
    26     4     5    2
    27     4     3    1
    28     5     6    1
    29    29    28    1
    30    28    26    1
    31     3     2    2
    32     6     1    2
    33     2     1    1
    34     1    23    1
    35    26    27    1
    36    26    23    1
    37    23    25    2
    38    23    24    2
