@<TRIPOS>MOLECULE
26267_out_ligand_01.pdbqt
 36 39 0 0 0
SMALL
GASTEIGER

@<TRIPOS>ATOM
      1  C         23.8880  -21.8420  -10.9800 C.2     1  UNL1        0.0800
      2  C         22.8210  -22.0430  -11.8570 C.2     1  UNL1        0.0270
      3  C         21.5870  -22.4630  -11.3530 C.2     1  UNL1        0.0310
      4  C         21.4120  -22.6910   -9.9790 C.2     1  UNL1        0.0350
      5  C         22.4940  -22.5010   -9.1170 C.2     1  UNL1        0.0310
      6  C         23.7340  -22.0840   -9.6150 C.2     1  UNL1        0.0270
      7  N         20.1320  -23.1110   -9.5630 N.am    1  UNL1       -0.3230
      8  C         18.9220  -22.4680   -9.7410 C.2     1  UNL1        0.2590
      9  O         18.7720  -21.3930  -10.3170 O.2     1  UNL1       -0.2670
     10  H         20.1030  -24.0010   -9.0820 H       1  UNL1        0.1690
     11  C         17.7010  -23.1460   -9.1830 C.2     1  UNL1        0.0660
     12  C         16.5590  -23.1730  -10.0050 C.2     1  UNL1        0.0200
     13  C         15.3710  -23.7740   -9.5790 C.2     1  UNL1        0.0010
     14  C         15.3010  -24.3560   -8.3170 C.2     1  UNL1        0.0030
     15  C         16.4200  -24.3440   -7.4860 C.2     1  UNL1        0.0380
     16  C         17.6220  -23.7620   -7.9210 C.2     1  UNL1        0.0910
     17  O         18.6970  -23.7390   -7.0580 O.2     1  UNL1       -0.3100
     18  C         18.7030  -22.7670   -6.0810 C.2     1  UNL1        0.0760
     19  C         17.9570  -23.0360   -4.9320 C.2     1  UNL1        0.0370
     20  C         17.8790  -22.0850   -3.9140 C.2     1  UNL1        0.0030
     21  C         18.5330  -20.8610   -4.0520 C.2     1  UNL1        0.0000
     22  C         19.2610  -20.5840   -5.2100 C.2     1  UNL1        0.0030
     23  C         19.3420  -21.5330   -6.2300 C.2     1  UNL1        0.0370
     24  S         25.4630  -21.3420  -11.6250 S.O2    1  UNL1        0.2640
     25  O         25.9350  -20.1710  -10.9150 O.2     1  UNL1       -0.2000
     26  O         26.2860  -22.5360  -11.6860 O.2     1  UNL1       -0.2000
     27  N         25.1560  -20.9420  -13.2200 N.pl3   1  UNL1       -0.2640
     28  H         24.3010  -20.4060  -13.3240 H       1  UNL1        0.1800
     29  C         25.5340  -21.8500  -14.2280 C.2     1  UNL1        0.1410
     30  C         25.1700  -23.1720  -14.1270 C.2     1  UNL1        0.0770
     31  C         25.5160  -23.9730  -15.1940 C.2     1  UNL1        0.0360
     32  C         25.1780  -25.4340  -15.1870 C.3     1  UNL1        0.0700
     33  N         26.1500  -23.4890  -16.2800 N.2     1  UNL1       -0.2390
     34  C         26.4490  -22.1780  -16.2840 C.2     1  UNL1        0.1240
     35  N         26.1400  -21.3250  -15.2950 N.2     1  UNL1       -0.2160
     36  C         27.1210  -21.6170  -17.4980 C.3     1  UNL1        0.0930
@<TRIPOS>BOND
     1    36    34    1
     2    34    33    2
     3    34    35    1
     4    33    31    1
     5    35    29    2
     6    31    32    1
     7    31    30    2
     8    29    30    1
     9    29    27    1
    10    28    27    1
    11    27    24    1
    12     2     3    1
    13     2     1    2
    14    26    24    2
    15    24     1    1
    16    24    25    2
    17     3     4    2
    18     1     6    1
    19     9     8    2
    20    12    13    1
    21    12    11    2
    22     4     7    1
    23     4     5    1
    24     8     7   am
    25     8    11    1
    26     6     5    2
    27    13    14    2
    28     7    10    1
    29    11    16    1
    30    14    15    1
    31    16    15    2
    32    16    17    1
    33    17    18    1
    34    23    18    2
    35    23    22    1
    36    18    19    1
    37    22    21    2
    38    19    20    2
    39    21    20    1
