@<TRIPOS>MOLECULE
26274_out_ligand_01.pdbqt
 30 33 0 0 0
SMALL
GASTEIGER

@<TRIPOS>ATOM
      1  C         24.6810  -22.7900  -10.9470 C.2     1  UNL1        0.0360
      2  C         25.9330  -23.3540  -10.6870 C.2     1  UNL1        0.0290
      3  C         27.0460  -23.0130  -11.4620 C.2     1  UNL1        0.0040
      4  C         26.9190  -22.1070  -12.5120 C.2     1  UNL1        0.0250
      5  C         25.6680  -21.5570  -12.7890 C.2     1  UNL1        0.0820
      6  C         24.5540  -21.8810  -12.0030 C.2     1  UNL1        0.0540
      7  N         23.5220  -23.0630  -10.1910 N.am    1  UNL1       -0.3230
      8  C         22.8290  -22.1880   -9.3730 C.2     1  UNL1        0.2560
      9  O         23.1490  -21.0430   -9.0820 O.2     1  UNL1       -0.2670
     10  H         23.2020  -24.0230  -10.2060 H       1  UNL1        0.1690
     11  C         21.5950  -22.7550   -8.7600 C.2     1  UNL1        0.0330
     12  C         21.1800  -24.0310   -9.1500 C.2     1  UNL1        0.0180
     13  C         20.0250  -24.5900   -8.6000 C.2     1  UNL1        0.0130
     14  C         19.2750  -23.8860   -7.6450 C.2     1  UNL1       -0.0260
     15  C         18.1110  -24.4350   -7.0840 C.2     1  UNL1        0.0120
     16  C         19.7040  -22.6020   -7.2320 C.2     1  UNL1       -0.0250
     17  C         17.3800  -23.7300   -6.1270 C.2     1  UNL1        0.0010
     18  C         17.8030  -22.4700   -5.7170 C.2     1  UNL1        0.0010
     19  C         18.9570  -21.9090   -6.2650 C.2     1  UNL1        0.0120
     20  C         20.8670  -22.0490   -7.7920 C.2     1  UNL1        0.0290
     21  S         25.4950  -20.3720  -14.0960 S.O2    1  UNL1        0.2640
     22  O         24.0790  -20.2710  -14.3940 O.2     1  UNL1       -0.2000
     23  O         26.2640  -19.1890  -13.7810 O.2     1  UNL1       -0.2000
     24  N         26.1560  -21.1420  -15.4150 N.3     1  UNL1       -0.2680
     25  H         27.1650  -21.0320  -15.4550 H       1  UNL1        0.1800
     26  C         25.4840  -21.9210  -16.3500 C.3     1  UNL1        0.1080
     27  N         25.1030  -21.5010  -17.5080 N.3     1  UNL1       -0.2760
     28  C         24.4670  -22.6680  -18.1530 C.3     1  UNL1        0.1510
     29  C         24.1180  -23.6200  -17.0220 C.3     1  UNL1        0.0290
     30  C         25.2110  -23.3510  -16.0160 C.3     1  UNL1        0.0800
@<TRIPOS>BOND
     1    28    27    1
     2    28    29    1
     3    27    26    1
     4    29    30    1
     5    26    30    1
     6    26    24    1
     7    25    24    1
     8    24    21    1
     9    22    21    2
    10    21    23    2
    11    21     5    1
    12     5     4    2
    13     5     6    1
    14     4     3    1
    15     6     1    2
    16     3     2    2
    17     1     2    1
    18     1     7    1
    19    10     7    1
    20     7     8   am
    21     8     9    2
    22     8    11    1
    23    12    11    2
    24    12    13    1
    25    11    20    1
    26    13    14    2
    27    20    16    2
    28    14    16    1
    29    14    15    1
    30    16    19    1
    31    15    17    2
    32    19    18    2
    33    17    18    1
