@<TRIPOS>MOLECULE
26279_out_ligand_01.pdbqt
 31 34 0 0 0
SMALL
GASTEIGER

@<TRIPOS>ATOM
      1  C         19.7170  -22.4170  -10.1890 C.2     1  UNL1        0.0320
      2  C         18.3530  -22.0910  -10.2590 C.2     1  UNL1        0.0180
      3  C         17.4420  -22.6710   -9.3730 C.2     1  UNL1        0.0260
      4  C         17.9020  -23.5800   -8.4170 C.2     1  UNL1        0.0800
      5  C         19.2550  -23.9340   -8.3540 C.2     1  UNL1        0.0260
      6  C         20.1620  -23.3530   -9.2440 C.2     1  UNL1        0.0180
      7  S         16.7600  -24.3440   -7.2760 S.O2    1  UNL1        0.2650
      8  O         15.6950  -24.9380   -8.0560 O.2     1  UNL1       -0.2000
      9  O         17.5810  -25.1490   -6.3950 O.2     1  UNL1       -0.2000
     10  N         16.1290  -22.9690   -6.4390 N.pl3   1  UNL1       -0.2710
     11  C         14.7660  -23.1500   -5.8590 C.3     1  UNL1        0.1420
     12  C         14.8400  -23.7010   -4.4450 C.3     1  UNL1        0.0260
     13  C         15.6030  -22.7430   -3.5450 C.3     1  UNL1        0.0420
     14  C         16.8560  -22.2120   -4.1860 C.2     1  UNL1       -0.0310
     15  C         17.7940  -21.5510   -3.3760 C.2     1  UNL1        0.0090
     16  C         17.0740  -22.2880   -5.5730 C.2     1  UNL1        0.0510
     17  C         18.9340  -20.9720   -3.9330 C.2     1  UNL1        0.0010
     18  C         19.1380  -21.0320   -5.3070 C.2     1  UNL1        0.0020
     19  C         18.2080  -21.6800   -6.1230 C.2     1  UNL1        0.0310
     20  C         20.6490  -21.7720  -11.1590 C.2     1  UNL1        0.2560
     21  N         21.9400  -22.2680  -11.1470 N.am    1  UNL1       -0.3230
     22  H         22.1710  -22.9340  -10.4240 H       1  UNL1        0.1690
     23  O         20.2190  -20.8540  -11.8470 O.2     1  UNL1       -0.2670
     24  C         23.0140  -21.8810  -11.9780 C.2     1  UNL1        0.0370
     25  C         24.2630  -21.7150  -11.3680 C.2     1  UNL1        0.0290
     26  C         25.3770  -21.3400  -12.1210 C.2     1  UNL1        0.0050
     27  C         25.2570  -21.1300  -13.4950 C.2     1  UNL1        0.0370
     28  C         24.0200  -21.2960  -14.1170 C.2     1  UNL1        0.0700
     29  C         22.9050  -21.6710  -13.3550 C.2     1  UNL1        0.0660
     30  O         23.7680  -21.1250  -15.4530 O.2     1  UNL1       -0.3560
     31  C         24.8740  -20.8080  -16.2850 C.3     1  UNL1        0.2100
@<TRIPOS>BOND
     1    31    30    1
     2    30    28    1
     3    28    27    2
     4    28    29    1
     5    27    26    1
     6    29    24    2
     7    26    25    2
     8    24    25    1
     9    24    21    1
    10    23    20    2
    11    20    21   am
    12    20     1    1
    13    21    22    1
    14     2     1    2
    15     2     3    1
    16     1     6    1
    17     3     4    2
    18     6     5    2
    19     4     5    1
    20     4     7    1
    21     8     7    2
    22     7    10    1
    23     7     9    2
    24    10    11    1
    25    10    16    1
    26    19    16    1
    27    19    18    2
    28    11    12    1
    29    16    14    2
    30    18    17    1
    31    12    13    1
    32    14    13    1
    33    14    15    1
    34    17    15    2
