@<TRIPOS>MOLECULE
26285_out_ligand_01.pdbqt
 30 33 0 0 0
SMALL
GASTEIGER

@<TRIPOS>ATOM
      1  C         21.3160  -22.5820  -10.9760 C.2     1  UNL1        0.0320
      2  C         20.2770  -21.7270  -11.3780 C.2     1  UNL1        0.0180
      3  C         19.0290  -21.8030  -10.7550 C.2     1  UNL1        0.0260
      4  C         18.8210  -22.7400   -9.7350 C.2     1  UNL1        0.0800
      5  C         19.8380  -23.6150   -9.3470 C.2     1  UNL1        0.0260
      6  C         21.0860  -23.5340   -9.9710 C.2     1  UNL1        0.0180
      7  S         17.2130  -22.8270   -8.9640 S.O2    1  UNL1        0.2650
      8  O         16.4040  -23.7390   -9.7450 O.2     1  UNL1       -0.2000
      9  O         16.8090  -21.4500   -8.7670 O.2     1  UNL1       -0.2000
     10  N         17.5900  -23.5790   -7.4540 N.pl3   1  UNL1       -0.2710
     11  C         16.6750  -24.6860   -7.0490 C.3     1  UNL1        0.1420
     12  C         15.5000  -24.1600   -6.2430 C.3     1  UNL1        0.0260
     13  C         15.9910  -23.4800   -4.9750 C.3     1  UNL1        0.0420
     14  C         17.1720  -22.5770   -5.2170 C.2     1  UNL1       -0.0310
     15  C         17.5460  -21.6790   -4.2030 C.2     1  UNL1        0.0090
     16  C         17.9500  -22.6660   -6.3850 C.2     1  UNL1        0.0510
     17  C         18.6770  -20.8770   -4.3450 C.2     1  UNL1        0.0010
     18  C         19.4560  -20.9790   -5.4920 C.2     1  UNL1        0.0020
     19  C         19.0990  -21.8750   -6.5020 C.2     1  UNL1        0.0310
     20  C         22.6640  -22.5380  -11.6150 C.2     1  UNL1        0.2560
     21  O         23.5460  -23.2460  -11.1470 O.2     1  UNL1       -0.2670
     22  N         22.7840  -21.6500  -12.6680 N.am    1  UNL1       -0.3230
     23  H         22.0010  -21.0380  -12.8470 H       1  UNL1        0.1690
     24  C         23.9220  -21.4310  -13.4750 C.2     1  UNL1        0.0350
     25  C         23.7900  -21.6870  -14.8480 C.2     1  UNL1        0.0320
     26  C         24.8700  -21.5000  -15.7130 C.2     1  UNL1        0.0440
     27  C         26.0850  -21.0590  -15.2070 C.2     1  UNL1        0.1160
     28  F         27.1210  -20.8790  -16.0350 F       1  UNL1       -0.2060
     29  C         26.2370  -20.8040  -13.8500 C.2     1  UNL1        0.0440
     30  C         25.1550  -20.9900  -12.9840 C.2     1  UNL1        0.0320
@<TRIPOS>BOND
     1    28    27    1
     2    26    27    2
     3    26    25    1
     4    27    29    1
     5    25    24    2
     6    29    30    2
     7    24    30    1
     8    24    22    1
     9    23    22    1
    10    22    20   am
    11    20    21    2
    12    20     1    1
    13     2     1    2
    14     2     3    1
    15     1     6    1
    16     3     4    2
    17     6     5    2
    18     8     7    2
    19     4     5    1
    20     4     7    1
    21     7     9    2
    22     7    10    1
    23    10    11    1
    24    10    16    1
    25    11    12    1
    26    19    16    1
    27    19    18    2
    28    16    14    2
    29    12    13    1
    30    18    17    1
    31    14    13    1
    32    14    15    1
    33    17    15    2
