@<TRIPOS>MOLECULE
26287_out_ligand_01.pdbqt
 38 41 0 0 0
SMALL
GASTEIGER

@<TRIPOS>ATOM
      1  C         17.5150  -22.0360  -10.5630 C.2     1  UNL1        0.0690
      2  C         18.4690  -22.9330  -10.0810 C.2     1  UNL1        0.0380
      3  C         19.7920  -22.8520  -10.5350 C.2     1  UNL1        0.0200
      4  C         20.1630  -21.8650  -11.4630 C.2     1  UNL1        0.0320
      5  C         19.2010  -20.9720  -11.9440 C.2     1  UNL1        0.0200
      6  C         17.8880  -21.0480  -11.4800 C.2     1  UNL1        0.0380
      7  C         21.5500  -21.7620  -11.9900 C.2     1  UNL1        0.2560
      8  O         21.7170  -21.1210  -13.0210 O.2     1  UNL1       -0.2670
      9  N         22.5120  -22.3910  -11.2230 N.am    1  UNL1       -0.3230
     10  H         22.2110  -22.7980  -10.3520 H       1  UNL1        0.1690
     11  C         23.9100  -22.3990  -11.4400 C.2     1  UNL1        0.0350
     12  C         24.6590  -21.4070  -10.7940 C.2     1  UNL1        0.0290
     13  C         26.0440  -21.3480  -10.9510 C.2     1  UNL1        0.0030
     14  C         26.6930  -22.2730  -11.7660 C.2     1  UNL1        0.0110
     15  C         25.9620  -23.2550  -12.4420 C.2     1  UNL1       -0.0340
     16  C         24.5710  -23.3220  -12.2560 C.2     1  UNL1        0.0410
     17  C         26.6160  -24.2710  -13.2800 C.2     1  UNL1        0.0140
     18  C         26.6660  -24.3650  -14.6210 C.2     1  UNL1        0.0320
     19  C         26.0370  -23.5170  -15.6480 C.2     1  UNL1        0.0560
     20  C         26.5050  -22.2200  -15.8510 C.2     1  UNL1        0.0310
     21  C         25.9020  -21.4280  -16.8260 C.2     1  UNL1        0.0040
     22  C         24.8610  -21.9550  -17.5790 C.2     1  UNL1        0.0190
     23  C         24.4750  -23.2590  -17.3320 C.2     1  UNL1        0.1170
     24  N         25.0410  -24.0450  -16.3920 N.2     1  UNL1       -0.2610
     25  O         16.1900  -22.0200  -10.2250 O.2     1  UNL1       -0.3420
     26  C         15.5760  -23.2180   -9.7690 C.3     1  UNL1        0.2780
     27  C         15.8450  -23.6250   -8.3070 C.2     1  UNL1        0.2460
     28  N         15.8010  -22.5700   -7.4150 N.am    1  UNL1       -0.3250
     29  H         15.5940  -21.6600   -7.8030 H       1  UNL1        0.1690
     30  O         16.0130  -24.8080   -8.0190 O.2     1  UNL1       -0.2710
     31  C         16.0150  -22.5980   -6.0210 C.2     1  UNL1        0.0370
     32  C         14.9860  -23.1320   -5.2370 C.2     1  UNL1        0.0290
     33  C         15.1000  -23.1720   -3.8480 C.2     1  UNL1        0.0050
     34  C         16.2450  -22.6740   -3.2270 C.2     1  UNL1        0.0370
     35  C         17.2770  -22.1320   -3.9960 C.2     1  UNL1        0.0700
     36  C         17.1600  -22.1070   -5.3910 C.2     1  UNL1        0.0660
     37  O         18.4360  -21.5900   -3.5100 O.2     1  UNL1       -0.3560
     38  C         19.0520  -20.5790   -4.2900 C.3     1  UNL1        0.2100
@<TRIPOS>BOND
     1    22    23    2
     2    22    21    1
     3    23    24    1
     4    21    20    2
     5    24    19    2
     6    20    19    1
     7    19    18    1
     8    18    17    2
     9    17    15    1
    10     8     7    2
    11    15    16    1
    12    15    14    2
    13    16    11    2
    14     7     4    1
    15     7     9   am
    16     5     6    1
    17     5     4    2
    18    14    13    1
    19     6     1    2
    20     4     3    1
    21    11     9    1
    22    11    12    1
    23     9    10    1
    24    13    12    2
    25     1    25    1
    26     1     2    1
    27     3     2    2
    28    25    26    1
    29    26    27    1
    30    27    30    2
    31    27    28   am
    32    29    28    1
    33    28    31    1
    34    31    36    2
    35    31    32    1
    36    36    35    1
    37    32    33    2
    38    38    37    1
    39    35    37    1
    40    35    34    2
    41    33    34    1
