@<TRIPOS>MOLECULE
26281_out_ligand_01.pdbqt
 36 40 0 0 0
SMALL
GASTEIGER

@<TRIPOS>ATOM
      1  O         21.0380  -25.1290   -8.9080 O.2     1  UNL1       -0.2670
      2  C         20.8720  -23.9290   -9.0640 C.2     1  UNL1        0.2570
      3  N         21.7900  -22.9890   -9.4940 N.am    1  UNL1       -0.3230
      4  H         21.4440  -22.0450   -9.6270 H       1  UNL1        0.1690
      5  C         19.5250  -23.3700   -8.8160 C.2     1  UNL1        0.0470
      6  C         18.9540  -23.6480   -7.5760 C.2     1  UNL1        0.0520
      7  C         17.6730  -23.1900   -7.3180 C.2     1  UNL1        0.0870
      8  N         16.9790  -22.4800   -8.2510 N.2     1  UNL1       -0.2460
      9  C         17.5460  -22.1910   -9.4360 C.2     1  UNL1        0.0680
     10  C         16.8140  -21.4460  -10.3510 C.2     1  UNL1        0.0320
     11  C         18.8410  -22.6070   -9.7860 C.2     1  UNL1        0.0080
     12  C         17.3310  -21.0930  -11.6000 C.2     1  UNL1        0.0020
     13  C         18.6160  -21.4820  -11.9470 C.2     1  UNL1        0.0010
     14  C         19.3700  -22.2310  -11.0480 C.2     1  UNL1        0.0150
     15  C         16.9810  -23.4570   -6.0340 C.2     1  UNL1        0.0850
     16  C         15.6150  -23.7400   -5.9660 C.2     1  UNL1        0.0340
     17  C         15.0210  -23.9800   -4.7280 C.2     1  UNL1        0.0040
     18  C         15.8010  -23.9350   -3.5820 C.2     1  UNL1        0.0190
     19  C         17.1470  -23.6520   -3.7220 C.2     1  UNL1        0.1170
     20  N         17.7480  -23.4160   -4.9090 N.2     1  UNL1       -0.2590
     21  C         23.1530  -23.1960   -9.7850 C.2     1  UNL1        0.0360
     22  C         24.0300  -23.8970   -8.9520 C.2     1  UNL1        0.0290
     23  C         25.3790  -24.0420   -9.2940 C.2     1  UNL1        0.0040
     24  C         25.8650  -23.4910  -10.4770 C.2     1  UNL1        0.0250
     25  C         24.9890  -22.8100  -11.3220 C.2     1  UNL1        0.0820
     26  C         23.6430  -22.6470  -10.9750 C.2     1  UNL1        0.0540
     27  S         25.5980  -22.0700  -12.8140 S.O2    1  UNL1        0.2640
     28  O         26.8470  -22.6940  -13.1880 O.2     1  UNL1       -0.2000
     29  O         25.5180  -20.6320  -12.6400 O.2     1  UNL1       -0.2000
     30  N         24.4260  -22.4310  -13.9380 N.3     1  UNL1       -0.2680
     31  H         23.5280  -22.6250  -13.5060 H       1  UNL1        0.1800
     32  C         24.5660  -22.4210  -15.3220 C.3     1  UNL1        0.1080
     33  N         24.4540  -21.3670  -16.0580 N.3     1  UNL1       -0.2760
     34  C         24.7070  -21.8300  -17.4360 C.3     1  UNL1        0.1510
     35  C         24.4860  -23.3330  -17.4120 C.3     1  UNL1        0.0290
     36  C         24.9040  -23.7040  -16.0100 C.3     1  UNL1        0.0800
@<TRIPOS>BOND
     1    34    35    1
     2    34    33    1
     3    35    36    1
     4    33    32    1
     5    36    32    1
     6    32    30    1
     7    30    31    1
     8    30    27    1
     9    28    27    2
    10    27    29    2
    11    27    25    1
    12    13    12    1
    13    13    14    2
    14    12    10    2
    15    25    26    1
    16    25    24    2
    17    14    11    1
    18    26    21    2
    19    24    23    1
    20    10     9    1
    21    11     9    1
    22    11     5    2
    23    21     3    1
    24    21    22    1
    25     4     3    1
    26     3     2   am
    27     9     8    2
    28    23    22    2
    29     2     1    2
    30     2     5    1
    31     5     6    1
    32     8     7    1
    33     6     7    2
    34     7    15    1
    35    15    16    2
    36    15    20    1
    37    16    17    1
    38    20    19    2
    39    17    18    2
    40    19    18    1
