@<TRIPOS>MOLECULE
26296_out_ligand_01.pdbqt
 32 36 0 0 0
SMALL
GASTEIGER

@<TRIPOS>ATOM
      1  C         22.0490  -21.9970   -9.8640 C.2     1  UNL1        0.0320
      2  C         20.7590  -22.0610  -10.3920 C.2     1  UNL1        0.0190
      3  C         19.6570  -22.2480   -9.5420 C.2     1  UNL1        0.0310
      4  C         19.8060  -22.3840   -8.1500 C.2     1  UNL1        0.0460
      5  C         21.1180  -22.3370   -7.6480 C.2     1  UNL1        0.0310
      6  C         22.2250  -22.1520   -8.4890 C.2     1  UNL1        0.0190
      7  C         23.2490  -21.8030  -10.7260 C.2     1  UNL1        0.2560
      8  O         24.1780  -21.1400  -10.2830 O.2     1  UNL1       -0.2670
      9  N         23.1640  -22.3790  -11.9810 N.am    1  UNL1       -0.3230
     10  H         22.2720  -22.7790  -12.2430 H       1  UNL1        0.1690
     11  C         24.1540  -22.3910  -12.9860 C.2     1  UNL1        0.0370
     12  C         25.3860  -23.0350  -12.8610 C.2     1  UNL1        0.0320
     13  C         26.3160  -22.9910  -13.9040 C.2     1  UNL1        0.0420
     14  C         26.0300  -22.3020  -15.0830 C.2     1  UNL1        0.1020
     15  C         24.7750  -21.7030  -15.2400 C.2     1  UNL1        0.1040
     16  O         27.0420  -22.2900  -16.0090 O.2     1  UNL1       -0.3480
     17  C         23.8570  -21.7270  -14.1830 C.2     1  UNL1        0.0690
     18  O         24.3360  -21.0570  -16.3690 O.2     1  UNL1       -0.3480
     19  C         24.8170  -21.6390  -17.5820 C.3     1  UNL1        0.1780
     20  C         26.1870  -21.0950  -17.9450 C.3     1  UNL1        0.0530
     21  C         27.1210  -21.0690  -16.7470 C.3     1  UNL1        0.1780
     22  N         18.6770  -22.5710   -7.2890 N.am    1  UNL1       -0.2440
     23  C         17.6150  -23.4190   -7.5440 C.2     1  UNL1        0.2660
     24  O         17.3700  -24.1690   -8.4730 O.2     1  UNL1       -0.2670
     25  C         16.6880  -23.3050   -6.4230 C.2     1  UNL1        0.0480
     26  C         15.4790  -23.9350   -6.1940 C.2     1  UNL1        0.0180
     27  C         17.2200  -22.4040   -5.5300 C.2     1  UNL1        0.0480
     28  C         14.8060  -23.6220   -5.0090 C.2     1  UNL1        0.0010
     29  C         15.3500  -22.6980   -4.0950 C.2     1  UNL1        0.0010
     30  C         16.5750  -22.0760   -4.3520 C.2     1  UNL1        0.0180
     31  C         18.4900  -21.9360   -6.0750 C.2     1  UNL1        0.2660
     32  O         19.1680  -21.1330   -5.4580 O.2     1  UNL1       -0.2670
@<TRIPOS>BOND
     1    20    19    1
     2    20    21    1
     3    19    18    1
     4    21    16    1
     5    18    15    1
     6    16    14    1
     7    15    14    2
     8    15    17    1
     9    14    13    1
    10    17    11    2
    11    13    12    2
    12    11    12    1
    13    11     9    1
    14    10     9    1
    15     9     7   am
    16     7     8    2
    17     7     1    1
    18     2     1    2
    19     2     3    1
    20     1     6    1
    21     3     4    2
    22     6     5    2
    23    24    23    2
    24     4     5    1
    25     4    22    1
    26    23    22   am
    27    23    25    1
    28    22    31   am
    29    25    26    2
    30    25    27    1
    31    26    28    1
    32    31    27    1
    33    31    32    2
    34    27    30    2
    35    28    29    2
    36    30    29    1
