@<TRIPOS>MOLECULE
26295_out_ligand_01.pdbqt
 36 39 0 0 0
SMALL
GASTEIGER

@<TRIPOS>ATOM
      1  C         24.2950  -21.7670  -12.7850 C.2     1  UNL1        0.0340
      2  C         22.9770  -21.5590  -13.1920 C.2     1  UNL1        0.0300
      3  C         21.9190  -21.7390  -12.2920 C.2     1  UNL1        0.0190
      4  C         22.1700  -22.1180  -10.9690 C.2     1  UNL1        0.0320
      5  C         23.4870  -22.3440  -10.5580 C.2     1  UNL1        0.0190
      6  C         24.5400  -22.1640  -11.4630 C.2     1  UNL1        0.0300
      7  C         21.0140  -22.3070  -10.0470 C.2     1  UNL1        0.2560
      8  O         21.2320  -22.3010   -8.8430 O.2     1  UNL1       -0.2670
      9  N         19.7980  -22.4960  -10.6770 N.am    1  UNL1       -0.3230
     10  H         19.8140  -22.6010  -11.6810 H       1  UNL1        0.1690
     11  C         18.5310  -22.6510  -10.0740 C.2     1  UNL1        0.0350
     12  C         17.4880  -21.8640  -10.5770 C.2     1  UNL1        0.0290
     13  C         16.2100  -21.9360  -10.0240 C.2     1  UNL1        0.0030
     14  C         15.9600  -22.8010   -8.9610 C.2     1  UNL1        0.0110
     15  C         16.9820  -23.6100   -8.4570 C.2     1  UNL1       -0.0340
     16  C         18.2690  -23.5160   -9.0100 C.2     1  UNL1        0.0410
     17  C         16.7640  -24.4930   -7.3050 C.2     1  UNL1        0.0140
     18  C         17.0500  -24.2870   -6.0070 C.2     1  UNL1        0.0320
     19  C         17.6080  -23.1110   -5.3200 C.2     1  UNL1        0.0560
     20  C         18.3930  -22.2080   -6.0360 C.2     1  UNL1        0.0310
     21  C         18.9410  -21.1110   -5.3720 C.2     1  UNL1        0.0040
     22  C         18.7000  -20.9440   -4.0120 C.2     1  UNL1        0.0190
     23  C         17.9140  -21.8890   -3.3760 C.2     1  UNL1        0.1170
     24  N         17.3690  -22.9580   -4.0000 N.2     1  UNL1       -0.2610
     25  N         25.4190  -21.6170  -13.6250 N.am    1  UNL1       -0.3270
     26  C         25.8160  -20.4770  -14.3090 C.2     1  UNL1        0.2310
     27  O         25.2490  -19.3860  -14.2850 O.2     1  UNL1       -0.2720
     28  H         26.0150  -22.4330  -13.7050 H       1  UNL1        0.1690
     29  C         27.0740  -20.7060  -15.1470 C.3     1  UNL1        0.1850
     30  S         26.6730  -21.4990  -16.7320 S.3     1  UNL1       -0.0800
     31  C         26.2910  -23.0800  -16.1600 C.ar    1  UNL1        0.1980
     32  N         27.0850  -23.8610  -15.4670 N.ar    1  UNL1       -0.1350
     33  N         26.3830  -25.0280  -15.2780 N.ar    1  UNL1        0.0180
     34  N         25.1900  -24.9670  -15.8560 N.ar    1  UNL1       -0.0030
     35  N         25.1340  -23.7500  -16.4250 N.ar    1  UNL1       -0.2590
     36  C         23.9890  -23.3830  -17.2120 C.3     1  UNL1        0.1770
@<TRIPOS>BOND
     1    36    35    1
     2    30    31    1
     3    30    29    1
     4    35    31   ar
     5    35    34   ar
     6    31    32   ar
     7    34    33   ar
     8    32    33   ar
     9    29    26    1
    10    26    27    2
    11    26    25   am
    12    28    25    1
    13    25     1    1
    14     2     1    2
    15     2     3    1
    16     1     6    1
    17     3     4    2
    18    10     9    1
    19     6     5    2
    20     4     5    1
    21     4     7    1
    22     9    11    1
    23     9     7   am
    24    12    11    2
    25    12    13    1
    26    11    16    1
    27     7     8    2
    28    13    14    2
    29    16    15    2
    30    14    15    1
    31    15    17    1
    32    17    18    2
    33    20    21    1
    34    20    19    2
    35    18    19    1
    36    21    22    2
    37    19    24    1
    38    22    23    1
    39    24    23    2
