@<TRIPOS>MOLECULE
26307_out_ligand_01.pdbqt
 29 32 0 0 0
SMALL
GASTEIGER

@<TRIPOS>ATOM
      1  N         18.5010  -22.6570   -8.6740 N.am    1  UNL1       -0.2430
      2  C         18.0770  -21.9800   -9.7980 C.2     1  UNL1        0.2660
      3  O         16.9770  -21.6010  -10.1570 O.2     1  UNL1       -0.2670
      4  C         19.2380  -21.8340  -10.6710 C.2     1  UNL1        0.0480
      5  C         19.3610  -21.1980  -11.8930 C.2     1  UNL1        0.0190
      6  C         20.6130  -21.2380  -12.5170 C.2     1  UNL1        0.0180
      7  C         21.7000  -21.9180  -11.9130 C.2     1  UNL1        0.0330
      8  C         21.5440  -22.5450  -10.6670 C.2     1  UNL1        0.0350
      9  C         20.2960  -22.4870  -10.0780 C.2     1  UNL1        0.0490
     10  C         19.8190  -23.0450   -8.8160 C.2     1  UNL1        0.2660
     11  O         20.5510  -23.7010   -8.0970 O.2     1  UNL1       -0.2670
     12  C         23.0420  -21.9560  -12.5570 C.2     1  UNL1        0.2560
     13  O         23.9160  -22.6180  -12.0140 O.2     1  UNL1       -0.2670
     14  N         23.1430  -21.2490  -13.7410 N.am    1  UNL1       -0.3230
     15  H         22.2900  -20.8600  -14.1220 H       1  UNL1        0.1690
     16  C         24.2950  -21.0820  -14.5390 C.2     1  UNL1        0.0370
     17  C         25.1850  -20.0110  -14.4130 C.2     1  UNL1        0.0290
     18  C         26.3060  -19.9110  -15.2480 C.2     1  UNL1        0.0050
     19  C         26.5420  -20.8800  -16.2180 C.2     1  UNL1        0.0420
     20  C         25.6560  -21.9410  -16.3450 C.2     1  UNL1        0.1180
     21  F         25.8750  -22.8770  -17.2780 F       1  UNL1       -0.2060
     22  C         24.5400  -22.0500  -15.5200 C.2     1  UNL1        0.0710
     23  C         17.6620  -23.0510   -7.5910 C.2     1  UNL1        0.0510
     24  C         16.6940  -24.0500   -7.8170 C.2     1  UNL1        0.0310
     25  C         15.7960  -24.4460   -6.8230 C.2     1  UNL1        0.0020
     26  C         15.8490  -23.8540   -5.5710 C.2     1  UNL1        0.0010
     27  C         16.8170  -22.8890   -5.3090 C.2     1  UNL1        0.0090
     28  C         17.7480  -22.4940   -6.2950 C.2     1  UNL1       -0.0350
     29  C         18.8150  -21.5290   -5.8490 C.3     1  UNL1        0.0500
@<TRIPOS>BOND
     1    21    20    1
     2    20    19    2
     3    20    22    1
     4    19    18    1
     5    22    16    2
     6    18    17    2
     7    16    17    1
     8    16    14    1
     9    15    14    1
    10    14    12   am
    11    12    13    2
    12    12     7    1
    13     6     7    2
    14     6     5    1
    15     7     8    1
    16     5     4    2
    17     4     9    1
    18     4     2    1
    19     8     9    2
    20     3     2    2
    21     9    10    1
    22     2     1   am
    23    10     1   am
    24    10    11    2
    25     1    23    1
    26    24    23    2
    27    24    25    1
    28    23    28    1
    29    25    26    2
    30    28    29    1
    31    28    27    2
    32    26    27    1
