@<TRIPOS>MOLECULE
2631_out_ligand_01.pdbqt
 34 38 0 0 0
SMALL
GASTEIGER

@<TRIPOS>ATOM
      1  C         20.9900  -22.4350  -10.3310 C.2     1  UNL1        0.1790
      2  N         22.3240  -22.5950  -10.4770 N.2     1  UNL1       -0.1640
      3  N         22.6300  -22.1130  -11.6910 N.pl3   1  UNL1       -0.2680
      4  C         21.5370  -21.6270  -12.3470 C.2     1  UNL1        0.1520
      5  C         20.4640  -21.8130  -11.4980 C.2     1  UNL1        0.1550
      6  C         20.3440  -22.9470   -9.0920 C.2     1  UNL1        0.2790
      7  N         19.1270  -22.3770   -8.7570 N.am    1  UNL1       -0.3220
      8  H         18.7450  -21.6830   -9.3920 H       1  UNL1        0.1690
      9  O         20.8940  -23.8220   -8.4260 O.2     1  UNL1       -0.2650
     10  C         18.3220  -22.6510   -7.6310 C.2     1  UNL1        0.0350
     11  C         17.1620  -23.4100   -7.8530 C.2     1  UNL1        0.0310
     12  C         16.3030  -23.7340   -6.8000 C.2     1  UNL1        0.0270
     13  C         16.6060  -23.2990   -5.5100 C.2     1  UNL1        0.0740
     14  C         17.7450  -22.5290   -5.2720 C.2     1  UNL1        0.0270
     15  C         18.6030  -22.2130   -6.3330 C.2     1  UNL1        0.0310
     16  S         15.5160  -23.7000   -4.1710 S.O2    1  UNL1        0.2390
     17  O         14.2850  -24.2220   -4.7200 O.2     1  UNL1       -0.2060
     18  O         16.2710  -24.3950   -3.1570 O.2     1  UNL1       -0.2060
     19  N         15.1380  -22.1690   -3.5790 N.3     1  UNL1       -0.2250
     20  H         15.8590  -21.7820   -2.9740 H       1  UNL1        0.1360
     21  H         14.9300  -21.5540   -4.3680 H       1  UNL1        0.1360
     22  N         19.1220  -21.4500  -11.8250 N.pl3   1  UNL1       -0.1120
     23  O         18.2650  -22.3380  -11.7350 O.2     1  UNL1       -0.5320
     24  O         18.9160  -20.2740  -12.1410 O.2     1  UNL1       -0.5320
     25  C         24.0150  -22.1510  -12.1910 C.3     1  UNL1        0.0560
     26  C         24.9610  -21.4180  -11.2020 C.3     1  UNL1        0.0380
     27  C         26.4080  -21.4160  -11.7260 C.3     1  UNL1       -0.0110
     28  C         26.4500  -20.7120  -13.0930 C.3     1  UNL1        0.0090
     29  C         26.8920  -22.8650  -11.8870 C.3     1  UNL1        0.0090
     30  C         25.5510  -21.4530  -14.0970 C.3     1  UNL1       -0.0110
     31  C         26.0400  -22.9010  -14.2450 C.3     1  UNL1        0.0090
     32  C         24.1030  -21.4540  -13.5760 C.3     1  UNL1        0.0380
     33  C         25.9920  -23.6110  -12.8830 C.3     1  UNL1       -0.0110
     34  C         24.5460  -23.6080  -12.3600 C.3     1  UNL1        0.0380
@<TRIPOS>BOND
     1    31    30    1
     2    31    33    1
     3    30    32    1
     4    30    28    1
     5    32    25    1
     6    28    27    1
     7    33    34    1
     8    33    29    1
     9    34    25    1
    10     4     3    1
    11     4     5    2
    12    25     3    1
    13    25    26    1
    14    24    22    2
    15    29    27    1
    16    22    23    2
    17    22     5    1
    18    27    26    1
    19     3     2    1
    20     5     1    1
    21     2     1    2
    22     1     6    1
    23     8     7    1
    24     6     7   am
    25     6     9    2
    26     7    10    1
    27    11    10    2
    28    11    12    1
    29    10    15    1
    30    12    13    2
    31    15    14    2
    32    13    14    1
    33    13    16    1
    34    17    16    2
    35    21    19    1
    36    16    19    1
    37    16    18    2
    38    19    20    1
