@<TRIPOS>MOLECULE
26311_out_ligand_01.pdbqt
 34 38 0 0 0
SMALL
GASTEIGER

@<TRIPOS>ATOM
      1  C         19.7350  -21.7880  -11.2620 C.2     1  UNL1        0.0330
      2  C         18.7260  -21.0210  -11.8630 C.2     1  UNL1        0.0170
      3  C         17.4310  -21.0280  -11.3350 C.2     1  UNL1        0.0030
      4  C         17.1460  -21.7870  -10.2010 C.2     1  UNL1        0.0250
      5  C         18.1610  -22.5300   -9.5910 C.2     1  UNL1        0.0760
      6  C         19.4550  -22.5440  -10.1190 C.2     1  UNL1        0.0410
      7  C         21.1300  -21.7860  -11.7850 C.2     1  UNL1        0.2570
      8  O         21.3790  -21.0400  -12.7220 O.2     1  UNL1       -0.2670
      9  N         21.9850  -22.6290  -11.1190 N.am    1  UNL1       -0.3010
     10  H         21.6790  -23.1160  -10.2900 H       1  UNL1        0.1710
     11  C         23.3110  -22.8450  -11.3910 C.2     1  UNL1        0.1730
     12  N         23.7060  -23.1060  -12.6150 N.2     1  UNL1       -0.2270
     13  C         25.0850  -23.2880  -12.6370 C.2     1  UNL1        0.0720
     14  C         25.7010  -23.1400  -11.4070 C.2     1  UNL1        0.0820
     15  S         24.5330  -22.7740  -10.2100 S.3     1  UNL1       -0.0620
     16  C         25.7600  -23.6090  -13.9410 C.3     1  UNL1        0.3320
     17  N         26.5100  -22.4440  -14.4450 N.3     1  UNL1        0.0940
     18  C         25.6860  -21.2260  -14.4330 C.3     1  UNL1        0.2730
     19  C         24.5980  -21.1980  -15.5090 C.3     1  UNL1        0.0300
     20  C         25.1860  -21.4280  -16.8960 C.3     1  UNL1        0.0030
     21  C         26.0600  -22.6780  -16.9180 C.3     1  UNL1        0.0300
     22  C         27.0880  -22.6590  -15.7840 C.3     1  UNL1        0.2730
     23  S         17.7770  -23.4950   -8.1430 S.O2    1  UNL1        0.2480
     24  O         18.9030  -24.3700   -7.8860 O.2     1  UNL1       -0.2050
     25  O         16.4500  -24.0350   -8.3570 O.2     1  UNL1       -0.2050
     26  N         17.7290  -22.2950   -6.9360 N.pl3   1  UNL1       -0.1710
     27  C         19.0570  -21.7370   -6.5050 C.3     1  UNL1        0.1180
     28  C         18.8730  -21.2630   -5.0550 C.3     1  UNL1        0.0560
     29  C         17.6630  -22.0240   -4.6290 C.2     1  UNL1       -0.0350
     30  C         17.1400  -22.1290   -3.3490 C.2     1  UNL1        0.0090
     31  C         17.0260  -22.6090   -5.7240 C.2     1  UNL1        0.0310
     32  C         15.9440  -22.8290   -3.1790 C.2     1  UNL1        0.0010
     33  C         15.2830  -23.3870   -4.2830 C.2     1  UNL1        0.0020
     34  C         15.8160  -23.2630   -5.5700 C.2     1  UNL1        0.0250
@<TRIPOS>BOND
     1    21    20    1
     2    21    22    1
     3    20    19    1
     4    22    17    1
     5    19    18    1
     6    17    18    1
     7    17    16    1
     8    16    13    1
     9     8     7    2
    10    13    12    1
    11    13    14    2
    12    12    11    2
    13     2     3    1
    14     2     1    2
    15     7     1    1
    16     7     9   am
    17    14    15    1
    18    11     9    1
    19    11    15    1
    20     3     4    2
    21     1     6    1
    22     9    10    1
    23     4     5    1
    24     6     5    2
    25     5    23    1
    26    25    23    2
    27    23    24    2
    28    23    26    1
    29    26    27    1
    30    26    31    1
    31    27    28    1
    32    31    34    1
    33    31    29    2
    34    34    33    2
    35    28    29    1
    36    29    30    1
    37    33    32    1
    38    30    32    2
