@<TRIPOS>MOLECULE
26322_out_ligand_01.pdbqt
 34 37 0 0 0
SMALL
GASTEIGER

@<TRIPOS>ATOM
      1  N         15.5520  -24.3300   -8.6280 N.1     1  UNL1       -0.1910
      2  C         16.1460  -23.5700   -9.2800 C.1     1  UNL1        0.0990
      3  C         16.8710  -22.6160  -10.0720 C.2     1  UNL1        0.0460
      4  C         16.3700  -21.3170  -10.2460 C.2     1  UNL1        0.0230
      5  C         17.0870  -20.3930  -11.0000 C.2     1  UNL1        0.0040
      6  C         18.3020  -20.7640  -11.5850 C.2     1  UNL1        0.0290
      7  C         18.8120  -22.0580  -11.4230 C.2     1  UNL1        0.0360
      8  C         18.0870  -22.9820  -10.6650 C.2     1  UNL1        0.0520
      9  N         20.0480  -22.3440  -12.0350 N.am    1  UNL1       -0.3260
     10  C         21.1230  -21.4920  -12.2260 C.2     1  UNL1        0.2310
     11  O         21.1910  -20.3310  -11.8270 O.2     1  UNL1       -0.2720
     12  H         20.1430  -23.2530  -12.4830 H       1  UNL1        0.1690
     13  C         22.3110  -22.1020  -12.9630 C.3     1  UNL1        0.1820
     14  S         23.8380  -21.1060  -12.8750 S.3     1  UNL1       -0.1200
     15  C         25.0380  -22.2290  -12.1490 C.2     1  UNL1        0.0160
     16  C         26.1560  -22.6700  -12.8720 C.2     1  UNL1        0.0190
     17  C         27.0890  -23.5430  -12.2980 C.2     1  UNL1        0.0010
     18  C         26.9190  -24.0010  -10.9910 C.2     1  UNL1        0.0010
     19  C         25.8070  -23.5930  -10.2550 C.2     1  UNL1        0.0180
     20  C         24.8700  -22.7190  -10.8340 C.2     1  UNL1        0.0490
     21  C         23.7080  -22.3320  -10.0010 C.2     1  UNL1        0.2570
     22  O         23.6390  -21.1800   -9.5930 O.2     1  UNL1       -0.2670
     23  N         22.8110  -23.3660   -9.8090 N.am    1  UNL1       -0.3230
     24  H         22.9950  -24.2270  -10.3070 H       1  UNL1        0.1690
     25  C         21.6680  -23.3660   -8.9830 C.2     1  UNL1        0.0350
     26  C         20.8530  -24.5060   -9.0170 C.2     1  UNL1        0.0300
     27  C         19.7240  -24.5960   -8.1990 C.2     1  UNL1        0.0140
     28  C         19.3810  -23.5480   -7.3320 C.2     1  UNL1       -0.0260
     29  C         18.2530  -23.6170   -6.4990 C.2     1  UNL1        0.0120
     30  C         20.1950  -22.3930   -7.2970 C.2     1  UNL1       -0.0240
     31  C         17.9320  -22.5620   -5.6380 C.2     1  UNL1        0.0010
     32  C         18.7280  -21.4190   -5.6110 C.2     1  UNL1        0.0010
     33  C         19.8500  -21.3350   -6.4350 C.2     1  UNL1        0.0120
     34  C         21.3270  -22.3140   -8.1270 C.2     1  UNL1        0.0420
@<TRIPOS>BOND
     1    13    14    1
     2    13    10    1
     3    14    15    1
     4    16    17    1
     5    16    15    2
     6    12     9    1
     7    17    18    2
     8    10     9   am
     9    10    11    2
    10    15    20    1
    11     9     7    1
    12     6     7    2
    13     6     5    1
    14     7     8    1
    15     5     4    2
    16    18    19    1
    17    20    19    2
    18    20    21    1
    19     8     3    2
    20    24    23    1
    21     4     3    1
    22     3     2    1
    23    21    23   am
    24    21    22    2
    25    23    25    1
    26     2     1    3
    27    26    25    2
    28    26    27    1
    29    25    34    1
    30    27    28    2
    31    34    30    2
    32    28    30    1
    33    28    29    1
    34    30    33    1
    35    29    31    2
    36    33    32    2
    37    31    32    1
