@<TRIPOS>MOLECULE
26327_out_ligand_01.pdbqt
 32 36 0 0 0
SMALL
GASTEIGER

@<TRIPOS>ATOM
      1  C         19.8040  -21.9210  -11.0750 C.2     1  UNL1        0.0330
      2  C         18.6540  -21.2690  -11.5860 C.2     1  UNL1        0.0180
      3  C         17.3900  -21.5100  -11.0340 C.2     1  UNL1        0.0190
      4  C         17.3210  -22.3950   -9.9760 C.2     1  UNL1        0.0480
      5  C         18.4440  -23.0220   -9.4660 C.2     1  UNL1        0.0490
      6  C         19.7040  -22.8040   -9.9880 C.2     1  UNL1        0.0350
      7  C         18.0100  -23.8800   -8.3640 C.2     1  UNL1        0.2620
      8  O         18.7530  -24.6060   -7.7370 O.2     1  UNL1       -0.2670
      9  N         16.6580  -23.7080   -8.2530 N.am    1  UNL1       -0.2740
     10  C         16.1700  -22.8490   -9.1960 C.2     1  UNL1        0.2620
     11  O         15.0250  -22.4970   -9.4060 O.2     1  UNL1       -0.2670
     12  C         21.1550  -21.6600  -11.6470 C.2     1  UNL1        0.2560
     13  O         21.2450  -20.8350  -12.5460 O.2     1  UNL1       -0.2670
     14  N         22.1860  -22.3680  -11.0570 N.am    1  UNL1       -0.3230
     15  H         21.9610  -22.8980  -10.2250 H       1  UNL1        0.1690
     16  C         23.5490  -22.3550  -11.4200 C.2     1  UNL1        0.0370
     17  C         24.3980  -21.5330  -10.6680 C.2     1  UNL1        0.0290
     18  C         25.7620  -21.4620  -10.9540 C.2     1  UNL1        0.0050
     19  C         26.3000  -22.2160  -11.9960 C.2     1  UNL1        0.0310
     20  C         25.4680  -23.0490  -12.7530 C.2     1  UNL1        0.0570
     21  C         24.0920  -23.1150  -12.4610 C.2     1  UNL1        0.0600
     22  N         25.9940  -23.8310  -13.8110 N.pl3   1  UNL1       -0.2340
     23  C         26.8980  -23.4830  -14.7860 C.2     1  UNL1        0.2490
     24  N         27.1200  -24.5150  -15.5670 N.2     1  UNL1       -0.1560
     25  N         26.3410  -25.5260  -15.0730 N.2     1  UNL1        0.0170
     26  N         25.6550  -25.1250  -14.0110 N.2     1  UNL1        0.0020
     27  C         15.8390  -24.3620   -7.2570 C.3     1  UNL1        0.2000
     28  C         15.8160  -23.5340   -6.0220 C.2     1  UNL1        0.0700
     29  C         15.0100  -22.5010   -5.5890 C.2     1  UNL1        0.0360
     30  C         15.5010  -22.1160   -4.3180 C.2     1  UNL1        0.0270
     31  C         16.5740  -22.9370   -4.0580 C.2     1  UNL1        0.1420
     32  O         16.7710  -23.8010   -5.0850 O.2     1  UNL1       -0.3250
@<TRIPOS>BOND
     1    24    25    1
     2    24    23    2
     3    25    26    2
     4    23    22    1
     5    26    22    1
     6    22    20    1
     7    20    21    1
     8    20    19    2
     9    13    12    2
    10    21    16    2
    11    19    18    1
    12    12     1    1
    13    12    14   am
    14     2     1    2
    15     2     3    1
    16    16    14    1
    17    16    17    1
    18     1     6    1
    19    14    15    1
    20     3     4    2
    21    18    17    2
    22     6     5    2
    23     4     5    1
    24     4    10    1
    25     5     7    1
    26    11    10    2
    27    10     9   am
    28     7     9   am
    29     7     8    2
    30     9    27    1
    31    27    28    1
    32    28    29    2
    33    28    32    1
    34    29    30    1
    35    32    31    1
    36    30    31    2
