@<TRIPOS>MOLECULE
26334_out_ligand_01.pdbqt
 34 38 0 0 0
SMALL
GASTEIGER

@<TRIPOS>ATOM
      1  N         22.7640  -21.7330   -7.8720 N.1     1  UNL1       -0.1910
      2  C         22.8260  -21.7390   -9.0300 C.1     1  UNL1        0.1030
      3  C         22.8470  -21.7450  -10.4630 C.ar    1  UNL1        0.0850
      4  C         21.7110  -21.9390  -11.2320 C.ar    1  UNL1        0.0980
      5  S         22.0710  -21.8730  -12.8940 S.2     1  UNL1       -0.0750
      6  C         23.7240  -21.6180  -12.6060 C.ar    1  UNL1       -0.0070
      7  C         24.0240  -21.5590  -11.2590 C.ar    1  UNL1       -0.0210
      8  C         25.4300  -21.3550  -10.7710 C.3     1  UNL1        0.0410
      9  C         26.3530  -20.8340  -11.8840 C.3     1  UNL1        0.0050
     10  C         26.1440  -21.5980  -13.2000 C.3     1  UNL1        0.0050
     11  C         24.7070  -21.4450  -13.7230 C.3     1  UNL1        0.0470
     12  N         20.4150  -22.1430  -10.7740 N.am    1  UNL1       -0.3160
     13  C         19.3130  -21.3450  -11.0250 C.2     1  UNL1        0.2560
     14  O         19.2400  -20.3460  -11.7270 O.2     1  UNL1       -0.2670
     15  H         20.2510  -23.0080  -10.2720 H       1  UNL1        0.1690
     16  C         18.0640  -21.8100  -10.3650 C.2     1  UNL1        0.0330
     17  C         16.8090  -21.3110  -10.7460 C.2     1  UNL1        0.0170
     18  C         15.6500  -21.7770  -10.1180 C.2     1  UNL1        0.0030
     19  C         15.7390  -22.7460   -9.1190 C.2     1  UNL1        0.0250
     20  C         16.9910  -23.2520   -8.7570 C.2     1  UNL1        0.0810
     21  C         18.1580  -22.7900   -9.3730 C.2     1  UNL1        0.0420
     22  S         17.1260  -24.4840   -7.4790 S.O2    1  UNL1        0.2650
     23  O         16.0630  -25.4300   -7.7480 O.2     1  UNL1       -0.2000
     24  O         18.5100  -24.9120   -7.4310 O.2     1  UNL1       -0.2000
     25  N         16.8010  -23.6010   -6.0500 N.pl3   1  UNL1       -0.2710
     26  C         15.3520  -23.4970   -5.6940 C.3     1  UNL1        0.1420
     27  C         15.0220  -22.3630   -4.7330 C.3     1  UNL1        0.0260
     28  C         16.1340  -22.1680   -3.7180 C.3     1  UNL1        0.0420
     29  C         17.3800  -21.8120   -4.4800 C.2     1  UNL1       -0.0310
     30  C         18.2360  -20.8100   -3.9980 C.2     1  UNL1        0.0090
     31  C         17.6620  -22.4840   -5.6870 C.2     1  UNL1        0.0510
     32  C         19.3690  -20.4510   -4.7210 C.2     1  UNL1        0.0010
     33  C         19.6510  -21.0950   -5.9190 C.2     1  UNL1        0.0020
     34  C         18.8090  -22.1080   -6.3950 C.2     1  UNL1        0.0310
@<TRIPOS>BOND
     1    11    10    1
     2    11     6    1
     3    10     9    1
     4     5     6   ar
     5     5     4   ar
     6     6     7   ar
     7     9     8    1
     8    14    13    2
     9     7     8    1
    10     7     3   ar
    11     4    12    1
    12     4     3   ar
    13    13    12   am
    14    13    16    1
    15    12    15    1
    16    17    16    2
    17    17    18    1
    18     3     2    1
    19    16    21    1
    20    18    19    2
    21    21    20    2
    22    19    20    1
    23     2     1    3
    24    20    22    1
    25    23    22    2
    26    22    24    2
    27    22    25    1
    28    34    33    2
    29    34    31    1
    30    25    26    1
    31    25    31    1
    32    33    32    1
    33    26    27    1
    34    31    29    2
    35    27    28    1
    36    32    30    2
    37    29    30    1
    38    29    28    1
