@<TRIPOS>MOLECULE
26338_out_ligand_01.pdbqt
 37 41 0 0 0
SMALL
GASTEIGER

@<TRIPOS>ATOM
      1  O         23.7760  -23.9450   -9.1060 O.2     1  UNL1       -0.2650
      2  C         23.2310  -22.8470   -9.1290 C.2     1  UNL1        0.2800
      3  N         23.6930  -21.7500   -9.8410 N.am    1  UNL1       -0.3210
      4  H         23.2550  -20.8660   -9.6220 H       1  UNL1        0.1690
      5  C         22.0560  -22.5450   -8.3250 C.ar    1  UNL1        0.1530
      6  O         22.1650  -21.5360   -7.4090 O.2     1  UNL1       -0.3040
      7  C         20.9590  -21.4010   -6.8050 C.ar    1  UNL1        0.0870
      8  C         20.6560  -20.4650   -5.8190 C.2     1  UNL1        0.0380
      9  C         20.0570  -22.3320   -7.3050 C.ar    1  UNL1        0.0090
     10  C         19.3540  -20.4930   -5.3070 C.2     1  UNL1        0.0030
     11  C         18.4160  -21.4170   -5.7780 C.2     1  UNL1        0.0010
     12  C         18.7500  -22.3420   -6.7790 C.2     1  UNL1        0.0150
     13  C         20.7730  -23.0860   -8.2890 C.ar    1  UNL1        0.0180
     14  C         20.2520  -24.2430   -9.0810 C.3     1  UNL1        0.2180
     15  O         20.0270  -23.8510  -10.4390 O.2     1  UNL1       -0.3470
     16  C         19.0920  -22.8790  -10.6320 C.2     1  UNL1        0.0690
     17  C         19.5460  -21.7480  -11.3060 C.2     1  UNL1        0.0370
     18  C         18.6840  -20.6780  -11.5470 C.2     1  UNL1        0.0030
     19  C         17.3670  -20.7290  -11.0970 C.2     1  UNL1        0.0000
     20  C         16.9100  -21.8520  -10.4110 C.2     1  UNL1        0.0030
     21  C         17.7720  -22.9250  -10.1760 C.2     1  UNL1        0.0370
     22  C         24.7520  -21.7030  -10.7710 C.2     1  UNL1        0.0360
     23  C         25.6720  -20.6540  -10.8600 C.2     1  UNL1        0.0290
     24  C         26.7160  -20.6960  -11.7900 C.2     1  UNL1        0.0040
     25  C         26.8470  -21.7850  -12.6520 C.2     1  UNL1        0.0250
     26  C         25.9160  -22.8210  -12.5760 C.2     1  UNL1        0.0820
     27  C         24.8830  -22.7930  -11.6360 C.2     1  UNL1        0.0540
     28  S         26.0580  -24.2120  -13.6850 S.O2    1  UNL1        0.2640
     29  O         24.7110  -24.6990  -13.9050 O.2     1  UNL1       -0.2000
     30  O         27.1200  -25.0430  -13.1600 O.2     1  UNL1       -0.2000
     31  N         26.5850  -23.4270  -15.0630 N.3     1  UNL1       -0.2680
     32  H         27.5820  -23.2280  -15.0980 H       1  UNL1        0.1800
     33  C         25.7450  -22.9610  -16.0720 C.3     1  UNL1        0.1080
     34  N         25.2440  -23.6960  -17.0070 N.3     1  UNL1       -0.2760
     35  C         24.4060  -22.7810  -17.8090 C.3     1  UNL1        0.1510
     36  C         24.9120  -21.3850  -17.4960 C.3     1  UNL1        0.0290
     37  C         25.3800  -21.5140  -16.0680 C.3     1  UNL1        0.0800
@<TRIPOS>BOND
     1    35    36    1
     2    35    34    1
     3    36    37    1
     4    34    33    1
     5    33    37    1
     6    33    31    1
     7    32    31    1
     8    31    28    1
     9    29    28    2
    10    28    30    2
    11    28    26    1
    12    25    26    2
    13    25    24    1
    14    26    27    1
    15    24    23    2
    16    27    22    2
    17    18    17    1
    18    18    19    2
    19    17    16    2
    20    19    20    1
    21    23    22    1
    22    22     3    1
    23    16    15    1
    24    16    21    1
    25    15    14    1
    26    20    21    2
    27     3     4    1
    28     3     2   am
    29     2     1    2
    30     2     5    1
    31    14    13    1
    32     5    13   ar
    33     5     6   ar
    34    13     9   ar
    35     6     7   ar
    36     9     7   ar
    37     9    12    1
    38     7     8    1
    39    12    11    2
    40     8    10    2
    41    11    10    1
