@<TRIPOS>MOLECULE
26332_out_ligand_01.pdbqt
 28 31 0 0 0
SMALL
GASTEIGER

@<TRIPOS>ATOM
      1  C         17.6970  -22.3450   -9.6410 C.2     1  UNL1        0.0390
      2  C         16.8820  -21.4750  -10.3840 C.2     1  UNL1        0.0170
      3  C         17.3840  -20.8360  -11.5150 C.2     1  UNL1        0.0010
      4  C         18.6990  -21.0610  -11.9090 C.2     1  UNL1        0.0010
      5  C         19.5180  -21.9160  -11.1670 C.2     1  UNL1        0.0090
      6  C         19.0370  -22.5680  -10.0150 C.2     1  UNL1       -0.0330
      7  C         17.0900  -23.0210   -8.4620 C.2     1  UNL1        0.2560
      8  O         16.5310  -24.0970   -8.6190 O.2     1  UNL1       -0.2670
      9  N         17.2170  -22.3040   -7.2870 N.am    1  UNL1       -0.3230
     10  H         17.6540  -21.3920   -7.3570 H       1  UNL1        0.1690
     11  C         16.7620  -22.6750   -6.0050 C.2     1  UNL1        0.0370
     12  C         15.4900  -22.3740   -5.5100 C.2     1  UNL1        0.0290
     13  C         15.1080  -22.7790   -4.2240 C.2     1  UNL1        0.0050
     14  C         15.9980  -23.4900   -3.4240 C.2     1  UNL1        0.0420
     15  C         17.2600  -23.7900   -3.9180 C.2     1  UNL1        0.1180
     16  F         18.1210  -24.4740   -3.1540 F       1  UNL1       -0.2060
     17  C         17.6490  -23.3920   -5.1940 C.2     1  UNL1        0.0710
     18  C         19.9690  -23.4710   -9.2360 C.3     1  UNL1        0.1220
     19  S         21.2180  -22.5560   -8.2910 S.3     1  UNL1       -0.0800
     20  C         22.5080  -22.4110   -9.4450 C.ar    1  UNL1        0.2100
     21  N         23.4250  -21.4640   -9.3680 N.ar    1  UNL1       -0.2160
     22  C         24.2480  -21.7100  -10.4350 C.ar    1  UNL1        0.0940
     23  C         25.3970  -21.0490  -10.8890 C.2     1  UNL1        0.0340
     24  C         23.7970  -22.8200  -11.1280 C.ar    1  UNL1        0.1070
     25  C         26.0380  -21.5490  -12.0340 C.2     1  UNL1        0.0020
     26  C         25.5460  -22.6760  -12.7060 C.2     1  UNL1        0.0030
     27  C         24.4000  -23.3470  -12.2630 C.2     1  UNL1        0.0400
     28  O         22.6780  -23.2770  -10.4980 O.2     1  UNL1       -0.2840
@<TRIPOS>BOND
     1    26    27    2
     2    26    25    1
     3    27    24    1
     4    25    23    2
     5     4     3    2
     6     4     5    1
     7     3     2    1
     8     5     6    2
     9    24    28   ar
    10    24    22   ar
    11    23    22    1
    12    28    20   ar
    13    22    21   ar
    14     2     1    2
    15     6     1    1
    16     6    18    1
    17     1     7    1
    18    20    21   ar
    19    20    19    1
    20    18    19    1
    21     8     7    2
    22     7     9   am
    23    10     9    1
    24     9    11    1
    25    11    12    2
    26    11    17    1
    27    12    13    1
    28    17    15    2
    29    13    14    2
    30    15    14    1
    31    15    16    1
