@<TRIPOS>MOLECULE
26347_out_ligand_01.pdbqt
 30 33 0 0 0
SMALL
GASTEIGER

@<TRIPOS>ATOM
      1  O         21.9630  -21.8050   -9.2970 O.2     1  UNL1       -0.2670
      2  C         21.5300  -21.9000  -10.4380 C.2     1  UNL1        0.2590
      3  N         22.2450  -22.1310  -11.5960 N.am    1  UNL1       -0.3230
      4  H         21.7120  -22.2490  -12.4500 H       1  UNL1        0.1690
      5  C         20.0680  -21.8480  -10.6230 C.2     1  UNL1        0.0680
      6  C         19.5710  -20.9390  -11.5660 C.2     1  UNL1        0.0210
      7  C         18.2000  -20.8510  -11.7740 C.2     1  UNL1        0.0200
      8  C         17.3770  -21.6790  -11.0340 C.2     1  UNL1        0.1180
      9  N         17.8280  -22.5730  -10.1260 N.2     1  UNL1       -0.2530
     10  C         19.1710  -22.6620   -9.9320 C.2     1  UNL1        0.1130
     11  S         19.6760  -23.9440   -8.7950 S.3     1  UNL1       -0.0700
     12  C         18.8230  -23.4730   -7.3010 C.2     1  UNL1        0.0070
     13  C         17.8700  -24.3000   -6.6980 C.2     1  UNL1        0.0200
     14  C         17.2160  -23.8930   -5.5310 C.2     1  UNL1        0.0250
     15  C         17.5220  -22.6610   -4.9580 C.2     1  UNL1        0.0340
     16 CL         16.7130  -22.1600   -3.5250 Cl      1  UNL1       -0.0840
     17  C         18.4820  -21.8350   -5.5370 C.2     1  UNL1        0.0250
     18  C         19.1390  -22.2460   -6.7020 C.2     1  UNL1        0.0200
     19  C         23.6460  -22.2070  -11.7350 C.2     1  UNL1        0.0350
     20  C         24.5390  -21.3140  -11.1460 C.2     1  UNL1        0.0290
     21  C         25.9130  -21.4490  -11.3570 C.2     1  UNL1        0.0030
     22  C         26.4080  -22.4750  -12.1640 C.2     1  UNL1        0.0150
     23  C         25.5310  -23.3860  -12.7660 C.2     1  UNL1        0.0140
     24  C         24.1530  -23.2400  -12.5340 C.2     1  UNL1        0.0440
     25  C         25.9910  -24.4640  -13.6360 C.ar    1  UNL1        0.1680
     26  N         27.1110  -25.1570  -13.5250 N.ar    1  UNL1       -0.1420
     27  N         27.1210  -26.0600  -14.5590 N.ar    1  UNL1        0.0180
     28  N         26.0350  -25.9350  -15.3060 N.ar    1  UNL1       -0.0050
     29  N         25.3360  -24.9450  -14.7380 N.ar    1  UNL1       -0.2680
     30  H         24.4580  -24.6590  -15.1490 H       1  UNL1        0.1850
@<TRIPOS>BOND
     1    28    29   ar
     2    28    27   ar
     3    30    29    1
     4    29    25   ar
     5    27    26   ar
     6    25    26   ar
     7    25    23    1
     8    23    24    1
     9    23    22    2
    10    24    19    2
    11     4     3    1
    12    22    21    1
    13     7     6    1
    14     7     8    2
    15    19     3    1
    16    19    20    1
    17     3     2   am
    18     6     5    2
    19    21    20    2
    20     8     9    1
    21     5     2    1
    22     5    10    1
    23     2     1    2
    24     9    10    2
    25    10    11    1
    26    11    12    1
    27    12    18    2
    28    12    13    1
    29    18    17    1
    30    13    14    2
    31    17    15    2
    32    14    15    1
    33    15    16    1
