@<TRIPOS>MOLECULE
26344_out_ligand_01.pdbqt
 28 30 0 0 0
SMALL
GASTEIGER

@<TRIPOS>ATOM
      1  C         24.0300  -22.4710  -12.9600 C.2     1  UNL1       -0.0400
      2  C         23.1020  -21.6330  -13.5930 C.2     1  UNL1        0.0100
      3  C         21.8650  -21.3720  -13.0000 C.2     1  UNL1        0.0170
      4  C         21.5340  -21.9590  -11.7730 C.2     1  UNL1        0.0320
      5  C         22.4600  -22.7880  -11.1280 C.2     1  UNL1        0.0170
      6  C         23.6960  -23.0470  -11.7250 C.2     1  UNL1        0.0100
      7  C         20.2000  -21.6610  -11.1770 C.2     1  UNL1        0.2560
      8  O         19.6900  -20.5740  -11.4230 O.2     1  UNL1       -0.2670
      9  N         19.6570  -22.6930  -10.4340 N.am    1  UNL1       -0.3220
     10  H         20.1560  -23.5680  -10.4720 H       1  UNL1        0.1690
     11  C         18.4380  -22.7040   -9.7030 C.2     1  UNL1        0.0460
     12  C         17.2190  -22.9800  -10.3360 C.2     1  UNL1        0.0300
     13  C         16.0230  -22.9770   -9.6250 C.2     1  UNL1        0.0030
     14  C         16.0240  -22.6930   -8.2660 C.2     1  UNL1        0.0120
     15  C         17.2190  -22.4070   -7.5950 C.2     1  UNL1       -0.0240
     16  C         17.1810  -22.1210   -6.2190 C.2     1  UNL1        0.0120
     17  C         18.4540  -22.4050   -8.3000 C.2     1  UNL1        0.0010
     18  C         18.3440  -21.8310   -5.5110 C.2     1  UNL1        0.0010
     19  C         19.5630  -21.8250   -6.1710 C.2     1  UNL1        0.0010
     20  C         19.6170  -22.1070   -7.5410 C.2     1  UNL1        0.0140
     21  C         25.3580  -22.7780  -13.6070 C.3     1  UNL1        0.1620
     22  N         25.5180  -24.1970  -13.8280 N.am    1  UNL1       -0.3440
     23  C         25.4050  -24.7280  -15.0780 C.2     1  UNL1        0.2920
     24  N         25.6910  -26.0540  -15.0970 N.am    1  UNL1       -0.2540
     25  O         25.0820  -24.1270  -16.0910 O.2     1  UNL1       -0.2540
     26  H         25.3580  -26.5860  -14.3050 H       1  UNL1        0.1280
     27  H         25.4860  -26.4810  -15.9930 H       1  UNL1        0.1280
     28  H         26.1720  -24.6740  -13.2260 H       1  UNL1        0.1640
@<TRIPOS>BOND
     1    25    23    2
     2    27    24    1
     3    24    23   am
     4    24    26    1
     5    23    22   am
     6    22    21    1
     7    22    28    1
     8    21     1    1
     9     2     3    1
    10     2     1    2
    11     3     4    2
    12     1     6    1
    13     4     7    1
    14     4     5    1
    15     6     5    2
    16     8     7    2
    17     7     9   am
    18    10     9    1
    19     9    11    1
    20    12    11    2
    21    12    13    1
    22    11    17    1
    23    13    14    2
    24    17    15    2
    25    17    20    1
    26    14    15    1
    27    15    16    1
    28    20    19    2
    29    16    18    2
    30    19    18    1
