@<TRIPOS>MOLECULE
26342_out_ligand_01.pdbqt
 32 35 0 0 0
SMALL
GASTEIGER

@<TRIPOS>ATOM
      1  C         22.2870  -21.9830  -12.0560 C.2     1  UNL1        0.0340
      2  C         21.1620  -21.2490  -12.4590 C.2     1  UNL1        0.0300
      3  C         19.9510  -21.3610  -11.7650 C.2     1  UNL1        0.0190
      4  C         19.8680  -22.1980  -10.6430 C.2     1  UNL1        0.0320
      5  C         20.9980  -22.8870  -10.2000 C.2     1  UNL1        0.0190
      6  C         22.2010  -22.7930  -10.9100 C.2     1  UNL1        0.0300
      7  C         18.5800  -22.3930   -9.9230 C.2     1  UNL1        0.2560
      8  O         17.5360  -22.1220  -10.5030 O.2     1  UNL1       -0.2670
      9  N         18.7470  -22.8240   -8.6200 N.am    1  UNL1       -0.3220
     10  H         19.7070  -22.8860   -8.3010 H       1  UNL1        0.1690
     11  C         17.7490  -23.0930   -7.6520 C.2     1  UNL1        0.0460
     12  C         16.6720  -23.9420   -7.9440 C.2     1  UNL1        0.0300
     13  C         15.6920  -24.2060   -6.9910 C.2     1  UNL1        0.0030
     14  C         15.7750  -23.6260   -5.7260 C.2     1  UNL1        0.0120
     15  C         16.8430  -22.7800   -5.3910 C.2     1  UNL1       -0.0240
     16  C         16.8990  -22.2130   -4.1050 C.2     1  UNL1        0.0120
     17  C         17.8520  -22.4940   -6.3500 C.2     1  UNL1        0.0010
     18  C         17.9360  -21.3600   -3.7350 C.2     1  UNL1        0.0010
     19  C         18.9290  -21.0560   -4.6540 C.2     1  UNL1        0.0010
     20  C         18.8880  -21.6120   -5.9370 C.2     1  UNL1        0.0140
     21  N         23.4350  -21.8760  -12.8730 N.am    1  UNL1       -0.3270
     22  C         24.7230  -21.5510  -12.4800 C.2     1  UNL1        0.2310
     23  O         25.0640  -21.1570  -11.3690 O.2     1  UNL1       -0.2720
     24  H         23.3160  -22.0980  -13.8560 H       1  UNL1        0.1690
     25  C         25.7560  -21.8240  -13.5660 C.3     1  UNL1        0.1850
     26  S         25.7260  -20.5840  -14.8730 S.3     1  UNL1       -0.0800
     27  C         24.8960  -21.4200  -16.1260 C.ar    1  UNL1        0.1980
     28  N         24.1670  -22.5110  -16.0120 N.ar    1  UNL1       -0.1350
     29  N         23.7140  -22.7870  -17.2820 N.ar    1  UNL1        0.0180
     30  N         24.1380  -21.8730  -18.1520 N.ar    1  UNL1       -0.0030
     31  N         24.9020  -21.0280  -17.4360 N.ar    1  UNL1       -0.2590
     32  C         25.6220  -19.9660  -18.0940 C.3     1  UNL1        0.1770
@<TRIPOS>BOND
     1    30    31   ar
     2    30    29   ar
     3    32    31    1
     4    31    27   ar
     5    29    28   ar
     6    27    28   ar
     7    27    26    1
     8    26    25    1
     9    24    21    1
    10    25    22    1
    11    21    22   am
    12    21     1    1
    13    22    23    2
    14     2     1    2
    15     2     3    1
    16     1     6    1
    17     3     4    2
    18     6     5    2
    19     4     5    1
    20     4     7    1
    21     8     7    2
    22     7     9   am
    23     9    10    1
    24     9    11    1
    25    12    11    2
    26    12    13    1
    27    11    17    1
    28    13    14    2
    29    17    20    1
    30    17    15    2
    31    20    19    2
    32    14    15    1
    33    15    16    1
    34    19    18    1
    35    16    18    2
