@<TRIPOS>MOLECULE
26361_out_ligand_01.pdbqt
 31 34 0 0 0
SMALL
GASTEIGER

@<TRIPOS>ATOM
      1  C         20.2500  -21.5540  -11.2750 C.2     1  UNL1        0.2450
      2  O         20.2560  -20.3300  -11.3910 O.2     1  UNL1       -0.2710
      3  N         21.3570  -22.3840  -11.3880 N.am    1  UNL1       -0.3250
      4  H         21.1930  -23.3840  -11.3490 H       1  UNL1        0.1690
      5  C         18.9490  -22.3150  -11.0330 C.3     1  UNL1        0.1880
      6  C         17.7570  -21.5030  -11.5840 C.3     1  UNL1        0.0370
      7  C         16.6380  -21.7790  -10.5930 C.3     1  UNL1        0.0230
      8  C         17.3760  -21.8360   -9.2580 C.3     1  UNL1        0.1360
      9  N         18.5990  -22.5610   -9.6160 N.3     1  UNL1       -0.2930
     10  S         19.7080  -23.0770   -8.4850 S.O2    1  UNL1        0.2610
     11  O         19.9370  -24.4900   -8.7100 O.2     1  UNL1       -0.2000
     12  O         20.8080  -22.1340   -8.5180 O.2     1  UNL1       -0.2000
     13  C         18.9030  -22.9470   -6.9050 C.2     1  UNL1        0.0790
     14  C         19.0390  -21.7650   -6.1620 C.2     1  UNL1        0.0260
     15  C         18.3710  -21.6340   -4.9440 C.2     1  UNL1        0.0080
     16  C         17.5550  -22.6700   -4.4660 C.2     1  UNL1       -0.0620
     17  C         16.8340  -22.5130   -3.1570 C.3     1  UNL1        0.0480
     18  C         17.3800  -23.8250   -5.2440 C.2     1  UNL1        0.0080
     19  C         18.0480  -23.9630   -6.4640 C.2     1  UNL1        0.0260
     20  C         22.6990  -22.0010  -11.5910 C.2     1  UNL1        0.0350
     21  C         23.6260  -21.8270  -10.5620 C.2     1  UNL1        0.0290
     22  C         24.9430  -21.4690  -10.8600 C.2     1  UNL1        0.0030
     23  C         25.3440  -21.2600  -12.1810 C.2     1  UNL1        0.0150
     24  C         24.4320  -21.4300  -13.2320 C.2     1  UNL1        0.0140
     25  C         23.1150  -21.8110  -12.9170 C.2     1  UNL1        0.0440
     26  C         24.7930  -21.2170  -14.6350 C.ar    1  UNL1        0.1680
     27  N         25.9550  -21.4690  -15.2070 N.ar    1  UNL1       -0.1420
     28  N         25.8270  -21.1350  -16.5310 N.ar    1  UNL1        0.0180
     29  N         24.6130  -20.6760  -16.7840 N.ar    1  UNL1       -0.0050
     30  N         23.9750  -20.7160  -15.6090 N.ar    1  UNL1       -0.2680
     31  H         23.0200  -20.3820  -15.5520 H       1  UNL1        0.1850
@<TRIPOS>BOND
     1    29    28   ar
     2    29    30   ar
     3    28    27   ar
     4    30    31    1
     5    30    26   ar
     6    27    26   ar
     7    26    24    1
     8    24    25    1
     9    24    23    2
    10    25    20    2
    11    23    22    1
    12    20     3    1
    13    20    21    1
    14     6     5    1
    15     6     7    1
    16     2     1    2
    17     3     4    1
    18     3     1   am
    19     1     5    1
    20     5     9    1
    21    22    21    2
    22     7     8    1
    23     9     8    1
    24     9    10    1
    25    11    10    2
    26    12    10    2
    27    10    13    1
    28    13    19    2
    29    13    14    1
    30    19    18    1
    31    14    15    2
    32    18    16    2
    33    15    16    1
    34    16    17    1
