@<TRIPOS>MOLECULE
26371_out_ligand_01.pdbqt
 35 38 0 0 0
SMALL
GASTEIGER

@<TRIPOS>ATOM
      1  C         20.7600  -22.3950  -10.2600 C.2     1  UNL1        0.1090
      2  N         21.1180  -21.9540  -11.4910 N.2     1  UNL1       -0.2530
      3  C         20.1680  -21.3600  -12.2470 C.2     1  UNL1        0.1180
      4  C         18.8500  -21.2060  -11.8480 C.2     1  UNL1        0.0200
      5  C         18.4840  -21.6880  -10.5970 C.2     1  UNL1        0.0210
      6  C         19.4530  -22.2960   -9.7910 C.2     1  UNL1        0.0670
      7  S         22.0790  -23.1880   -9.3670 S.3     1  UNL1       -0.1000
      8  C         23.2950  -21.8290   -9.4130 C.3     1  UNL1        0.1840
      9  C         24.2060  -21.7910  -10.6420 C.2     1  UNL1        0.2310
     10  O         25.1600  -21.0110  -10.6550 O.2     1  UNL1       -0.2720
     11  N         23.8990  -22.6880  -11.6440 N.am    1  UNL1       -0.3260
     12  H         22.9940  -23.1460  -11.5380 H       1  UNL1        0.1690
     13  C         24.5740  -22.9190  -12.8580 C.2     1  UNL1        0.0370
     14  C         25.6340  -23.8380  -13.0030 C.2     1  UNL1        0.0320
     15  C         26.2640  -24.0210  -14.2430 C.2     1  UNL1        0.0420
     16  C         25.8080  -23.2790  -15.3140 C.2     1  UNL1        0.1050
     17  C         24.7750  -22.3820  -15.1810 C.2     1  UNL1        0.1070
     18  O         26.2950  -23.3250  -16.5820 O.2     1  UNL1       -0.3230
     19  C         24.1400  -22.1800  -13.9720 C.2     1  UNL1        0.0690
     20  O         24.4850  -21.7470  -16.3500 O.2     1  UNL1       -0.3230
     21  C         25.4490  -22.3530  -17.2350 C.3     1  UNL1        0.3520
     22  C         19.0650  -22.7860   -8.4600 C.2     1  UNL1        0.2590
     23  O         19.1910  -23.9790   -8.2260 O.2     1  UNL1       -0.2670
     24  N         18.6140  -21.7880   -7.6140 N.am    1  UNL1       -0.3230
     25  H         18.5720  -20.8490   -7.9910 H       1  UNL1        0.1690
     26  C         18.1610  -21.9360   -6.2860 C.2     1  UNL1        0.0350
     27  C         18.9010  -21.2960   -5.2850 C.2     1  UNL1        0.0290
     28  C         18.5140  -21.3850   -3.9450 C.2     1  UNL1        0.0030
     29  C         17.3800  -22.1160   -3.5920 C.2     1  UNL1        0.0160
     30  C         16.6250  -22.7670   -4.5780 C.2     1  UNL1        0.0500
     31  C         17.0280  -22.6700   -5.9250 C.2     1  UNL1        0.0450
     32  C         15.3860  -23.5540   -4.2230 C.3     1  UNL1        0.4170
     33  F         15.5690  -24.3760   -3.1540 F       1  UNL1       -0.1660
     34  F         14.3210  -22.7680   -3.9070 F       1  UNL1       -0.1660
     35  F         14.9610  -24.3530   -5.2390 F       1  UNL1       -0.1660
@<TRIPOS>BOND
     1    21    18    1
     2    21    20    1
     3    18    16    1
     4    20    17    1
     5    16    17    2
     6    16    15    1
     7    17    19    1
     8    15    14    2
     9    19    13    2
    10    14    13    1
    11    13    11    1
    12     3     4    2
    13     3     2    1
    14     4     5    1
    15    11    12    1
    16    11     9   am
    17     2     1    2
    18    10     9    2
    19     9     8    1
    20     5     6    2
    21     1     6    1
    22     1     7    1
    23     6    22    1
    24     8     7    1
    25    22    23    2
    26    22    24   am
    27    25    24    1
    28    24    26    1
    29    26    31    2
    30    26    27    1
    31    31    30    1
    32    27    28    2
    33    35    32    1
    34    30    32    1
    35    30    29    2
    36    32    34    1
    37    32    33    1
    38    28    29    1
