@<TRIPOS>MOLECULE
26372_out_ligand_01.pdbqt
 32 35 0 0 0
SMALL
GASTEIGER

@<TRIPOS>ATOM
      1  C         20.8580  -22.6500   -9.7840 C.2     1  UNL1        0.0360
      2  C         21.4330  -22.3280   -8.5460 C.2     1  UNL1        0.0290
      3  C         22.7700  -21.9290   -8.4560 C.2     1  UNL1        0.0040
      4  C         23.5500  -21.8420   -9.6060 C.2     1  UNL1        0.0250
      5  C         22.9750  -22.1500  -10.8400 C.2     1  UNL1        0.0820
      6  C         21.6350  -22.5470  -10.9370 C.2     1  UNL1        0.0540
      7  N         19.5070  -23.0530   -9.7810 N.am    1  UNL1       -0.3270
      8  C         18.3940  -22.2800  -10.0660 C.2     1  UNL1        0.2260
      9  O         18.4100  -21.1180  -10.4690 O.2     1  UNL1       -0.2730
     10  H         19.3380  -24.0160   -9.5150 H       1  UNL1        0.1690
     11  C         17.0680  -23.0190   -9.9220 C.3     1  UNL1        0.1440
     12  C         16.7410  -23.4060   -8.5180 C.2     1  UNL1       -0.0140
     13  C         15.8520  -24.3850   -8.1170 C.2     1  UNL1        0.1510
     14  O         15.8100  -24.4790   -6.7640 O.2     1  UNL1       -0.3210
     15  C         16.6660  -23.5450   -6.2720 C.2     1  UNL1        0.0860
     16  C         16.9180  -23.3110   -4.9230 C.2     1  UNL1        0.0450
     17  C         17.2650  -22.8470   -7.3100 C.2     1  UNL1        0.0070
     18  C         17.8440  -22.3010   -4.6050 C.2     1  UNL1       -0.0530
     19  C         18.1390  -22.0260   -3.1530 C.3     1  UNL1        0.0490
     20  C         18.4780  -21.5640   -5.6310 C.2     1  UNL1       -0.0550
     21  C         18.1890  -21.8350   -6.9860 C.2     1  UNL1        0.0220
     22  C         19.4770  -20.4820   -5.3100 C.3     1  UNL1        0.0490
     23  S         23.9380  -22.0230  -12.3220 S.O2    1  UNL1        0.2640
     24  O         25.0830  -21.1720  -12.0850 O.2     1  UNL1       -0.2000
     25  O         23.0170  -21.7360  -13.4030 O.2     1  UNL1       -0.2000
     26  N         24.4620  -23.5810  -12.5810 N.3     1  UNL1       -0.2680
     27  H         24.0620  -24.2380  -11.9180 H       1  UNL1        0.1800
     28  C         25.4170  -23.9860  -13.5060 C.3     1  UNL1        0.1080
     29  N         26.4000  -24.7790  -13.2350 N.3     1  UNL1       -0.2760
     30  C         27.1210  -24.9460  -14.5130 C.3     1  UNL1        0.1510
     31  C         26.6990  -23.7730  -15.3810 C.3     1  UNL1        0.0290
     32  C         25.2860  -23.5120  -14.9160 C.3     1  UNL1        0.0800
@<TRIPOS>BOND
     1    31    32    1
     2    31    30    1
     3    32    28    1
     4    30    29    1
     5    28    29    1
     6    28    26    1
     7    25    23    2
     8    26    23    1
     9    26    27    1
    10    23    24    2
    11    23     5    1
    12     6     5    1
    13     6     1    2
    14     5     4    2
    15     9     8    2
    16     8    11    1
    17     8     7   am
    18    11    12    1
    19     1     7    1
    20     1     2    1
    21     7    10    1
    22     4     3    1
    23     2     3    2
    24    12    13    2
    25    12    17    1
    26    13    14    1
    27    17    21    1
    28    17    15    2
    29    21    20    2
    30    14    15    1
    31    15    16    1
    32    20    22    1
    33    20    18    1
    34    16    18    2
    35    18    19    1
