@<TRIPOS>MOLECULE
26374_out_ligand_01.pdbqt
 33 36 0 0 0
SMALL
GASTEIGER

@<TRIPOS>ATOM
      1  O         21.6690  -22.1330   -7.7580 O.2     1  UNL1       -0.2720
      2  C         21.1210  -22.8350   -8.6100 C.2     1  UNL1        0.2350
      3  N         21.7620  -23.4000   -9.7040 N.am    1  UNL1       -0.3260
      4  H         21.1800  -23.9050  -10.3620 H       1  UNL1        0.1690
      5  C         23.1320  -23.3300  -10.0310 C.2     1  UNL1        0.0360
      6  C         24.0360  -23.8880   -9.1150 C.2     1  UNL1        0.0290
      7  C         25.4110  -23.8900   -9.3730 C.2     1  UNL1        0.0040
      8  C         25.9000  -23.3290  -10.5500 C.2     1  UNL1        0.0250
      9  C         25.0020  -22.7580  -11.4520 C.2     1  UNL1        0.0820
     10  C         23.6250  -22.7470  -11.1960 C.2     1  UNL1        0.0540
     11  S         25.5960  -22.0320  -12.9550 S.O2    1  UNL1        0.2640
     12  O         26.8360  -22.6700  -13.3420 O.2     1  UNL1       -0.2000
     13  O         25.5230  -20.5960  -12.7850 O.2     1  UNL1       -0.2000
     14  N         24.4210  -22.4150  -14.0730 N.3     1  UNL1       -0.2680
     15  H         23.5860  -22.7960  -13.6370 H       1  UNL1        0.1800
     16  C         24.5620  -22.3950  -15.4550 C.3     1  UNL1        0.1080
     17  N         24.5420  -21.3210  -16.1720 N.3     1  UNL1       -0.2760
     18  C         24.7600  -21.7820  -17.5580 C.3     1  UNL1        0.1510
     19  C         24.4100  -23.2600  -17.5600 C.3     1  UNL1        0.0290
     20  C         24.7900  -23.6900  -16.1630 C.3     1  UNL1        0.0800
     21  C         19.5930  -23.0790   -8.5520 C.3     1  UNL1        0.1440
     22  C         18.8200  -22.3600   -9.6630 C.2     1  UNL1       -0.0410
     23  C         19.5410  -21.7080  -10.6790 C.2     1  UNL1        0.0080
     24  C         18.8800  -21.0060  -11.6880 C.2     1  UNL1        0.0010
     25  C         17.4900  -20.9420  -11.6980 C.2     1  UNL1        0.0000
     26  C         16.7590  -21.5800  -10.6990 C.2     1  UNL1        0.0010
     27  C         17.4170  -22.2820   -9.6870 C.2     1  UNL1        0.0080
     28  C         19.0120  -22.9000   -7.1480 C.2     1  UNL1       -0.0410
     29  C         18.3030  -23.9660   -6.5640 C.2     1  UNL1        0.0080
     30  C         17.7320  -23.8390   -5.2960 C.2     1  UNL1        0.0010
     31  C         17.8560  -22.6430   -4.5950 C.2     1  UNL1        0.0000
     32  C         18.5500  -21.5750   -5.1580 C.2     1  UNL1        0.0010
     33  C         19.1210  -21.7000   -6.4280 C.2     1  UNL1        0.0080
@<TRIPOS>BOND
     1    19    18    1
     2    19    20    1
     3    18    17    1
     4    17    16    1
     5    20    16    1
     6    16    14    1
     7    14    15    1
     8    14    11    1
     9    12    11    2
    10    11    13    2
    11    11     9    1
    12    25    24    2
    13    25    26    1
    14    24    23    1
    15     9    10    1
    16     9     8    2
    17    10     5    2
    18    26    27    2
    19    23    22    2
    20     8     7    1
    21     4     3    1
    22     5     3    1
    23     5     6    1
    24     3     2   am
    25    27    22    1
    26    22    21    1
    27     7     6    2
    28     2    21    1
    29     2     1    2
    30    21    28    1
    31    28    29    2
    32    28    33    1
    33    29    30    1
    34    33    32    2
    35    30    31    2
    36    32    31    1
