@<TRIPOS>MOLECULE
26389_out_ligand_01.pdbqt
 33 36 0 0 0
SMALL
GASTEIGER

@<TRIPOS>ATOM
      1  C         22.0230  -21.8770  -11.0900 C.2     1  UNL1        0.2560
      2  O         22.1780  -21.5210   -9.9290 O.2     1  UNL1       -0.2670
      3  N         20.8250  -22.1410  -11.7280 N.am    1  UNL1       -0.3230
      4  H         20.8740  -22.5690  -12.6430 H       1  UNL1        0.1690
      5  C         19.5250  -21.9570  -11.2100 C.2     1  UNL1        0.0360
      6  C         18.5690  -21.1130  -11.7830 C.2     1  UNL1        0.0290
      7  C         17.2890  -21.0040  -11.2290 C.2     1  UNL1        0.0040
      8  C         16.9500  -21.7350  -10.0940 C.2     1  UNL1        0.0250
      9  C         17.9070  -22.5620   -9.5060 C.2     1  UNL1        0.0820
     10  C         19.1840  -22.6890  -10.0680 C.2     1  UNL1        0.0540
     11  S         17.4800  -23.5330   -8.0850 S.O2    1  UNL1        0.2640
     12  O         18.6570  -24.3030   -7.7280 O.2     1  UNL1       -0.2000
     13  O         16.2140  -24.1900   -8.3110 O.2     1  UNL1       -0.2000
     14  N         17.3250  -22.4050   -6.8710 N.3     1  UNL1       -0.2680
     15  H         17.8580  -21.5630   -7.0620 H       1  UNL1        0.1800
     16  C         16.6410  -22.5600   -5.6700 C.3     1  UNL1        0.1080
     17  N         17.2080  -22.7820   -4.5320 N.3     1  UNL1       -0.2760
     18  C         16.1000  -22.9010   -3.5650 C.3     1  UNL1        0.1510
     19  C         14.9050  -22.2360   -4.2260 C.3     1  UNL1        0.0290
     20  C         15.1480  -22.5040   -5.6910 C.3     1  UNL1        0.0800
     21  C         23.2420  -22.1030  -11.9190 C.2     1  UNL1        0.0340
     22  C         24.3680  -22.7430  -11.4170 C.2     1  UNL1        0.0180
     23  C         25.4700  -22.9300  -12.2530 C.2     1  UNL1        0.0220
     24  C         25.4800  -22.5010  -13.6020 C.2     1  UNL1        0.0270
     25  S         27.0130  -22.9140  -14.4140 S.3     1  UNL1       -0.1270
     26  C         24.3430  -21.8520  -14.1110 C.2     1  UNL1        0.0520
     27  C         26.5280  -22.9480  -16.1480 C.3     1  UNL1        0.0890
     28  C         26.3070  -21.5340  -16.6120 C.3     1  UNL1        0.1130
     29  C         24.8690  -21.1370  -16.5140 C.2     1  UNL1        0.2220
     30  O         24.3220  -20.5790  -17.4720 O.2     1  UNL1       -0.2730
     31  N         24.1270  -21.3160  -15.3980 N.am    1  UNL1       -0.3260
     32  H         23.2020  -20.9290  -15.5620 H       1  UNL1        0.1690
     33  C         23.2320  -21.6810  -13.2540 C.2     1  UNL1        0.0480
@<TRIPOS>BOND
     1    30    29    2
     2    28    29    1
     3    28    27    1
     4    29    31   am
     5    27    25    1
     6    32    31    1
     7    31    26    1
     8    25    24    1
     9    26    24    2
    10    26    33    1
    11    24    23    1
    12    33    21    2
    13     4     3    1
    14    23    22    2
    15    21    22    1
    16    21     1    1
    17     6     7    1
    18     6     5    2
    19     3     5    1
    20     3     1   am
    21     7     8    2
    22     5    10    1
    23     1     2    2
    24     8     9    1
    25    10     9    2
    26     9    11    1
    27    13    11    2
    28    11    12    2
    29    11    14    1
    30    15    14    1
    31    14    16    1
    32    20    16    1
    33    20    19    1
    34    16    17    1
    35    17    18    1
    36    19    18    1
