@<TRIPOS>MOLECULE
26383_out_ligand_01.pdbqt
 32 35 0 0 0
SMALL
GASTEIGER

@<TRIPOS>ATOM
      1  C         20.2350  -22.3020   -7.5200 C.2     1  UNL1        0.0360
      2  C         20.3340  -21.4370   -6.4200 C.2     1  UNL1        0.0290
      3  C         19.2250  -21.1680   -5.6150 C.2     1  UNL1        0.0040
      4  C         18.0010  -21.7640   -5.9000 C.2     1  UNL1        0.0250
      5  C         17.9010  -22.6380   -6.9870 C.2     1  UNL1        0.0820
      6  C         19.0080  -22.9000   -7.8050 C.2     1  UNL1        0.0540
      7  N         21.3990  -22.4970   -8.2840 N.am    1  UNL1       -0.3220
      8  C         21.8240  -23.6540   -8.9030 C.2     1  UNL1        0.2770
      9  O         21.3170  -24.7620   -8.8860 O.2     1  UNL1       -0.2660
     10  H         22.0570  -21.7250   -8.3410 H       1  UNL1        0.1690
     11  C         23.1230  -23.4310   -9.6780 C.ar    1  UNL1        0.1560
     12  N         24.2100  -23.8440   -9.0870 N.ar    1  UNL1       -0.1660
     13  N         25.3950  -23.6760   -9.7360 N.ar    1  UNL1       -0.2420
     14  C         25.5630  -23.1150  -10.9800 C.ar    1  UNL1        0.2720
     15  H         26.2270  -24.0380   -9.2780 H       1  UNL1        0.1920
     16  O         26.6640  -23.0230  -11.5120 O.2     1  UNL1       -0.2660
     17  C         24.3450  -22.6120  -11.6360 C.ar    1  UNL1        0.0460
     18  C         24.4310  -21.9830  -12.8830 C.2     1  UNL1        0.0180
     19  C         23.1150  -22.7560  -10.9940 C.ar    1  UNL1        0.0160
     20  C         23.2790  -21.4840  -13.4890 C.2     1  UNL1        0.0010
     21  C         22.0480  -21.6130  -12.8470 C.2     1  UNL1        0.0010
     22  C         21.9630  -22.2420  -11.6010 C.2     1  UNL1        0.0150
     23  S         16.3240  -23.3500   -7.3770 S.O2    1  UNL1        0.2640
     24  O         16.3440  -24.7170   -6.8930 O.2     1  UNL1       -0.2000
     25  O         15.2660  -22.4510   -6.9790 O.2     1  UNL1       -0.2000
     26  N         16.3480  -23.4860   -9.0370 N.3     1  UNL1       -0.2680
     27  H         15.8770  -24.3250   -9.3590 H       1  UNL1        0.1800
     28  C         16.8780  -22.5670   -9.9360 C.3     1  UNL1        0.1080
     29  N         16.3900  -21.3920  -10.1430 N.3     1  UNL1       -0.2760
     30  C         17.2800  -20.7720  -11.1420 C.3     1  UNL1        0.1510
     31  C         18.0220  -21.9230  -11.8010 C.3     1  UNL1        0.0290
     32  C         18.1160  -22.9360  -10.6860 C.3     1  UNL1        0.0800
@<TRIPOS>BOND
     1    20    18    1
     2    20    21    2
     3    18    17    2
     4    21    22    1
     5    31    30    1
     6    31    32    1
     7    17    19   ar
     8    17    14   ar
     9    22    19    2
    10    16    14    2
    11    30    29    1
    12    19    11   ar
    13    14    13   ar
    14    32    28    1
    15    29    28    1
    16    28    26    1
    17    13    15    1
    18    13    12   ar
    19    11    12   ar
    20    11     8    1
    21    27    26    1
    22    26    23    1
    23     8     9    2
    24     8     7   am
    25    10     7    1
    26     7     1    1
    27     6     1    2
    28     6     5    1
    29     1     2    1
    30    23     5    1
    31    23    25    2
    32    23    24    2
    33     5     4    2
    34     2     3    2
    35     4     3    1
