@<TRIPOS>MOLECULE
26387_out_ligand_01.pdbqt
 33 36 0 0 0
SMALL
GASTEIGER

@<TRIPOS>ATOM
      1  O         16.1580  -21.7970  -10.2360 O.2     1  UNL1       -0.2730
      2  C         16.6730  -22.7500   -9.6610 C.2     1  UNL1        0.2220
      3  N         18.0170  -23.0830   -9.6580 N.am    1  UNL1       -0.3270
      4  H         18.2760  -23.9090   -9.1340 H       1  UNL1        0.1690
      5  C         19.0570  -22.4610  -10.3810 C.2     1  UNL1        0.0360
      6  C         18.8530  -21.6060  -11.4670 C.2     1  UNL1        0.0290
      7  C         19.9400  -21.0550  -12.1560 C.2     1  UNL1        0.0040
      8  C         21.2420  -21.3500  -11.7650 C.2     1  UNL1        0.0250
      9  C         21.4510  -22.1820  -10.6660 C.2     1  UNL1        0.0820
     10  C         20.3670  -22.7480   -9.9820 C.2     1  UNL1        0.0540
     11  S         23.1040  -22.6060  -10.1830 S.O2    1  UNL1        0.2640
     12  O         23.0580  -23.5340   -9.0770 O.2     1  UNL1       -0.2000
     13  O         23.8460  -21.3650  -10.0730 O.2     1  UNL1       -0.2000
     14  N         23.7270  -23.3590  -11.5300 N.3     1  UNL1       -0.2680
     15  H         23.2380  -24.2220  -11.7460 H       1  UNL1        0.1800
     16  C         24.7370  -22.8830  -12.3590 C.3     1  UNL1        0.1080
     17  N         25.9980  -23.0290  -12.1250 N.3     1  UNL1       -0.2760
     18  C         26.6780  -22.3970  -13.2740 C.3     1  UNL1        0.1510
     19  C         25.6490  -21.4730  -13.9030 C.3     1  UNL1        0.0290
     20  C         24.3500  -22.1890  -13.6240 C.3     1  UNL1        0.0800
     21  C         15.8480  -23.7220   -8.8350 C.3     1  UNL1        0.1050
     22  C         16.6060  -24.2790   -7.6290 C.3     1  UNL1        0.0290
     23  C         15.8620  -24.1570   -6.2920 C.3     1  UNL1        0.1350
     24  N         16.4590  -23.2050   -5.3880 N.ar    1  UNL1       -0.2910
     25  C         15.9320  -22.8020   -4.1760 C.ar    1  UNL1        0.3720
     26  O         14.8890  -23.2030   -3.6760 O.2     1  UNL1       -0.2370
     27  O         16.7410  -21.8280   -3.5730 O.2     1  UNL1       -0.2590
     28  C         17.7640  -21.6760   -4.4960 C.ar    1  UNL1        0.1070
     29  C         18.8210  -20.7990   -4.3740 C.2     1  UNL1        0.0400
     30  C         17.6230  -22.5000   -5.5940 C.ar    1  UNL1        0.0730
     31  C         19.7560  -20.7720   -5.4130 C.2     1  UNL1        0.0030
     32  C         19.6150  -21.6170   -6.5300 C.2     1  UNL1        0.0020
     33  C         18.5370  -22.5030   -6.6270 C.2     1  UNL1        0.0330
@<TRIPOS>BOND
     1    19    20    1
     2    19    18    1
     3    20    16    1
     4    18    17    1
     5    16    17    1
     6    16    14    1
     7     7     8    2
     8     7     6    1
     9     8     9    1
    10    15    14    1
    11    14    11    1
    12     6     5    2
    13     9    11    1
    14     9    10    2
    15     5    10    1
    16     5     3    1
    17     1     2    2
    18    11    13    2
    19    11    12    2
    20     2     3   am
    21     2    21    1
    22     3     4    1
    23    21    22    1
    24    22    23    1
    25    33    32    2
    26    33    30    1
    27    32    31    1
    28    23    24    1
    29    30    24   ar
    30    30    28   ar
    31    31    29    2
    32    24    25   ar
    33    28    29    1
    34    28    27   ar
    35    25    26    2
    36    25    27   ar
