@<TRIPOS>MOLECULE
263_out_ligand_01.pdbqt
 33 35 0 0 0
SMALL
GASTEIGER

@<TRIPOS>ATOM
      1  C         19.4250  -22.4420  -10.3140 C.2     1  UNL1        0.0330
      2  C         18.9490  -21.3910  -11.1120 C.2     1  UNL1        0.0170
      3  C         17.5860  -21.0850  -11.1260 C.2     1  UNL1        0.0030
      4  C         16.6930  -21.8290  -10.3560 C.2     1  UNL1        0.0250
      5  C         17.1700  -22.8910   -9.5820 C.2     1  UNL1        0.0800
      6  C         18.5330  -23.2020   -9.5510 C.2     1  UNL1        0.0420
      7  S         16.0450  -23.8590   -8.6100 S.O2    1  UNL1        0.2630
      8  O         16.8080  -24.7130   -7.7260 O.2     1  UNL1       -0.2000
      9  O         15.0670  -24.4110   -9.5220 O.2     1  UNL1       -0.2000
     10  N         15.2400  -22.6830   -7.6980 N.pl3   1  UNL1       -0.2810
     11  H         14.2410  -22.6990   -7.9000 H       1  UNL1        0.1790
     12  C         15.6350  -22.5120   -6.3430 C.2     1  UNL1        0.0430
     13  C         14.8130  -22.9760   -5.3170 C.2     1  UNL1        0.0300
     14  C         15.2240  -22.8510   -3.9900 C.2     1  UNL1        0.0030
     15  C         16.4590  -22.2740   -3.6920 C.2     1  UNL1        0.0160
     16  C         17.3000  -21.8200   -4.7210 C.2     1  UNL1        0.0500
     17  C         16.8720  -21.9390   -6.0510 C.2     1  UNL1        0.0460
     18  C         18.6310  -21.1830   -4.4060 C.3     1  UNL1        0.4170
     19  F         19.5960  -21.4700   -5.3230 F       1  UNL1       -0.1660
     20  F         18.5670  -19.8220   -4.3510 F       1  UNL1       -0.1660
     21  F         19.1250  -21.5840   -3.2020 F       1  UNL1       -0.1660
     22  C         20.8670  -22.8080  -10.2890 C.2     1  UNL1        0.2560
     23  O         21.2050  -23.7650   -9.6050 O.2     1  UNL1       -0.2670
     24  N         21.6890  -21.9850  -11.0370 N.am    1  UNL1       -0.3230
     25  H         21.2660  -21.1560  -11.4350 H       1  UNL1        0.1690
     26  C         23.0800  -22.1210  -11.2340 C.2     1  UNL1        0.0360
     27  C         24.0440  -21.4240  -10.4990 C.2     1  UNL1        0.0320
     28  C         25.4070  -21.6230  -10.7430 C.2     1  UNL1        0.0460
     29  C         25.8090  -22.5210  -11.7240 C.2     1  UNL1        0.1380
     30  F         27.1210  -22.6990  -11.9390 F       1  UNL1       -0.2040
     31  C         24.8630  -23.2230  -12.4630 C.2     1  UNL1        0.0740
     32 CL         25.3490  -24.3410  -13.6790 Cl      1  UNL1       -0.0810
     33  C         23.5000  -23.0260  -12.2200 C.2     1  UNL1        0.0560
@<TRIPOS>BOND
     1    32    31    1
     2    31    33    1
     3    31    29    2
     4    33    26    2
     5    30    29    1
     6    29    28    1
     7    25    24    1
     8    26    24    1
     9    26    27    1
    10     3     2    1
    11     3     4    2
    12     2     1    2
    13    24    22   am
    14    28    27    2
    15     4     5    1
    16     1    22    1
    17     1     6    1
    18    22    23    2
    19     5     6    2
    20     5     7    1
    21     9     7    2
    22     7     8    2
    23     7    10    1
    24    11    10    1
    25    10    12    1
    26    12    17    2
    27    12    13    1
    28    17    16    1
    29    19    18    1
    30    13    14    2
    31    16    18    1
    32    16    15    2
    33    18    20    1
    34    18    21    1
    35    14    15    1
