@<TRIPOS>MOLECULE
26410_out_ligand_01.pdbqt
 31 33 0 0 0
SMALL
GASTEIGER

@<TRIPOS>ATOM
      1  C         18.9250  -22.4750  -10.1920 C.2     1  UNL1        0.0340
      2  C         18.2730  -21.4350  -10.8760 C.2     1  UNL1        0.0170
      3  C         18.9670  -20.7080  -11.8410 C.2     1  UNL1        0.0030
      4  C         20.3030  -21.0230  -12.1290 C.2     1  UNL1        0.0290
      5  C         20.9630  -22.0620  -11.4540 C.2     1  UNL1        0.0350
      6  C         20.2670  -22.7790  -10.4710 C.2     1  UNL1        0.0460
      7  C         18.2110  -23.2730   -9.1620 C.2     1  UNL1        0.2510
      8  O         18.8070  -24.1120   -8.4960 O.2     1  UNL1       -0.2680
      9  N         16.8430  -23.0570   -9.0880 N.am    1  UNL1       -0.3560
     10  H         16.4320  -22.7720   -9.9680 H       1  UNL1        0.1620
     11  C         16.0230  -23.9470   -8.2750 C.3     1  UNL1        0.1380
     12  C         15.5870  -23.3060   -6.9690 C.3     1  UNL1        0.1650
     13  S         16.4840  -24.0180   -5.6020 S.O2    1  UNL1        0.1770
     14  O         15.5260  -24.2770   -4.5370 O.2     1  UNL1       -0.2230
     15  O         17.3260  -25.0860   -6.1190 O.2     1  UNL1       -0.2230
     16  C         17.5510  -22.6990   -5.0590 C.2     1  UNL1        0.0590
     17  C         17.5680  -22.3460   -3.7080 C.2     1  UNL1        0.0230
     18  C         18.3690  -21.2760   -3.2890 C.2     1  UNL1        0.0020
     19  C         19.1390  -20.5640   -4.2160 C.2     1  UNL1        0.0000
     20  C         19.1170  -20.9200   -5.5640 C.2     1  UNL1        0.0020
     21  C         18.3190  -21.9890   -5.9930 C.2     1  UNL1        0.0230
     22  N         22.3020  -22.4480  -11.7040 N.am    1  UNL1       -0.3230
     23  C         23.4260  -22.0970  -10.9740 C.2     1  UNL1        0.2570
     24  O         23.4560  -21.3670   -9.9880 O.2     1  UNL1       -0.2670
     25  H         22.4430  -22.9920  -12.5470 H       1  UNL1        0.1690
     26  C         24.7190  -22.6470  -11.4630 C.2     1  UNL1        0.0490
     27  C         25.9680  -22.2730  -10.9630 C.2     1  UNL1        0.0200
     28  C         27.1210  -22.8520  -11.4960 C.2     1  UNL1        0.0200
     29  C         26.9890  -23.7780  -12.5220 C.2     1  UNL1        0.1160
     30  N         25.8010  -24.1500  -13.0410 N.2     1  UNL1       -0.2720
     31  C         24.6940  -23.5710  -12.5050 C.2     1  UNL1        0.1330
@<TRIPOS>BOND
     1    30    29    2
     2    30    31    1
     3    25    22    1
     4    29    28    1
     5    31    26    2
     6     4     3    2
     7     4     5    1
     8     3     2    1
     9    22     5    1
    10    22    23   am
    11    28    27    2
    12    26    23    1
    13    26    27    1
    14     5     6    2
    15    23    24    2
    16     2     1    2
    17     6     1    1
    18     1     7    1
    19    10     9    1
    20     7     9   am
    21     7     8    2
    22     9    11    1
    23    11    12    1
    24    12    13    1
    25    15    13    2
    26    21    20    1
    27    21    16    2
    28    13    16    1
    29    13    14    2
    30    20    19    2
    31    16    17    1
    32    19    18    1
    33    17    18    2
