@<TRIPOS>MOLECULE
26413_out_ligand_01.pdbqt
 36 39 0 0 0
SMALL
GASTEIGER

@<TRIPOS>ATOM
      1  C         22.5920  -22.3520  -11.6290 C.2     1  UNL1        0.0760
      2  C         22.0570  -21.4590  -12.5640 C.2     1  UNL1        0.0250
      3  C         20.7130  -21.0980  -12.4770 C.2     1  UNL1        0.0030
      4  C         19.9100  -21.6210  -11.4590 C.2     1  UNL1        0.0170
      5  C         20.4520  -22.5150  -10.5210 C.2     1  UNL1        0.0330
      6  C         21.7950  -22.9010  -10.6220 C.2     1  UNL1        0.0410
      7  C         19.6420  -23.0730   -9.3980 C.2     1  UNL1        0.2560
      8  O         19.8970  -24.2110   -9.0280 O.2     1  UNL1       -0.2670
      9  N         18.7070  -22.2010   -8.8830 N.am    1  UNL1       -0.3160
     10  H         18.6620  -21.2580   -9.2610 H       1  UNL1        0.1690
     11  C         17.8920  -22.3900   -7.7720 C.ar    1  UNL1        0.0930
     12  S         16.3450  -23.0640   -7.9080 S.2     1  UNL1       -0.0750
     13  C         16.1390  -23.1020   -6.2260 C.ar    1  UNL1       -0.0080
     14  C         17.1970  -22.5310   -5.5400 C.ar    1  UNL1       -0.0260
     15  C         14.9190  -23.7090   -5.6060 C.3     1  UNL1        0.0470
     16  C         18.2300  -22.0760   -6.4570 C.ar    1  UNL1        0.0730
     17  C         17.2280  -22.5330   -4.0340 C.3     1  UNL1        0.0410
     18  C         15.8810  -22.9290   -3.4020 C.3     1  UNL1        0.0050
     19  C         15.2030  -24.0840   -4.1470 C.3     1  UNL1        0.0050
     20  C         19.5070  -21.4270   -6.1540 C.2     1  UNL1        0.2520
     21  N         19.4740  -20.3710   -5.2880 N.am    1  UNL1       -0.3660
     22  H         18.6140  -19.8600   -5.1680 H       1  UNL1        0.1590
     23  H         20.3290  -19.8340   -5.2450 H       1  UNL1        0.1590
     24  O         20.5630  -21.7370   -6.7040 O.2     1  UNL1       -0.2680
     25  S         24.3140  -22.7870  -11.7420 S.O2    1  UNL1        0.2470
     26  O         24.4100  -23.8430  -12.7280 O.2     1  UNL1       -0.2050
     27  O         24.8170  -22.9700  -10.3930 O.2     1  UNL1       -0.2050
     28  N         24.9970  -21.3460  -12.3850 N.pl3   1  UNL1       -0.1760
     29  C         25.9600  -20.6500  -11.5020 C.3     1  UNL1        0.1360
     30  C         25.4540  -21.4830  -13.7440 C.2     1  UNL1        0.0250
     31  C         24.6510  -20.9570  -14.7550 C.2     1  UNL1        0.0250
     32  C         25.0750  -21.0060  -16.0840 C.2     1  UNL1        0.0080
     33  C         26.3080  -21.5830  -16.4120 C.2     1  UNL1       -0.0620
     34  C         26.7790  -21.6130  -17.8360 C.3     1  UNL1        0.0480
     35  C         27.1210  -22.0910  -15.3900 C.2     1  UNL1        0.0080
     36  C         26.6970  -22.0390  -14.0590 C.2     1  UNL1        0.0250
@<TRIPOS>BOND
     1    34    33    1
     2    33    32    2
     3    33    35    1
     4    32    31    1
     5    35    36    2
     6    31    30    2
     7    36    30    1
     8    30    28    1
     9    26    25    2
    10     2     3    1
    11     2     1    2
    12     3     4    2
    13    28    25    1
    14    28    29    1
    15    25     1    1
    16    25    27    2
    17     1     6    1
    18     4     5    1
    19     6     5    2
    20     5     7    1
    21     7     8    2
    22     7     9   am
    23    10     9    1
    24     9    11    1
    25    12    11   ar
    26    12    13   ar
    27    11    16   ar
    28    24    20    2
    29    16    20    1
    30    16    14   ar
    31    13    15    1
    32    13    14   ar
    33    20    21   am
    34    15    19    1
    35    14    17    1
    36    21    23    1
    37    21    22    1
    38    19    18    1
    39    17    18    1
