@<TRIPOS>MOLECULE
26426_out_ligand_01.pdbqt
 34 38 0 0 0
SMALL
GASTEIGER

@<TRIPOS>ATOM
      1  O         21.5320  -21.0340  -12.9910 O.2     1  UNL1       -0.2670
      2  C         21.3790  -21.5960  -11.9140 C.2     1  UNL1        0.2560
      3  N         22.3570  -22.2040  -11.1460 N.am    1  UNL1       -0.3230
      4  H         22.0380  -22.7330  -10.3430 H       1  UNL1        0.1690
      5  C         23.7410  -22.2650  -11.4120 C.2     1  UNL1        0.0360
      6  C         24.6930  -21.4520  -10.7910 C.2     1  UNL1        0.0290
      7  C         26.0490  -21.5590  -11.1200 C.2     1  UNL1        0.0040
      8  C         26.4700  -22.4890  -12.0670 C.2     1  UNL1        0.0250
      9  C         25.5280  -23.3220  -12.6690 C.2     1  UNL1        0.0820
     10  C         24.1670  -23.2050  -12.3580 C.2     1  UNL1        0.0540
     11  S         26.0430  -24.4880  -13.9010 S.O2    1  UNL1        0.2640
     12  O         27.1210  -25.2700  -13.3260 O.2     1  UNL1       -0.2000
     13  O         24.8840  -25.1410  -14.4640 O.2     1  UNL1       -0.2000
     14  N         26.7760  -23.5410  -15.0570 N.3     1  UNL1       -0.2680
     15  H         27.7830  -23.6700  -15.0710 H       1  UNL1        0.1800
     16  C         26.1480  -22.7100  -15.9780 C.3     1  UNL1        0.1080
     17  N         25.6890  -23.1020  -17.1180 N.3     1  UNL1       -0.2760
     18  C         25.1330  -21.8890  -17.7480 C.3     1  UNL1        0.1510
     19  C         24.8880  -20.9130  -16.6080 C.3     1  UNL1        0.0290
     20  C         25.9860  -21.2650  -15.6340 C.3     1  UNL1        0.0800
     21  C         20.0020  -21.6890  -11.3530 C.2     1  UNL1        0.0330
     22  C         18.9130  -21.0840  -11.9910 C.2     1  UNL1        0.0190
     23  C         17.6250  -21.1730  -11.4550 C.2     1  UNL1        0.0310
     24  C         17.4650  -21.8950  -10.2660 C.ar    1  UNL1        0.0430
     25  N         16.3260  -22.1470   -9.5280 N.ar    1  UNL1       -0.3580
     26  C         18.5300  -22.5250   -9.6150 C.ar    1  UNL1       -0.0000
     27  C         16.6400  -22.9100   -8.4420 C.ar    1  UNL1        0.0170
     28  H         15.4020  -21.8130   -9.7660 H       1  UNL1        0.1660
     29  C         17.9960  -23.1610   -8.4600 C.ar    1  UNL1       -0.0230
     30  C         15.6750  -23.3650   -7.4030 C.3     1  UNL1        0.0570
     31  C         18.6720  -23.9890   -7.4200 C.3     1  UNL1        0.0410
     32  C         17.7750  -24.1600   -6.1780 C.3     1  UNL1        0.0050
     33  C         16.3150  -24.4780   -6.5530 C.3     1  UNL1        0.0060
     34  C         19.8190  -22.4280  -10.1740 C.2     1  UNL1        0.0310
@<TRIPOS>BOND
     1    18    17    1
     2    18    19    1
     3    17    16    1
     4    19    20    1
     5    16    20    1
     6    16    14    1
     7    15    14    1
     8    14    11    1
     9    13    11    2
    10    11    12    2
    11    11     9    1
    12     1     2    2
    13     9    10    1
    14     9     8    2
    15    10     5    2
    16     8     7    1
    17    22    23    1
    18    22    21    2
    19     2    21    1
    20     2     3   am
    21    23    24    2
    22     5     3    1
    23     5     6    1
    24    21    34    1
    25     3     4    1
    26     7     6    2
    27    24    26   ar
    28    24    25   ar
    29    34    26    2
    30    28    25    1
    31    26    29   ar
    32    25    27   ar
    33    29    27   ar
    34    29    31    1
    35    27    30    1
    36    31    32    1
    37    30    33    1
    38    33    32    1
