@<TRIPOS>MOLECULE
26427_out_ligand_01.pdbqt
 35 39 0 0 0
SMALL
GASTEIGER

@<TRIPOS>ATOM
      1  C         21.4970  -21.6330  -11.9260 C.2     1  UNL1        0.2560
      2  O         21.6240  -21.1620  -13.0490 O.2     1  UNL1       -0.2670
      3  N         22.5080  -22.0800  -11.0930 N.am    1  UNL1       -0.3230
      4  H         22.2490  -22.3000  -10.1400 H       1  UNL1        0.1690
      5  C         23.8820  -22.1860  -11.3970 C.2     1  UNL1        0.0360
      6  C         24.8690  -21.3660  -10.8440 C.2     1  UNL1        0.0290
      7  C         26.2100  -21.5130  -11.2140 C.2     1  UNL1        0.0040
      8  C         26.5800  -22.4850  -12.1390 C.2     1  UNL1        0.0250
      9  C         25.6020  -23.3200  -12.6790 C.2     1  UNL1        0.0820
     10  C         24.2560  -23.1640  -12.3260 C.2     1  UNL1        0.0540
     11  S         26.0490  -24.5380  -13.8860 S.O2    1  UNL1        0.2640
     12  O         27.1210  -25.3310  -13.3150 O.2     1  UNL1       -0.2000
     13  O         24.8560  -25.1760  -14.3950 O.2     1  UNL1       -0.2000
     14  N         26.7740  -23.6470  -15.0910 N.3     1  UNL1       -0.2680
     15  H         27.7790  -23.7890  -15.1190 H       1  UNL1        0.1800
     16  C         26.1390  -22.8320  -16.0220 C.3     1  UNL1        0.1080
     17  N         25.6560  -23.2450  -17.1440 N.3     1  UNL1       -0.2760
     18  C         25.1020  -22.0410  -17.7930 C.3     1  UNL1        0.1510
     19  C         24.8890  -21.0360  -16.6740 C.3     1  UNL1        0.0290
     20  C         26.0010  -21.3770  -15.7110 C.3     1  UNL1        0.0800
     21  C         20.1300  -21.7030  -11.3350 C.2     1  UNL1        0.0330
     22  C         19.0380  -21.3910  -12.1510 C.2     1  UNL1        0.0190
     23  C         17.7310  -21.4280  -11.6540 C.2     1  UNL1        0.0310
     24  C         17.5580  -21.7990  -10.3160 C.ar    1  UNL1        0.0430
     25  N         16.4000  -21.9220   -9.5750 N.ar    1  UNL1       -0.3580
     26  C         18.6250  -22.1380   -9.4800 C.ar    1  UNL1       -0.0000
     27  C         16.7060  -22.3240   -8.3060 C.ar    1  UNL1        0.0170
     28  H         15.4700  -21.7480   -9.9300 H       1  UNL1        0.1660
     29  C         15.7120  -22.5920   -7.2320 C.3     1  UNL1        0.0580
     30  C         18.0730  -22.4760   -8.2120 C.ar    1  UNL1       -0.0230
     31  C         16.4340  -22.7100   -5.8760 C.3     1  UNL1        0.0100
     32  C         17.7530  -23.5230   -5.9400 C.3     1  UNL1       -0.0140
     33  C         17.4880  -24.9990   -6.2540 C.3     1  UNL1        0.0100
     34  C         18.7510  -22.9020   -6.9520 C.3     1  UNL1        0.0450
     35  C         19.9350  -22.0950   -9.9990 C.2     1  UNL1        0.0310
@<TRIPOS>BOND
     1    18    17    1
     2    18    19    1
     3    17    16    1
     4    19    20    1
     5    16    20    1
     6    16    14    1
     7    15    14    1
     8    14    11    1
     9    13    11    2
    10    11    12    2
    11    11     9    1
    12     2     1    2
    13     9    10    1
    14     9     8    2
    15    10     5    2
    16    22    23    1
    17    22    21    2
    18     8     7    1
    19     1    21    1
    20     1     3   am
    21    23    24    2
    22     5     3    1
    23     5     6    1
    24    21    35    1
    25     7     6    2
    26     3     4    1
    27    24    25   ar
    28    24    26   ar
    29    35    26    2
    30    28    25    1
    31    25    27   ar
    32    26    30   ar
    33    27    30   ar
    34    27    29    1
    35    30    34    1
    36    29    31    1
    37    34    32    1
    38    33    32    1
    39    32    31    1
