@<TRIPOS>MOLECULE
26423_out_ligand_01.pdbqt
 31 34 0 0 0
SMALL
GASTEIGER

@<TRIPOS>ATOM
      1  C         19.9200  -21.8690  -11.0750 C.2     1  UNL1        0.0360
      2  C         19.0140  -21.0930  -11.8030 C.2     1  UNL1        0.0290
      3  C         17.6640  -21.0410  -11.4410 C.2     1  UNL1        0.0040
      4  C         17.2020  -21.7660  -10.3470 C.2     1  UNL1        0.0250
      5  C         18.0970  -22.5610   -9.6300 C.2     1  UNL1        0.0820
      6  C         19.4530  -22.6010   -9.9770 C.2     1  UNL1        0.0540
      7  N         21.2990  -21.9480  -11.3600 N.am    1  UNL1       -0.3230
      8  C         22.3470  -21.7540  -10.4790 C.2     1  UNL1        0.2560
      9  O         22.2750  -21.3930   -9.3110 O.2     1  UNL1       -0.2670
     10  H         21.5390  -22.1070  -12.3300 H       1  UNL1        0.1690
     11  C         23.6990  -21.9800  -11.0610 C.2     1  UNL1        0.0340
     12  C         24.8430  -21.4160  -10.4820 C.2     1  UNL1        0.0170
     13  C         26.0940  -21.6360  -11.0600 C.2     1  UNL1        0.0030
     14  C         26.2110  -22.4110  -12.2180 C.2     1  UNL1        0.0310
     15  C         25.0680  -22.9660  -12.8110 C.2     1  UNL1        0.0560
     16  C         23.8090  -22.7430  -12.2310 C.2     1  UNL1        0.0480
     17  N         25.1640  -23.7500  -13.9860 N.pl3   1  UNL1       -0.2340
     18  C         25.1590  -23.3580  -15.3020 C.2     1  UNL1        0.2490
     19  N         25.2890  -24.4150  -16.0720 N.2     1  UNL1       -0.1560
     20  N         25.3740  -25.4840  -15.2220 N.2     1  UNL1        0.0170
     21  N         25.2990  -25.0960  -13.9580 N.2     1  UNL1        0.0020
     22  S         17.5340  -23.4630   -8.2110 S.O2    1  UNL1        0.2640
     23  O         16.2970  -24.1210   -8.5890 O.2     1  UNL1       -0.2000
     24  O         18.6290  -24.2260   -7.6580 O.2     1  UNL1       -0.2000
     25  N         17.0740  -22.2730   -7.1430 N.3     1  UNL1       -0.2680
     26  H         16.2840  -21.7360   -7.4860 H       1  UNL1        0.1800
     27  C         17.6040  -22.0350   -5.8790 C.3     1  UNL1        0.1080
     28  N         17.0530  -22.4150   -4.7760 N.3     1  UNL1       -0.2760
     29  C         17.9750  -21.9710   -3.7120 C.3     1  UNL1        0.1510
     30  C         18.8350  -20.8870   -4.3390 C.3     1  UNL1        0.0290
     31  C         18.9140  -21.3240   -5.7820 C.3     1  UNL1        0.0800
@<TRIPOS>BOND
     1    19    18    2
     2    19    20    1
     3    18    17    1
     4    20    21    2
     5    17    21    1
     6    17    15    1
     7    15    16    1
     8    15    14    2
     9    10     7    1
    10    16    11    2
    11    14    13    1
    12     2     3    1
    13     2     1    2
    14     3     4    2
    15     7     1    1
    16     7     8   am
    17     1     6    1
    18    11    12    1
    19    11     8    1
    20    13    12    2
    21     8     9    2
    22     4     5    1
    23     6     5    2
    24     5    22    1
    25    23    22    2
    26    22    24    2
    27    22    25    1
    28    26    25    1
    29    25    27    1
    30    27    31    1
    31    27    28    1
    32    31    30    1
    33    28    29    1
    34    30    29    1
