@<TRIPOS>MOLECULE
26433_out_ligand_01.pdbqt
 37 41 0 0 0
SMALL
GASTEIGER

@<TRIPOS>ATOM
      1  O         22.0530  -23.9520   -9.7330 O.2     1  UNL1       -0.2670
      2  C         21.6840  -23.0560  -10.4780 C.2     1  UNL1        0.2560
      3  N         22.4210  -22.4140  -11.4550 N.am    1  UNL1       -0.3230
      4  H         21.9200  -21.7690  -12.0510 H       1  UNL1        0.1690
      5  C         20.2770  -22.5860  -10.3670 C.2     1  UNL1        0.0340
      6  C         19.6660  -21.9070  -11.4220 C.2     1  UNL1        0.0170
      7  C         18.3580  -21.4620  -11.2740 C.2     1  UNL1        0.0030
      8  C         17.6670  -21.6910  -10.0770 C.2     1  UNL1        0.0300
      9  C         18.2600  -22.3670   -8.9950 C.2     1  UNL1        0.0460
     10  C         19.5840  -22.8040   -9.1640 C.2     1  UNL1        0.0470
     11  N         17.5490  -22.5910   -7.7760 N.am    1  UNL1       -0.2440
     12  C         16.3940  -23.3410   -7.6550 C.2     1  UNL1        0.2660
     13  O         15.7300  -23.9540   -8.4730 O.2     1  UNL1       -0.2670
     14  C         15.9960  -23.3000   -6.2520 C.2     1  UNL1        0.0480
     15  C         14.9120  -23.8740   -5.6120 C.2     1  UNL1        0.0180
     16  C         16.9230  -22.5430   -5.5750 C.2     1  UNL1        0.0480
     17  C         14.7900  -23.6560   -4.2360 C.2     1  UNL1        0.0010
     18  C         15.7410  -22.8820   -3.5430 C.2     1  UNL1        0.0010
     19  C         16.8280  -22.3140   -4.2140 C.2     1  UNL1        0.0180
     20  C         17.9270  -22.1030   -6.5380 C.2     1  UNL1        0.2660
     21  O         18.8980  -21.4660   -6.1760 O.2     1  UNL1       -0.2670
     22  C         23.7810  -22.6150  -11.7760 C.2     1  UNL1        0.0360
     23  C         24.7250  -21.9900  -10.9480 C.2     1  UNL1        0.0290
     24  C         26.0950  -22.1400  -11.1750 C.2     1  UNL1        0.0040
     25  C         26.5390  -22.9210  -12.2360 C.2     1  UNL1        0.0250
     26  C         25.6020  -23.5370  -13.0740 C.2     1  UNL1        0.0820
     27  C         24.2270  -23.3980  -12.8420 C.2     1  UNL1        0.0540
     28  S         26.1820  -24.5730  -14.3920 S.O2    1  UNL1        0.2640
     29  O         25.0680  -25.0520  -15.1760 O.2     1  UNL1       -0.2000
     30  O         27.1210  -25.5140  -13.8080 O.2     1  UNL1       -0.2000
     31  N         27.1210  -23.5580  -15.3180 N.3     1  UNL1       -0.2680
     32  H         28.1130  -23.7000  -15.1540 H       1  UNL1        0.1800
     33  C         26.6700  -22.6580  -16.2760 C.3     1  UNL1        0.1080
     34  N         26.4630  -22.9600  -17.5110 N.3     1  UNL1       -0.2760
     35  C         25.9750  -21.7180  -18.1410 C.3     1  UNL1        0.1510
     36  C         26.3950  -20.5950  -17.2080 C.3     1  UNL1        0.0290
     37  C         26.3610  -21.2600  -15.8530 C.3     1  UNL1        0.0800
@<TRIPOS>BOND
     1    35    34    1
     2    35    36    1
     3    34    33    1
     4    36    37    1
     5    33    37    1
     6    33    31    1
     7    31    32    1
     8    31    28    1
     9    29    28    2
    10    28    30    2
    11    28    26    1
    12    26    27    1
    13    26    25    2
    14    27    22    2
    15    25    24    1
    16     4     3    1
    17    22     3    1
    18    22    23    1
    19     3     2   am
    20     6     7    1
    21     6     5    2
    22     7     8    2
    23    24    23    2
    24     2     5    1
    25     2     1    2
    26     5    10    1
    27     8     9    1
    28    10     9    2
    29     9    11    1
    30    13    12    2
    31    11    12   am
    32    11    20   am
    33    12    14    1
    34    20    21    2
    35    20    16    1
    36    14    15    2
    37    14    16    1
    38    15    17    1
    39    16    19    2
    40    17    18    2
    41    19    18    1
