@<TRIPOS>MOLECULE
26434_out_ligand_01.pdbqt
 32 35 0 0 0
SMALL
GASTEIGER

@<TRIPOS>ATOM
      1  C         19.0270  -21.9010  -11.1730 C.2     1  UNL1        0.0360
      2  C         17.9800  -21.0830  -11.6030 C.2     1  UNL1        0.0290
      3  C         16.7600  -21.0630  -10.9150 C.2     1  UNL1        0.0040
      4  C         16.5780  -21.8540   -9.7840 C.2     1  UNL1        0.0250
      5  C         17.6290  -22.6570   -9.3420 C.2     1  UNL1        0.0820
      6  C         18.8410  -22.6980  -10.0390 C.2     1  UNL1        0.0540
      7  N         20.2880  -21.9720  -11.8020 N.am    1  UNL1       -0.3230
      8  C         21.5300  -21.9300  -11.1990 C.2     1  UNL1        0.2560
      9  O         21.7690  -21.7520  -10.0110 O.2     1  UNL1       -0.2670
     10  H         20.2630  -22.0000  -12.8140 H       1  UNL1        0.1690
     11  C         22.6810  -22.0950  -12.1290 C.2     1  UNL1        0.0340
     12  C         23.7150  -22.9610  -11.7630 C.2     1  UNL1        0.0180
     13  C         24.8120  -23.1380  -12.6100 C.2     1  UNL1        0.0220
     14  C         24.8700  -22.4750  -13.8410 C.2     1  UNL1        0.0270
     15  S         26.3350  -22.6560  -14.8330 S.3     1  UNL1       -0.1180
     16  C         23.8160  -21.6310  -14.2220 C.2     1  UNL1        0.0520
     17  C         25.6170  -22.3220  -16.4550 C.3     1  UNL1        0.1820
     18  C         24.6920  -21.1260  -16.4780 C.2     1  UNL1        0.2310
     19  O         24.6190  -20.3850  -17.4610 O.2     1  UNL1       -0.2720
     20  N         23.8220  -20.9360  -15.4390 N.am    1  UNL1       -0.3250
     21  H         23.1400  -20.2060  -15.6030 H       1  UNL1        0.1690
     22  C         22.7280  -21.4340  -13.3630 C.2     1  UNL1        0.0480
     23  S         17.4100  -23.6920   -7.9190 S.O2    1  UNL1        0.2640
     24  O         18.6860  -24.2570   -7.5400 O.2     1  UNL1       -0.2000
     25  O         16.2700  -24.5490   -8.1770 O.2     1  UNL1       -0.2000
     26  N         16.8980  -22.6300   -6.7450 N.3     1  UNL1       -0.2680
     27  H         15.9030  -22.4350   -6.8180 H       1  UNL1        0.1800
     28  C         17.6640  -22.0730   -5.7280 C.3     1  UNL1        0.1080
     29  N         17.3390  -22.0880   -4.4770 N.3     1  UNL1       -0.2760
     30  C         18.4560  -21.4130   -3.7850 C.3     1  UNL1        0.1510
     31  C         19.1760  -20.6060   -4.8530 C.3     1  UNL1        0.0290
     32  C         18.9700  -21.4450   -6.0900 C.3     1  UNL1        0.0800
@<TRIPOS>BOND
     1    19    18    2
     2    18    17    1
     3    18    20   am
     4    17    15    1
     5    21    20    1
     6    20    16    1
     7    15    14    1
     8    16    14    2
     9    16    22    1
    10    14    13    1
    11    22    11    2
    12    10     7    1
    13    13    12    2
    14    11    12    1
    15    11     8    1
    16     7     8   am
    17     7     1    1
    18     2     1    2
    19     2     3    1
    20     8     9    2
    21     1     6    1
    22     3     4    2
    23     6     5    2
    24     4     5    1
    25     5    23    1
    26    25    23    2
    27    23    24    2
    28    23    26    1
    29    27    26    1
    30    26    28    1
    31    32    28    1
    32    32    31    1
    33    28    29    1
    34    31    30    1
    35    29    30    1
