@<TRIPOS>MOLECULE
26445_out_ligand_01.pdbqt
 37 40 0 0 0
SMALL
GASTEIGER

@<TRIPOS>ATOM
      1  C         17.6710  -23.4330   -8.4680 C.2     1  UNL1        0.0750
      2  C         19.0120  -23.8240   -8.4840 C.2     1  UNL1        0.0260
      3  C         19.8720  -23.2800   -9.4410 C.2     1  UNL1        0.0180
      4  C         19.3990  -22.3470  -10.3790 C.2     1  UNL1        0.0320
      5  C         18.0560  -21.9430  -10.3340 C.2     1  UNL1        0.0180
      6  C         17.1900  -22.4880   -9.3800 C.2     1  UNL1        0.0260
      7  C         20.3710  -21.7880  -11.3700 C.2     1  UNL1        0.2560
      8  O         19.9530  -20.9550  -12.1650 O.2     1  UNL1       -0.2670
      9  N         21.6600  -22.2700  -11.2520 N.am    1  UNL1       -0.3160
     10  H         21.8840  -22.8720  -10.4620 H       1  UNL1        0.1690
     11  C         22.7620  -21.9490  -12.0350 C.ar    1  UNL1        0.0930
     12  S         22.5900  -21.3960  -13.6270 S.2     1  UNL1       -0.0750
     13  C         24.2610  -21.1930  -13.8120 C.ar    1  UNL1       -0.0080
     14  C         24.9740  -21.5560  -12.6820 C.ar    1  UNL1       -0.0260
     15  C         24.8390  -20.6200  -15.0700 C.3     1  UNL1        0.0470
     16  C         24.0950  -22.0530  -11.6400 C.ar    1  UNL1        0.0730
     17  C         26.4720  -21.4080  -12.6410 C.3     1  UNL1        0.0410
     18  C         26.9940  -20.4740  -13.7430 C.3     1  UNL1        0.0050
     19  C         26.3620  -20.8020  -15.1010 C.3     1  UNL1        0.0050
     20  C         24.4430  -22.5820  -10.3180 C.2     1  UNL1        0.2520
     21  N         25.4460  -23.5050  -10.2630 N.am    1  UNL1       -0.3660
     22  H         25.6990  -24.0290  -11.0860 H       1  UNL1        0.1590
     23  H         25.5540  -23.9730   -9.3710 H       1  UNL1        0.1590
     24  O         23.8270  -22.2870   -9.2950 O.2     1  UNL1       -0.2680
     25  S         16.5580  -24.0910   -7.2380 S.O2    1  UNL1        0.2470
     26  O         15.4740  -24.7460   -7.9410 O.2     1  UNL1       -0.2050
     27  O         17.3820  -24.8210   -6.2960 O.2     1  UNL1       -0.2050
     28  N         15.9770  -22.6550   -6.4970 N.pl3   1  UNL1       -0.1740
     29  C         14.5360  -22.6580   -6.1530 C.3     1  UNL1        0.1360
     30  C         16.8580  -22.1590   -5.4620 C.2     1  UNL1        0.0580
     31  C         18.0330  -21.5260   -5.8840 C.2     1  UNL1        0.0270
     32  C         18.9580  -21.0580   -4.9490 C.2     1  UNL1        0.0020
     33  C         18.7150  -21.2210   -3.5860 C.2     1  UNL1        0.0030
     34  C         17.5550  -21.8660   -3.1550 C.2     1  UNL1        0.0380
     35  C         16.6380  -22.3590   -4.0890 C.2     1  UNL1        0.0900
     36  O         15.4860  -22.9750   -3.6730 O.2     1  UNL1       -0.3540
     37  C         15.7350  -24.2810   -3.1540 C.3     1  UNL1        0.2100
@<TRIPOS>BOND
     1    19    15    1
     2    19    18    1
     3    15    13    1
     4    13    12   ar
     5    13    14   ar
     6    18    17    1
     7    12    11   ar
     8    14    17    1
     9    14    16   ar
    10     8     7    2
    11    11    16   ar
    12    11     9    1
    13    16    20    1
    14     7     9   am
    15     7     4    1
    16     9    10    1
    17    22    21    1
    18     4     5    2
    19     4     3    1
    20     5     6    1
    21    20    21   am
    22    20    24    2
    23    21    23    1
    24     3     2    2
    25     6     1    2
    26     2     1    1
    27     1    25    1
    28    26    25    2
    29    25    28    1
    30    25    27    2
    31    28    29    1
    32    28    30    1
    33    31    30    2
    34    31    32    1
    35    30    35    1
    36    32    33    2
    37    35    36    1
    38    35    34    2
    39    36    37    1
    40    33    34    1
