@<TRIPOS>MOLECULE
26442_out_ligand_01.pdbqt
 31 34 0 0 0
SMALL
GASTEIGER

@<TRIPOS>ATOM
      1  C         21.9550  -22.3160  -11.4430 C.2     1  UNL1        0.0360
      2  C         21.6280  -21.4880  -12.5190 C.2     1  UNL1        0.0290
      3  C         22.5340  -21.2870  -13.5670 C.2     1  UNL1        0.0040
      4  C         23.7810  -21.9050  -13.5460 C.2     1  UNL1        0.0250
      5  C         24.1240  -22.7080  -12.4580 C.2     1  UNL1        0.0820
      6  C         23.2130  -22.9270  -11.4170 C.2     1  UNL1        0.0540
      7  N         21.0870  -22.5830  -10.3610 N.am    1  UNL1       -0.3230
      8  C         21.3360  -22.3760   -9.0170 C.2     1  UNL1        0.2560
      9  O         22.3420  -21.8870   -8.5180 O.2     1  UNL1       -0.2670
     10  H         20.1540  -22.8830  -10.6140 H       1  UNL1        0.1690
     11  C         20.2260  -22.7720   -8.1050 C.2     1  UNL1        0.0320
     12  C         19.9310  -21.9470   -7.0140 C.2     1  UNL1        0.0190
     13  C         18.9020  -22.2860   -6.1320 C.2     1  UNL1        0.0320
     14  C         18.1640  -23.4640   -6.3260 C.2     1  UNL1        0.0550
     15  C         18.4710  -24.3020   -7.4100 C.2     1  UNL1        0.0320
     16  C         19.5020  -23.9560   -8.2930 C.2     1  UNL1        0.0190
     17  N         17.1260  -23.7940   -5.4200 N.pl3   1  UNL1       -0.2340
     18  C         15.7730  -23.8770   -5.6310 C.2     1  UNL1        0.2490
     19  N         15.1750  -24.2100   -4.5110 N.2     1  UNL1       -0.1560
     20  N         16.1740  -24.3380   -3.5820 N.2     1  UNL1        0.0170
     21  N         17.3590  -24.0880   -4.1210 N.2     1  UNL1        0.0020
     22  S         25.6930  -23.5340  -12.4330 S.O2    1  UNL1        0.2640
     23  O         25.6550  -24.6720  -13.3220 O.2     1  UNL1       -0.2000
     24  O         26.0650  -23.6990  -11.0400 O.2     1  UNL1       -0.2000
     25  N         26.7520  -22.3910  -13.0200 N.3     1  UNL1       -0.2680
     26  H         27.4160  -22.7920  -13.6740 H       1  UNL1        0.1800
     27  C         26.7160  -21.0220  -12.7850 C.3     1  UNL1        0.1080
     28  N         26.8540  -20.1230  -13.6990 N.3     1  UNL1       -0.2760
     29  C         26.7200  -18.8310  -12.9950 C.3     1  UNL1        0.1510
     30  C         26.9780  -19.1350  -11.5280 C.3     1  UNL1        0.0290
     31  C         26.4640  -20.5480  -11.3900 C.3     1  UNL1        0.0800
@<TRIPOS>BOND
     1    28    29    1
     2    28    27    1
     3    26    25    1
     4     3     4    2
     5     3     2    1
     6     4     5    1
     7    23    22    2
     8    25    27    1
     9    25    22    1
    10    29    30    1
    11    27    31    1
    12     2     1    2
    13     5    22    1
    14     5     6    2
    15    22    24    2
    16    30    31    1
    17     1     6    1
    18     1     7    1
    19    10     7    1
    20     7     8   am
    21     8     9    2
    22     8    11    1
    23    16    11    2
    24    16    15    1
    25    11    12    1
    26    15    14    2
    27    12    13    2
    28    14    13    1
    29    14    17    1
    30    18    17    1
    31    18    19    2
    32    17    21    1
    33    19    20    1
    34    21    20    2
