@<TRIPOS>MOLECULE
26456_out_ligand_01.pdbqt
 37 41 0 0 0
SMALL
GASTEIGER

@<TRIPOS>ATOM
      1  C         17.7230  -22.3530  -10.6330 C.2     1  UNL1        0.0840
      2  C         16.3790  -22.2740  -10.2310 C.2     1  UNL1        0.0390
      3  C         15.9530  -22.8650   -9.0380 C.2     1  UNL1        0.0270
      4  C         16.8700  -23.5430   -8.2410 C.2     1  UNL1        0.0760
      5  C         18.2090  -23.6400   -8.6220 C.2     1  UNL1        0.0440
      6  C         18.6460  -23.0450   -9.8190 C.2     1  UNL1        0.0670
      7  C         20.1050  -23.1960  -10.1300 C.2     1  UNL1        0.2590
      8  O         20.6480  -24.2700   -9.8810 O.2     1  UNL1       -0.2670
      9  N         20.7410  -22.0800  -10.6310 N.am    1  UNL1       -0.3160
     10  H         20.3010  -21.1780  -10.4840 H       1  UNL1        0.1690
     11  C         22.0490  -22.0730  -11.0540 C.ar    1  UNL1        0.0930
     12  S         22.1850  -21.7870  -12.7460 S.2     1  UNL1       -0.0750
     13  C         23.8490  -21.7500  -12.6210 C.ar    1  UNL1       -0.0080
     14  C         24.3170  -22.0000  -11.3600 C.ar    1  UNL1       -0.0260
     15  C         24.9090  -21.5590  -13.6360 C.3     1  UNL1        0.0470
     16  C         23.2740  -22.2480  -10.4230 C.ar    1  UNL1        0.0730
     17  C         25.8020  -22.0320  -11.3410 C.3     1  UNL1        0.0410
     18  C         26.1670  -21.4130  -12.7260 C.3     1  UNL1        0.0100
     19  C         23.4570  -22.6960   -9.0530 C.2     1  UNL1        0.2520
     20  N         24.2120  -23.8290   -8.9200 N.am    1  UNL1       -0.3660
     21  H         24.8940  -24.0070   -9.6460 H       1  UNL1        0.1590
     22  H         24.5280  -23.9770   -7.9710 H       1  UNL1        0.1590
     23  O         22.9690  -22.1320   -8.0790 O.2     1  UNL1       -0.2680
     24  O         18.2000  -21.7720  -11.7820 O.2     1  UNL1       -0.3550
     25  C         18.3940  -20.3610  -11.7880 C.3     1  UNL1        0.2100
     26  S         16.3480  -24.3000   -6.7160 S.O2    1  UNL1        0.2480
     27  O         17.5100  -24.9800   -6.1880 O.2     1  UNL1       -0.2050
     28  O         15.1120  -25.0130   -6.9860 O.2     1  UNL1       -0.2050
     29  N         15.9680  -22.9370   -5.7580 N.pl3   1  UNL1       -0.1710
     30  C         15.0860  -23.2050   -4.5660 C.3     1  UNL1        0.1180
     31  C         15.9440  -22.9730   -3.3130 C.3     1  UNL1        0.0560
     32  C         17.0860  -22.1800   -3.8560 C.2     1  UNL1       -0.0350
     33  C         18.0830  -21.5220   -3.1540 C.2     1  UNL1        0.0090
     34  C         17.1020  -22.2240   -5.2490 C.2     1  UNL1        0.0310
     35  C         19.0930  -20.8840   -3.8790 C.2     1  UNL1        0.0010
     36  C         19.0960  -20.9160   -5.2830 C.2     1  UNL1        0.0020
     37  C         18.0910  -21.5900   -5.9800 C.2     1  UNL1        0.0250
@<TRIPOS>BOND
     1    15    18    1
     2    15    13    1
     3    12    13   ar
     4    12    11   ar
     5    18    17    1
     6    13    14   ar
     7    25    24    1
     8    24     1    1
     9    14    17    1
    10    14    16   ar
    11    11     9    1
    12    11    16   ar
    13     1     2    2
    14     1     6    1
    15     9    10    1
    16     9     7   am
    17    16    19    1
    18     2     3    1
    19     7     8    2
    20     7     6    1
    21     6     5    2
    22    21    20    1
    23    19    20   am
    24    19    23    2
    25     3     4    2
    26    20    22    1
    27     5     4    1
    28     4    26    1
    29    28    26    2
    30    26    27    2
    31    26    29    1
    32    37    36    2
    33    37    34    1
    34    29    34    1
    35    29    30    1
    36    36    35    1
    37    34    32    2
    38    30    31    1
    39    35    33    2
    40    32    31    1
    41    32    33    1
