@<TRIPOS>MOLECULE
26466_out_ligand_01.pdbqt
 36 39 0 0 0
SMALL
GASTEIGER

@<TRIPOS>ATOM
      1  C         17.7160  -23.5310   -8.4130 C.2     1  UNL1        0.0800
      2  C         17.1820  -22.6060   -9.3170 C.2     1  UNL1        0.0260
      3  C         18.0280  -21.9570  -10.2210 C.2     1  UNL1        0.0180
      4  C         19.4060  -22.2230  -10.2100 C.2     1  UNL1        0.0320
      5  C         19.9260  -23.1570   -9.2990 C.2     1  UNL1        0.0180
      6  C         19.0860  -23.8060   -8.3910 C.2     1  UNL1        0.0260
      7  C         20.3500  -21.5670  -11.1630 C.2     1  UNL1        0.2560
      8  O         19.9730  -20.5390  -11.7120 O.2     1  UNL1       -0.2670
      9  N         21.5520  -22.2260  -11.3270 N.am    1  UNL1       -0.3160
     10  H         21.6760  -23.1290  -10.8710 H       1  UNL1        0.1690
     11  C         22.6050  -21.8760  -12.1630 C.ar    1  UNL1        0.0930
     12  S         22.3480  -21.4350  -13.7780 S.2     1  UNL1       -0.0750
     13  C         24.0090  -21.3120  -14.0800 C.ar    1  UNL1       -0.0080
     14  C         24.7810  -21.5320  -12.9530 C.ar    1  UNL1       -0.0260
     15  C         24.5260  -20.9980  -15.4510 C.3     1  UNL1        0.0470
     16  C         23.9500  -21.8370  -11.8000 C.ar    1  UNL1        0.0730
     17  C         26.2860  -21.5390  -13.0450 C.3     1  UNL1        0.0410
     18  C         26.8050  -20.9410  -14.3630 C.3     1  UNL1        0.0050
     19  C         25.9960  -21.4170  -15.5720 C.3     1  UNL1        0.0050
     20  C         24.3540  -22.1310  -10.4240 C.2     1  UNL1        0.2520
     21  N         25.2730  -23.1240  -10.2450 N.am    1  UNL1       -0.3660
     22  H         25.8980  -23.3570  -11.0030 H       1  UNL1        0.1590
     23  H         25.6580  -23.1840   -9.3120 H       1  UNL1        0.1590
     24  O         23.9740  -21.4730   -9.4570 O.2     1  UNL1       -0.2680
     25  S         16.6180  -24.3460   -7.2710 S.O2    1  UNL1        0.2650
     26  O         15.4900  -24.8540   -8.0250 O.2     1  UNL1       -0.2000
     27  O         17.4460  -25.2340   -6.4820 O.2     1  UNL1       -0.2000
     28  N         16.0800  -23.0470   -6.2990 N.pl3   1  UNL1       -0.2720
     29  C         14.6620  -23.0630   -5.8400 C.3     1  UNL1        0.1370
     30  C         14.0050  -21.6920   -5.8170 C.3     1  UNL1        0.0280
     31  C         17.0440  -22.4910   -5.3850 C.2     1  UNL1        0.0450
     32  C         17.0050  -22.7480   -4.0110 C.2     1  UNL1        0.0300
     33  C         17.9080  -22.1150   -3.1530 C.2     1  UNL1        0.0020
     34  C         18.8360  -21.2080   -3.6610 C.2     1  UNL1        0.0000
     35  C         18.8580  -20.9250   -5.0260 C.2     1  UNL1        0.0020
     36  C         17.9560  -21.5570   -5.8840 C.2     1  UNL1        0.0300
@<TRIPOS>BOND
     1    19    15    1
     2    19    18    1
     3    15    13    1
     4    18    17    1
     5    13    12   ar
     6    13    14   ar
     7    12    11   ar
     8    17    14    1
     9    14    16   ar
    10    11    16   ar
    11    11     9    1
    12    16    20    1
    13     8     7    2
    14     9     7   am
    15     9    10    1
    16     7     4    1
    17    22    21    1
    18    20    21   am
    19    20    24    2
    20    21    23    1
    21     3     4    2
    22     3     2    1
    23     4     5    1
    24     2     1    2
    25     5     6    2
    26     1     6    1
    27     1    25    1
    28    26    25    2
    29    25    27    2
    30    25    28    1
    31    28    29    1
    32    28    31    1
    33    36    31    2
    34    36    35    1
    35    29    30    1
    36    31    32    1
    37    35    34    2
    38    32    33    2
    39    34    33    1
