@<TRIPOS>MOLECULE
26475_out_ligand_01.pdbqt
 29 31 0 0 0
SMALL
GASTEIGER

@<TRIPOS>ATOM
      1  N         22.1640  -22.2100  -10.0700 N.am    1  UNL1       -0.3260
      2  C         21.5120  -23.2540   -9.4220 C.2     1  UNL1        0.2350
      3  O         21.9180  -24.4110   -9.3720 O.2     1  UNL1       -0.2720
      4  H         21.6530  -21.3370  -10.1240 H       1  UNL1        0.1690
      5  C         20.1880  -22.8060   -8.6870 C.3     1  UNL1        0.0680
      6  C         20.6830  -21.7630   -7.6300 C.3     1  UNL1        0.0240
      7  C         20.0660  -21.7440   -6.2300 C.3     1  UNL1        0.0020
      8  C         18.5490  -21.8050   -6.1380 C.3     1  UNL1        0.0000
      9  C         18.0160  -23.2300   -6.1420 C.3     1  UNL1        0.0000
     10  C         18.1490  -23.9580   -7.4710 C.3     1  UNL1        0.0020
     11  C         19.5780  -24.0750   -8.0110 C.3     1  UNL1        0.0240
     12  C         19.2090  -22.2670   -9.7630 C.2     1  UNL1       -0.0400
     13  C         17.8120  -22.3530   -9.6570 C.2     1  UNL1        0.0080
     14  C         16.9760  -21.8320  -10.6520 C.2     1  UNL1        0.0010
     15  C         17.5190  -21.2150  -11.7740 C.2     1  UNL1        0.0000
     16  C         18.8990  -21.1200  -11.9070 C.2     1  UNL1        0.0010
     17  C         19.7330  -21.6400  -10.9150 C.2     1  UNL1        0.0080
     18  C         23.3910  -22.2500  -10.7640 C.2     1  UNL1        0.0350
     19  C         23.6170  -22.9990  -11.9230 C.2     1  UNL1        0.0490
     20  C         24.8770  -22.9890  -12.5520 C.2     1  UNL1        0.0720
     21  C         25.9020  -22.2180  -12.0020 C.2     1  UNL1        0.1320
     22  C         25.6910  -21.4730  -10.8460 C.2     1  UNL1        0.0450
     23  F         27.1210  -22.1720  -12.5620 F       1  UNL1       -0.2050
     24  C         24.4400  -21.4910  -10.2290 C.2     1  UNL1        0.0320
     25  C         25.0620  -23.8080  -13.7790 C.2     1  UNL1        0.2520
     26  N         25.0190  -23.1800  -14.9910 N.am    1  UNL1       -0.3660
     27  H         24.8760  -22.1830  -15.0960 H       1  UNL1        0.1590
     28  H         25.1510  -23.7450  -15.8190 H       1  UNL1        0.1590
     29  O         25.2510  -25.0180  -13.7250 O.2     1  UNL1       -0.2680
@<TRIPOS>BOND
     1    28    26    1
     2    27    26    1
     3    26    25   am
     4    25    29    2
     5    25    20    1
     6    23    21    1
     7    20    21    2
     8    20    19    1
     9    21    22    1
    10    19    18    2
    11    16    15    2
    12    16    17    1
    13    15    14    1
    14    17    12    2
    15    22    24    2
    16    18    24    1
    17    18     1    1
    18    14    13    2
    19     4     1    1
    20     1     2   am
    21    12    13    1
    22    12     5    1
    23     2     3    2
    24     2     5    1
    25     5    11    1
    26     5     6    1
    27    11    10    1
    28     6     7    1
    29    10     9    1
    30     7     8    1
    31     9     8    1
