@<TRIPOS>MOLECULE
26486_out_ligand_01.pdbqt
 25 28 0 0 0
SMALL
GASTEIGER

@<TRIPOS>ATOM
      1  N         26.3310  -21.6140  -11.0080 N.1     1  UNL1       -0.1970
      2  C         25.3280  -22.1960  -10.9380 C.1     1  UNL1        0.0630
      3  C         24.0780  -22.9620  -10.8200 C.3     1  UNL1        0.1640
      4  C         22.9720  -22.3100  -11.5860 C.2     1  UNL1       -0.0170
      5  C         23.0570  -21.7680  -12.8550 C.2     1  UNL1        0.0970
      6  N         21.8280  -21.2700  -13.1960 N.pl3   1  UNL1       -0.3650
      7  C         20.9360  -21.4650  -12.1670 C.2     1  UNL1        0.0430
      8  H         21.6010  -20.8240  -14.0730 H       1  UNL1        0.1650
      9  C         19.5840  -21.1200  -12.0720 C.2     1  UNL1        0.0310
     10  C         21.6220  -22.1140  -11.1440 C.2     1  UNL1       -0.0000
     11  C         18.9130  -21.4530  -10.8900 C.2     1  UNL1        0.0140
     12  C         19.5550  -22.1060   -9.8280 C.2     1  UNL1       -0.0250
     13  C         20.9180  -22.4360   -9.9620 C.2     1  UNL1        0.0260
     14  C         18.8220  -22.4440   -8.5970 C.2     1  UNL1       -0.0260
     15  C         19.3900  -22.2360   -7.3360 C.2     1  UNL1        0.0130
     16  C         18.6880  -22.5610   -6.1680 C.2     1  UNL1        0.0110
     17  C         17.3940  -23.1190   -6.1950 C.2     1  UNL1       -0.0240
     18  C         16.8350  -23.3060   -7.4730 C.2     1  UNL1        0.0110
     19  C         17.5310  -22.9820   -8.6470 C.2     1  UNL1        0.0130
     20  C         16.6170  -23.4670   -4.8260 C.3     1  UNL1        0.0850
     21  C         16.1610  -22.2780   -3.9020 C.3     1  UNL1        0.0430
     22  C         14.8080  -22.2930   -4.6250 C.3     1  UNL1        0.0070
     23  C         15.0770  -23.7640   -4.9740 C.3     1  UNL1        0.0430
     24  O         17.3190  -24.5070   -4.0980 O.3     1  UNL1       -0.3850
     25  H         16.6120  -25.0560   -3.7200 H       1  UNL1        0.2110
@<TRIPOS>BOND
     1     8     6    1
     2     6     5    1
     3     6     7    1
     4     5     4    2
     5     7     9    2
     6     7    10    1
     7     9    11    1
     8     4    10    1
     9     4     3    1
    10    10    13    2
    11     1     2    3
    12     2     3    1
    13    11    12    2
    14    13    12    1
    15    12    14    1
    16    19    14    2
    17    19    18    1
    18    14    15    1
    19    18    17    2
    20    15    16    2
    21    17    16    1
    22    17    20    1
    23    23    20    1
    24    23    22    1
    25    20    24    1
    26    20    21    1
    27    22    21    1
    28    24    25    1
