@<TRIPOS>MOLECULE
26505_out_ligand_01.pdbqt
 27 30 0 0 0
SMALL
GASTEIGER

@<TRIPOS>ATOM
      1  C         18.6300  -21.7440   -5.5550 C.2     1  UNL1        0.0560
      2  C         19.5560  -22.1820   -6.5520 C.2     1  UNL1        0.0460
      3  C         19.0400  -23.2900   -7.1990 C.2     1  UNL1        0.0410
      4  N         17.8210  -23.5360   -6.6260 N.pl3   1  UNL1       -0.3510
      5  C         17.5730  -22.6420   -5.6040 C.2     1  UNL1        0.0270
      6  C         16.3380  -22.8530   -4.7900 C.3     1  UNL1        0.0580
      7  C         15.1360  -23.1270   -5.7000 C.3     1  UNL1        0.0080
      8  C         15.4310  -24.0700   -6.8800 C.3     1  UNL1        0.0210
      9  C         16.8670  -24.5920   -6.9330 C.3     1  UNL1        0.1290
     10  C         19.6410  -24.0960   -8.3040 C.3     1  UNL1        0.3270
     11  N         20.7730  -23.4220   -8.9360 N.3     1  UNL1        0.0980
     12  H         21.3100  -22.9650   -8.2040 H       1  UNL1        0.3170
     13  C         20.4200  -22.3850   -9.9230 C.3     1  UNL1        0.2540
     14  C         19.0360  -22.6060  -10.5730 C.3     1  UNL1        0.0410
     15  C         18.7080  -21.6310  -11.7170 C.3     1  UNL1        0.0070
     16  C         19.8320  -20.6550  -12.0650 C.3     1  UNL1        0.0390
     17  C         21.1550  -21.3720  -12.0960 C.2     1  UNL1       -0.0500
     18  C         22.0760  -21.1540  -13.1280 C.2     1  UNL1        0.0070
     19  C         21.4570  -22.2620  -11.0420 C.2     1  UNL1       -0.0190
     20  C         23.2890  -21.8380  -13.1350 C.2     1  UNL1        0.0010
     21  C         23.5880  -22.7350  -12.1130 C.2     1  UNL1        0.0010
     22  C         22.6810  -22.9460  -11.0720 C.2     1  UNL1        0.0100
     23  C         18.8410  -20.6030   -4.6710 C.2     1  UNL1        0.2510
     24  N         18.5100  -20.7930   -3.3610 N.am    1  UNL1       -0.3660
     25  H         18.4740  -19.9510   -2.8030 H       1  UNL1        0.1590
     26  H         17.8790  -21.5430   -3.1210 H       1  UNL1        0.1590
     27  O         19.2170  -19.5050   -5.0640 O.2     1  UNL1       -0.2680
@<TRIPOS>BOND
     1    20    18    1
     2    20    21    2
     3    18    17    2
     4    21    22    1
     5    17    16    1
     6    17    19    1
     7    16    15    1
     8    15    14    1
     9    22    19    2
    10    19    13    1
    11    14    13    1
    12    13    11    1
    13    11    10    1
    14    11    12    1
    15    10     3    1
    16     3     4    1
    17     3     2    2
    18     9     8    1
    19     9     4    1
    20     8     7    1
    21     4     5    1
    22     2     1    1
    23     7     6    1
    24     5     1    2
    25     5     6    1
    26     1    23    1
    27    27    23    2
    28    23    24   am
    29    24    26    1
    30    24    25    1
