@<TRIPOS>MOLECULE
26544_out_ligand_01.pdbqt
 27 29 0 0 0
SMALL
GASTEIGER

@<TRIPOS>ATOM
      1  N         18.3530  -22.2590   -7.4680 N.am    1  UNL1       -0.3080
      2  C         17.7000  -22.4970   -8.6670 C.2     1  UNL1        0.3270
      3  O         16.5040  -22.7460   -8.7820 O.2     1  UNL1       -0.2460
      4  N         18.5490  -22.3450   -9.7910 N.am    1  UNL1       -0.2990
      5  C         17.8760  -22.3660  -11.0940 C.3     1  UNL1        0.1340
      6  C         18.5920  -21.6540  -12.2370 C.3     1  UNL1        0.0210
      7  C         19.3130  -20.4110  -11.7400 C.3     1  UNL1        0.0060
      8  C         20.7090  -20.7330  -11.2090 C.3     1  UNL1        0.0410
      9  C         20.9210  -22.0160  -10.4330 C.2     1  UNL1       -0.0310
     10  C         22.2590  -22.4590  -10.3270 C.2     1  UNL1        0.0090
     11  C         22.5970  -23.6010   -9.6040 C.2     1  UNL1        0.0010
     12  C         21.6040  -24.3270   -8.9640 C.2     1  UNL1        0.0020
     13  C         20.2790  -23.9030   -9.0440 C.2     1  UNL1        0.0300
     14  C         19.9210  -22.7470   -9.7670 C.2     1  UNL1        0.0450
     15  H         19.2910  -21.9050   -7.5830 H       1  UNL1        0.1700
     16  C         17.8570  -22.3490   -6.1490 C.2     1  UNL1        0.0430
     17  C         16.7890  -23.1830   -5.7990 C.2     1  UNL1        0.0470
     18  C         16.3410  -23.2600   -4.4730 C.2     1  UNL1        0.0340
     19  C         16.9460  -22.4800   -3.4860 C.2     1  UNL1        0.0170
     20  C         18.0100  -21.6450   -3.8210 C.2     1  UNL1        0.0100
     21  C         18.4790  -21.5720   -5.1450 C.2     1  UNL1       -0.0350
     22  C         19.6370  -20.6540   -5.4390 C.3     1  UNL1        0.0500
     23  C         15.2040  -24.1630   -4.1520 C.2     1  UNL1        0.2490
     24  N         14.1350  -24.1470   -5.0070 N.am    1  UNL1       -0.3660
     25  H         13.3210  -24.6580   -4.6890 H       1  UNL1        0.1590
     26  H         13.9780  -23.3760   -5.6400 H       1  UNL1        0.1590
     27  O         15.1930  -24.8700   -3.1540 O.2     1  UNL1       -0.2680
@<TRIPOS>BOND
     1     6     7    1
     2     6     5    1
     3     7     8    1
     4     8     9    1
     5     5     4    1
     6     9    10    2
     7     9    14    1
     8    10    11    1
     9     4    14    1
    10     4     2   am
    11    14    13    2
    12    11    12    2
    13    13    12    1
    14     3     2    2
    15     2     1   am
    16    15     1    1
    17     1    16    1
    18    16    17    2
    19    16    21    1
    20    17    18    1
    21    26    24    1
    22    22    21    1
    23    21    20    2
    24    24    25    1
    25    24    23   am
    26    18    23    1
    27    18    19    2
    28    23    27    2
    29    20    19    1
