@<TRIPOS>MOLECULE
26559_out_ligand_01.pdbqt
 26 29 0 0 0
SMALL
GASTEIGER

@<TRIPOS>ATOM
      1  N         17.6940  -22.5320   -8.5470 N.3     1  UNL1        0.0980
      2  C         16.3310  -22.5410   -7.9900 C.3     1  UNL1        0.3130
      3  C         16.1270  -22.5210   -6.4840 C.2     1  UNL1       -0.0040
      4  C         14.7720  -22.6630   -6.0810 C.2     1  UNL1        0.0110
      5  C         14.3850  -22.6110   -4.7440 C.2     1  UNL1        0.0010
      6  C         15.3460  -22.4060   -3.7710 C.2     1  UNL1        0.0020
      7  C         16.6800  -22.2620   -4.1500 C.2     1  UNL1        0.0300
      8  C         17.1060  -22.3240   -5.4970 C.2     1  UNL1        0.0380
      9  N         18.4590  -22.1650   -5.7120 N.pl3   1  UNL1       -0.3740
     10  C         18.9750  -20.8030   -5.5740 C.3     1  UNL1        0.1230
     11  C         20.4370  -20.9440   -5.9790 C.3     1  UNL1        0.0220
     12  C         20.3600  -21.9400   -7.1230 C.3     1  UNL1        0.0280
     13  C         19.2660  -22.9340   -6.6750 C.3     1  UNL1        0.1130
     14  C         18.5230  -23.5410   -7.8710 C.3     1  UNL1        0.2980
     15  C         17.6670  -22.7670  -10.0000 C.3     1  UNL1        0.3110
     16  C         18.8860  -22.2300  -10.7230 C.2     1  UNL1       -0.0290
     17  C         18.7830  -21.1130  -11.5640 C.2     1  UNL1        0.0090
     18  C         19.9040  -20.6220  -12.2340 C.2     1  UNL1        0.0020
     19  C         21.1470  -21.2350  -12.0640 C.2     1  UNL1        0.0170
     20  C         21.2710  -22.3390  -11.2130 C.2     1  UNL1        0.0320
     21  C         20.1380  -22.8370  -10.5530 C.2     1  UNL1        0.0260
     22  C         22.5700  -23.0310  -10.9980 C.2     1  UNL1        0.2490
     23  N         22.7520  -23.6820   -9.8080 N.am    1  UNL1       -0.3660
     24  H         21.9780  -23.9250   -9.2060 H       1  UNL1        0.1590
     25  H         23.5870  -24.2490   -9.7430 H       1  UNL1        0.1590
     26  O         23.4370  -23.0560  -11.8620 O.2     1  UNL1       -0.2680
@<TRIPOS>BOND
     1    18    19    2
     2    18    17    1
     3    19    20    1
     4    26    22    2
     5    17    16    2
     6    20    22    1
     7    20    21    2
     8    22    23   am
     9    16    21    1
    10    16    15    1
    11    15     1    1
    12    23    25    1
    13    23    24    1
    14     1     2    1
    15     1    14    1
    16     2     3    1
    17    14    13    1
    18    12    13    1
    19    12    11    1
    20    13     9    1
    21     3     4    2
    22     3     8    1
    23     4     5    1
    24    11    10    1
    25     9    10    1
    26     9     8    1
    27     8     7    2
    28     5     6    2
    29     7     6    1
