@<TRIPOS>MOLECULE
26563_out_ligand_01.pdbqt
 30 32 0 0 0
SMALL
GASTEIGER

@<TRIPOS>ATOM
      1  C         18.7000  -21.8680  -10.9020 C.2     1  UNL1       -0.0400
      2  C         19.5760  -22.7480  -10.2500 C.2     1  UNL1        0.0100
      3  C         20.9330  -22.7810  -10.5790 C.2     1  UNL1        0.0170
      4  C         21.4350  -21.9150  -11.5570 C.2     1  UNL1        0.0320
      5  C         20.5640  -21.0380  -12.2180 C.2     1  UNL1        0.0170
      6  C         19.2080  -21.0090  -11.8870 C.2     1  UNL1        0.0100
      7  C         17.2420  -21.8270  -10.5210 C.3     1  UNL1        0.1610
      8  N         17.0760  -22.1190   -9.1140 N.am    1  UNL1       -0.3560
      9  C         16.3350  -23.1960   -8.6790 C.2     1  UNL1        0.2260
     10  O         15.7070  -23.9110   -9.4560 O.2     1  UNL1       -0.2730
     11  H         17.6960  -21.6430   -8.4750 H       1  UNL1        0.1620
     12  C         16.3600  -23.4490   -7.1510 C.3     1  UNL1        0.0370
     13  C         17.3660  -24.5860   -6.8700 C.3     1  UNL1        0.0250
     14  C         14.9510  -23.8740   -6.6700 C.3     1  UNL1        0.0240
     15  C         14.8200  -23.9360   -5.1470 C.3     1  UNL1        0.0800
     16  C         15.2710  -22.6380   -4.5000 C.3     1  UNL1        0.2430
     17  F         15.1990  -22.7500   -3.1530 F       1  UNL1       -0.2060
     18  F         14.4100  -21.6470   -4.8560 F       1  UNL1       -0.2060
     19  C         16.6770  -22.2340   -4.9040 C.3     1  UNL1        0.0800
     20  C         16.8200  -22.1600   -6.4250 C.3     1  UNL1        0.0240
     21  C         22.8750  -21.9100  -11.9430 C.2     1  UNL1        0.2560
     22  O         23.7100  -22.1370  -11.0760 O.2     1  UNL1       -0.2670
     23  N         23.1190  -21.6840  -13.2860 N.am    1  UNL1       -0.3230
     24  H         22.3160  -21.6440  -13.9000 H       1  UNL1        0.1690
     25  C         24.3790  -21.5910  -13.9200 C.2     1  UNL1        0.0370
     26  C         24.7930  -20.3280  -14.3440 C.2     1  UNL1        0.0490
     27  C         26.0260  -20.2060  -14.9640 C.2     1  UNL1        0.1180
     28  N         26.8600  -21.2420  -15.1840 N.2     1  UNL1       -0.2730
     29  C         26.4390  -22.4530  -14.7620 C.2     1  UNL1        0.1180
     30  C         25.2230  -22.6760  -14.1330 C.2     1  UNL1        0.0490
@<TRIPOS>BOND
     1    28    27    2
     2    28    29    1
     3    27    26    1
     4    29    30    2
     5    26    25    2
     6    30    25    1
     7    25    23    1
     8    24    23    1
     9    23    21   am
    10     5     6    1
    11     5     4    2
    12    21     4    1
    13    21    22    2
    14     6     1    2
    15     4     3    1
    16     1     7    1
    17     1     2    1
    18     3     2    2
    19     7     8    1
    20    10     9    2
    21     8     9   am
    22     8    11    1
    23     9    12    1
    24    12    13    1
    25    12    14    1
    26    12    20    1
    27    14    15    1
    28    20    19    1
    29    15    16    1
    30    19    16    1
    31    18    16    1
    32    16    17    1
