@<TRIPOS>MOLECULE
26570_out_ligand_01.pdbqt
 30 33 0 0 0
SMALL
GASTEIGER

@<TRIPOS>ATOM
      1  N         19.8730  -22.8270   -9.4540 N.am    1  UNL1       -0.3230
      2  C         20.8690  -23.7850   -9.3840 C.2     1  UNL1        0.2590
      3  O         20.7490  -24.9050   -8.9000 O.2     1  UNL1       -0.2670
      4  H         20.1170  -21.9540   -9.8940 H       1  UNL1        0.1690
      5  C         18.5440  -22.9250   -8.9890 C.2     1  UNL1        0.0350
      6  C         17.5360  -22.4730   -9.8480 C.2     1  UNL1        0.0290
      7  C         16.1960  -22.5320   -9.4630 C.2     1  UNL1        0.0030
      8  C         15.8480  -23.0450   -8.2140 C.2     1  UNL1        0.0090
      9  C         16.8360  -23.5090   -7.3340 C.2     1  UNL1       -0.0330
     10  C         18.1840  -23.4370   -7.7400 C.2     1  UNL1        0.0380
     11  C         16.5190  -24.0620   -5.9500 C.3     1  UNL1        0.1170
     12  C         17.7120  -23.9540   -4.9920 C.3     1  UNL1        0.0300
     13  C         17.8100  -22.5530   -4.4030 C.3     1  UNL1        0.0120
     14  C         16.5240  -22.2020   -3.6700 C.3     1  UNL1        0.1030
     15  C         15.2770  -22.4600   -4.4860 C.2     1  UNL1        0.2180
     16  O         14.2360  -21.8350   -4.3040 O.2     1  UNL1       -0.2740
     17  N         15.3120  -23.4870   -5.3850 N.am    1  UNL1       -0.3520
     18  H         14.4510  -23.6030   -5.9070 H       1  UNL1        0.1630
     19  C         22.1470  -23.3700   -9.9530 C.2     1  UNL1        0.0680
     20  C         23.4040  -23.4330   -9.3050 C.2     1  UNL1        0.1570
     21  N         24.4060  -22.9850  -10.0640 N.2     1  UNL1       -0.1840
     22  N         23.8030  -22.6260  -11.2100 N.pl3   1  UNL1       -0.2740
     23  C         22.4500  -22.8370  -11.1940 C.2     1  UNL1        0.1310
     24  C         24.5840  -22.0800  -12.3130 C.3     1  UNL1        0.1370
     25  C         25.6020  -21.0350  -11.8350 C.3     1  UNL1        0.0310
     26  C         26.3510  -20.4350  -13.0250 C.3     1  UNL1        0.0320
     27  C         25.3850  -19.9090  -14.0860 C.3     1  UNL1        0.2700
     28  N         24.4630  -20.9500  -14.5500 N.3     1  UNL1        0.0850
     29  C         23.6880  -21.4970  -13.4210 C.3     1  UNL1        0.2960
     30  H         24.9960  -21.6970  -14.9960 H       1  UNL1        0.3150
@<TRIPOS>BOND
     1    30    28    1
     2    28    27    1
     3    28    29    1
     4    27    26    1
     5    29    24    1
     6    26    25    1
     7    24    25    1
     8    24    22    1
     9    22    23    1
    10    22    21    1
    11    23    19    2
    12    21    20    2
    13    19     2    1
    14    19    20    1
    15     4     1    1
    16     6     7    1
    17     6     5    2
    18     7     8    2
    19     1     2   am
    20     1     5    1
    21     2     3    2
    22     5    10    1
    23     8     9    1
    24    10     9    2
    25     9    11    1
    26    11    17    1
    27    11    12    1
    28    18    17    1
    29    17    15   am
    30    12    13    1
    31    15    16    2
    32    15    14    1
    33    13    14    1
