@<TRIPOS>MOLECULE
26596_out_ligand_01.pdbqt
 31 34 0 0 0
SMALL
GASTEIGER

@<TRIPOS>ATOM
      1  N         20.8390  -22.6900   -9.9920 N.am    1  UNL1       -0.3230
      2  C         21.0930  -22.4350   -8.6560 C.2     1  UNL1        0.2560
      3  O         22.1320  -22.0000   -8.1760 O.2     1  UNL1       -0.2670
      4  H         19.9930  -23.1990  -10.2110 H       1  UNL1        0.1690
      5  C         21.6780  -22.4100  -11.0910 C.2     1  UNL1        0.0350
      6  C         21.1500  -21.6090  -12.1100 C.2     1  UNL1        0.0290
      7  C         21.9190  -21.2780  -13.2250 C.2     1  UNL1        0.0030
      8  C         23.2290  -21.7450  -13.3370 C.2     1  UNL1        0.0090
      9  C         23.7840  -22.5530  -12.3350 C.2     1  UNL1       -0.0230
     10  C         22.9920  -22.8660  -11.2080 C.2     1  UNL1        0.0380
     11  C         25.2200  -23.0780  -12.3890 C.3     1  UNL1        0.2520
     12  C         25.5050  -23.9880  -13.5990 C.3     1  UNL1        0.0480
     13  N         26.1970  -21.9930  -12.1900 N.3     1  UNL1        0.1010
     14  C         25.7740  -20.9180  -11.2760 C.3     1  UNL1        0.2990
     15  C         26.6930  -19.6920  -11.3970 C.3     1  UNL1        0.1980
     16  O         26.6490  -19.0860  -12.6970 O.3     1  UNL1       -0.3880
     17  C         26.3360  -20.0170  -13.7420 C.3     1  UNL1        0.1980
     18  C         26.7780  -21.4570  -13.4330 C.3     1  UNL1        0.2990
     19  C         19.9800  -22.7830   -7.7260 C.2     1  UNL1        0.0320
     20  C         19.3340  -24.0140   -7.8900 C.2     1  UNL1        0.0170
     21  C         18.2970  -24.3860   -7.0320 C.2     1  UNL1        0.0080
     22  C         17.8950  -23.5360   -5.9910 C.2     1  UNL1       -0.0510
     23  C         18.5540  -22.3100   -5.8200 C.2     1  UNL1        0.0080
     24  C         19.5940  -21.9360   -6.6780 C.2     1  UNL1        0.0170
     25  C         16.7760  -23.9500   -5.0570 C.3     1  UNL1        0.1180
     26  C         15.6280  -23.0020   -5.0390 C.2     1  UNL1        0.1310
     27  N         15.0920  -22.4210   -3.9840 N.2     1  UNL1       -0.1350
     28  N         14.0610  -21.6200   -4.4160 N.2     1  UNL1       -0.1440
     29  C         13.9920  -21.7280   -5.7220 C.2     1  UNL1        0.2330
     30  N         14.9630  -22.5750   -6.1600 N.pl3   1  UNL1       -0.3360
     31  H         15.1360  -22.8650   -7.1110 H       1  UNL1        0.1680
@<TRIPOS>BOND
     1    17    18    1
     2    17    16    1
     3    12    11    1
     4    18    13    1
     5     8     7    2
     6     8     9    1
     7     7     6    1
     8    16    15    1
     9    11     9    1
    10    11    13    1
    11     9    10    2
    12    13    14    1
    13     6     5    2
    14    15    14    1
    15    10     5    1
    16     5     1    1
    17     4     1    1
    18     1     2   am
    19     2     3    2
    20     2    19    1
    21    20    19    2
    22    20    21    1
    23    19    24    1
    24    31    30    1
    25    21    22    2
    26    24    23    2
    27    30    29    1
    28    30    26    1
    29    22    23    1
    30    22    25    1
    31    29    28    2
    32    25    26    1
    33    26    27    2
    34    28    27    1
