@<TRIPOS>MOLECULE
26601_out_ligand_01.pdbqt
 32 35 0 0 0
SMALL
GASTEIGER

@<TRIPOS>ATOM
      1  C         21.3320  -23.1500   -9.6280 C.2     1  UNL1        0.0800
      2  C         21.6580  -22.5970   -8.3880 C.2     1  UNL1        0.0370
      3  C         22.7730  -21.7680   -8.2730 C.2     1  UNL1        0.0050
      4  C         23.5520  -21.4910   -9.3980 C.2     1  UNL1        0.0370
      5  C         23.2170  -22.0510  -10.6350 C.2     1  UNL1        0.0780
      6  C         22.0890  -22.8580  -10.7640 C.2     1  UNL1        0.0740
      7  O         20.2190  -23.9470   -9.7330 O.2     1  UNL1       -0.2920
      8  C         18.9990  -23.3180   -9.4920 C.2     1  UNL1        0.1730
      9  C         18.5300  -22.5020  -10.4940 C.2     1  UNL1        0.0850
     10  C         17.3250  -21.8820  -10.2490 C.2     1  UNL1        0.0370
     11  C         16.7180  -20.9750  -11.2780 C.3     1  UNL1        0.0700
     12  N         16.6370  -22.0690   -9.1030 N.2     1  UNL1       -0.2330
     13  C         17.1780  -22.8940   -8.1830 C.2     1  UNL1        0.1640
     14  N         18.3470  -23.5320   -8.3360 N.2     1  UNL1       -0.2040
     15  C         16.4350  -23.1280   -6.9380 C.2     1  UNL1        0.0290
     16  C         15.2620  -22.4300   -6.6110 C.2     1  UNL1        0.0180
     17  C         14.5850  -22.6930   -5.4200 C.2     1  UNL1        0.0200
     18  C         15.0950  -23.6630   -4.5750 C.2     1  UNL1        0.1160
     19  N         16.2170  -24.3660   -4.8350 N.2     1  UNL1       -0.2720
     20  C         16.8570  -24.0730   -5.9980 C.2     1  UNL1        0.1310
     21  O         23.9440  -21.7810  -11.7740 O.2     1  UNL1       -0.3110
     22  C         24.8770  -22.7310  -12.1330 C.2     1  UNL1        0.0790
     23  C         25.9150  -23.1050  -11.2830 C.2     1  UNL1        0.0560
     24  C         26.8000  -24.0730  -11.7230 C.2     1  UNL1        0.1200
     25  N         26.7030  -24.6850  -12.9230 N.2     1  UNL1       -0.2550
     26  C         25.6550  -24.3120  -13.7120 C.2     1  UNL1        0.1260
     27  C         24.7190  -23.3530  -13.3620 C.2     1  UNL1        0.0740
     28  C         25.5470  -24.9980  -15.0390 C.2     1  UNL1        0.2680
     29  N         24.9330  -24.2690  -16.0220 N.am    1  UNL1       -0.3650
     30  H         24.5770  -23.3450  -15.8060 H       1  UNL1        0.1590
     31  H         24.8080  -24.6720  -16.9390 H       1  UNL1        0.1590
     32  O         25.9730  -26.1280  -15.2380 O.2     1  UNL1       -0.2660
@<TRIPOS>BOND
     1    31    29    1
     2    29    30    1
     3    29    28   am
     4    32    28    2
     5    28    26    1
     6    26    27    1
     7    26    25    2
     8    27    22    2
     9    25    24    1
    10    22    21    1
    11    22    23    1
    12    21     5    1
    13    24    23    2
    14    11    10    1
    15     6     5    1
    16     6     1    2
    17     5     4    2
    18     9    10    2
    19     9     8    1
    20    10    12    1
    21     7     1    1
    22     7     8    1
    23     1     2    1
    24     8    14    2
    25     4     3    1
    26    12    13    2
    27     2     3    2
    28    14    13    1
    29    13    15    1
    30    15    16    2
    31    15    20    1
    32    16    17    1
    33    20    19    2
    34    17    18    2
    35    19    18    1
