@<TRIPOS>MOLECULE
26616_out_ligand_01.pdbqt
 38 42 0 0 0
SMALL
GASTEIGER

@<TRIPOS>ATOM
      1  C         20.6590  -21.9800  -11.2790 C.2     1  UNL1        0.0320
      2  C         21.4290  -22.7530  -10.3990 C.2     1  UNL1        0.0190
      3  C         22.7720  -23.0160  -10.6830 C.2     1  UNL1        0.0310
      4  C         23.3460  -22.5090  -11.8460 C.2     1  UNL1        0.0420
      5  C         22.5830  -21.7540  -12.7370 C.2     1  UNL1        0.0310
      6  C         21.2390  -21.4900  -12.4570 C.2     1  UNL1        0.0190
      7  N         24.6980  -22.8190  -12.1510 N.pl3   1  UNL1       -0.2810
      8  H         25.0350  -23.7500  -11.9090 H       1  UNL1        0.1790
      9  S         25.8730  -21.6530  -11.8010 S.O2    1  UNL1        0.2630
     10  O         27.1210  -22.3740  -11.6660 O.2     1  UNL1       -0.2000
     11  O         25.3950  -20.7870  -10.7450 O.2     1  UNL1       -0.2000
     12  C         25.9570  -20.7240  -13.3130 C.2     1  UNL1        0.0820
     13  C         25.6320  -21.3680  -14.5330 C.2     1  UNL1        0.0280
     14  C         25.6980  -20.6720  -15.7440 C.2     1  UNL1        0.0330
     15  C         26.0960  -19.3570  -15.6790 C.ar    1  UNL1        0.0630
     16  N         26.2520  -18.4260  -16.6990 N.ar    1  UNL1       -0.3070
     17  C         26.4250  -18.7330  -14.4750 C.ar    1  UNL1        0.0640
     18  C         26.6810  -17.2130  -16.1410 C.ar    1  UNL1        0.3250
     19  H         26.1000  -18.5640  -17.6850 H       1  UNL1        0.1700
     20  O         26.9200  -16.1820  -16.7430 O.2     1  UNL1       -0.2470
     21  N         26.7820  -17.4200  -14.7570 N.ar    1  UNL1       -0.3060
     22  H         27.0730  -16.7090  -14.1070 H       1  UNL1        0.1700
     23  C         26.3740  -19.3870  -13.2690 C.2     1  UNL1        0.0570
     24  C         19.2310  -21.7390  -10.9360 C.2     1  UNL1        0.2510
     25  O         18.6890  -20.6930  -11.2720 O.2     1  UNL1       -0.2680
     26  N         18.5740  -22.7590  -10.2770 N.am    1  UNL1       -0.3560
     27  H         19.0440  -23.6410  -10.1270 H       1  UNL1        0.1620
     28  C         17.1790  -22.6510   -9.8940 C.3     1  UNL1        0.1300
     29  C         16.9440  -22.4190   -8.3970 C.3     1  UNL1        0.0320
     30  C         18.2420  -22.3720   -7.5960 C.3     1  UNL1        0.1820
     31  O         18.0290  -21.9340   -6.2490 O.2     1  UNL1       -0.3500
     32  C         16.9820  -22.5400   -5.6080 C.2     1  UNL1        0.0750
     33  C         16.9270  -22.3610   -4.2240 C.2     1  UNL1        0.0370
     34  C         15.9870  -23.2720   -6.2650 C.2     1  UNL1       -0.0240
     35  C         15.8930  -22.9340   -3.4850 C.2     1  UNL1        0.0030
     36  C         14.9110  -23.6850   -4.1280 C.2     1  UNL1        0.0010
     37  C         14.9580  -23.8550   -5.5130 C.2     1  UNL1        0.0100
     38  C         16.0310  -23.4650   -7.7550 C.3     1  UNL1        0.0490
@<TRIPOS>BOND
     1    19    16    1
     2    20    18    2
     3    16    18   ar
     4    16    15   ar
     5    18    21   ar
     6    14    15    2
     7    14    13    1
     8    15    17   ar
     9    21    17   ar
    10    21    22    1
    11    13    12    2
    12    17    23    2
    13    12    23    1
    14    12     9    1
    15     5     6    1
    16     5     4    2
    17     6     1    2
    18     7     8    1
    19     7     4    1
    20     7     9    1
    21     4     3    1
    22     9    10    2
    23     9    11    2
    24     1    24    1
    25     1     2    1
    26    25    24    2
    27    24    26   am
    28     3     2    2
    29    26    27    1
    30    26    28    1
    31    28    29    1
    32    29    38    1
    33    29    30    1
    34    38    34    1
    35    30    31    1
    36    34    32    2
    37    34    37    1
    38    31    32    1
    39    32    33    1
    40    37    36    2
    41    33    35    2
    42    36    35    1
