@<TRIPOS>MOLECULE
26627_out_ligand_01.pdbqt
 34 38 0 0 0
SMALL
GASTEIGER

@<TRIPOS>ATOM
      1  C         23.0830  -22.6770   -9.8160 C.2     1  UNL1        0.0320
      2  C         23.0210  -21.5080   -9.0470 C.2     1  UNL1        0.0180
      3  C         22.0120  -21.3490   -8.0940 C.2     1  UNL1        0.0190
      4  C         21.0450  -22.3470   -7.9260 C.2     1  UNL1        0.0450
      5  C         21.0820  -23.5030   -8.7190 C.2     1  UNL1       -0.0380
      6  C         22.1100  -23.6740   -9.6570 C.2     1  UNL1        0.0250
      7  C         20.0170  -24.5440   -8.5190 C.3     1  UNL1        0.0770
      8  C         18.7140  -23.8600   -8.0870 C.3     1  UNL1        0.1690
      9  O         18.9730  -23.0720   -6.9000 O.3     1  UNL1       -0.3070
     10  C         20.0030  -22.1850   -6.8770 C.2     1  UNL1        0.2940
     11  O         20.1010  -21.3280   -6.0100 O.2     1  UNL1       -0.2590
     12  C         24.1770  -22.8140  -10.8170 C.2     1  UNL1        0.2560
     13  O         25.3280  -22.8830  -10.4110 O.2     1  UNL1       -0.2670
     14  N         23.7500  -22.8970  -12.1300 N.am    1  UNL1       -0.3230
     15  H         22.7560  -23.0090  -12.2800 H       1  UNL1        0.1690
     16  C         24.5590  -22.9740  -13.2850 C.2     1  UNL1        0.0350
     17  C         25.3800  -24.1000  -13.4130 C.2     1  UNL1        0.0290
     18  C         26.2090  -24.2570  -14.5260 C.2     1  UNL1        0.0030
     19  C         26.2220  -23.2890  -15.5290 C.2     1  UNL1        0.0150
     20  C         25.4010  -22.1600  -15.4160 C.2     1  UNL1        0.0140
     21  C         24.5670  -22.0110  -14.2970 C.2     1  UNL1        0.0440
     22  C         25.3760  -21.1250  -16.4630 C.ar    1  UNL1        0.1700
     23  N         24.4860  -21.0220  -17.3940 N.ar    1  UNL1       -0.1040
     24  O         24.8680  -19.8710  -18.1530 O.2     1  UNL1       -0.1530
     25  C         25.9960  -19.3750  -17.5520 C.ar    1  UNL1        0.3900
     26  O         26.6070  -18.3750  -17.8940 O.2     1  UNL1       -0.2360
     27  N         26.3140  -20.1690  -16.5190 N.ar    1  UNL1       -0.2830
     28  H         27.0750  -19.9710  -15.8960 H       1  UNL1        0.1720
     29  C         17.9520  -23.0290   -9.1120 C.2     1  UNL1       -0.0290
     30  C         16.6320  -22.5960   -8.9220 C.2     1  UNL1        0.0100
     31  C         15.9850  -21.8180   -9.8880 C.2     1  UNL1        0.0010
     32  C         16.6500  -21.4520  -11.0540 C.2     1  UNL1        0.0000
     33  C         17.9640  -21.8560  -11.2560 C.2     1  UNL1        0.0010
     34  C         18.6110  -22.6330  -10.2920 C.2     1  UNL1        0.0100
@<TRIPOS>BOND
     1    24    25   ar
     2    24    23   ar
     3    26    25    2
     4    25    27   ar
     5    23    22   ar
     6    27    22   ar
     7    27    28    1
     8    22    20    1
     9    19    20    2
    10    19    18    1
    11    20    21    1
    12    18    17    2
    13    21    16    2
    14    17    16    1
    15    16    14    1
    16    15    14    1
    17    14    12   am
    18    33    32    2
    19    33    34    1
    20    32    31    1
    21    12    13    2
    22    12     1    1
    23    34    29    2
    24    31    30    2
    25     1     6    2
    26     1     2    1
    27     6     5    1
    28    29    30    1
    29    29     8    1
    30     2     3    2
    31     5     7    1
    32     5     4    2
    33     7     8    1
    34     3     4    1
    35     8     9    1
    36     4    10    1
    37     9    10    1
    38    10    11    2
