@<TRIPOS>MOLECULE
26630_out_ligand_01.pdbqt
 31 33 0 0 0
SMALL
GASTEIGER

@<TRIPOS>ATOM
      1  C         20.3290  -21.4590  -11.3770 C.2     1  UNL1        0.2560
      2  O         19.8130  -20.3520  -11.4570 O.2     1  UNL1       -0.2670
      3  N         19.8490  -22.5820  -10.7260 N.am    1  UNL1       -0.3220
      4  H         20.3770  -23.4300  -10.8780 H       1  UNL1        0.1690
      5  C         18.6500  -22.7140   -9.9820 C.2     1  UNL1        0.0420
      6  C         17.4000  -22.4020  -10.5350 C.2     1  UNL1        0.0300
      7  C         16.2210  -22.5770   -9.8080 C.2     1  UNL1        0.0030
      8  C         16.2740  -23.0700   -8.5120 C.2     1  UNL1        0.0180
      9  C         17.5160  -23.3620   -7.9340 C.2     1  UNL1        0.0400
     10  C         18.7220  -23.1830   -8.6480 C.2     1  UNL1       -0.0190
     11  C         20.0430  -23.5170   -8.0010 C.3     1  UNL1        0.0520
     12  C         17.5080  -23.9140   -6.5610 C.2     1  UNL1        0.2540
     13  O         17.3680  -25.1260   -6.4220 O.2     1  UNL1       -0.2670
     14  N         17.6590  -23.0290   -5.5020 N.am    1  UNL1       -0.3440
     15  C         18.0220  -21.6120   -5.6230 C.3     1  UNL1        0.1520
     16  C         17.5820  -23.5460   -4.1350 C.3     1  UNL1        0.1520
     17  C         18.8060  -21.1430   -4.3930 C.3     1  UNL1        0.1870
     18  O         18.0930  -21.3160   -3.1600 O.3     1  UNL1       -0.3880
     19  C         17.1950  -22.4360   -3.1530 C.3     1  UNL1        0.1870
     20  C         21.6210  -21.6860  -12.0740 C.2     1  UNL1        0.0320
     21  C         22.5860  -22.5460  -11.5340 C.2     1  UNL1        0.0170
     22  C         23.7840  -22.7620  -12.2200 C.2     1  UNL1        0.0100
     23  C         24.0260  -22.1230  -13.4460 C.2     1  UNL1       -0.0400
     24  C         23.0510  -21.2600  -13.9720 C.2     1  UNL1        0.0100
     25  C         21.8590  -21.0290  -13.2840 C.2     1  UNL1        0.0170
     26  C         25.2950  -22.3910  -14.2150 C.3     1  UNL1        0.1610
     27  N         25.0750  -22.2180  -15.6340 N.am    1  UNL1       -0.3570
     28  C         24.9410  -23.3000  -16.4760 C.2     1  UNL1        0.2130
     29  C         24.8890  -22.9310  -17.9340 C.3     1  UNL1        0.1170
     30  O         24.8880  -24.4650  -16.0950 O.2     1  UNL1       -0.2740
     31  H         25.2940  -21.3170  -16.0350 H       1  UNL1        0.1620
@<TRIPOS>BOND
     1    29    28    1
     2    28    30    2
     3    28    27   am
     4    31    27    1
     5    27    26    1
     6    26    23    1
     7    24    23    2
     8    24    25    1
     9    23    22    1
    10    25    20    2
    11    22    21    2
    12    20    21    1
    13    20     1    1
    14     2     1    2
    15     1     3   am
    16     4     3    1
    17     3     5    1
    18     6     5    2
    19     6     7    1
    20     5    10    1
    21     7     8    2
    22    10    11    1
    23    10     9    2
    24     8     9    1
    25     9    12    1
    26    12    13    2
    27    12    14   am
    28    15    14    1
    29    15    17    1
    30    14    16    1
    31    17    18    1
    32    16    19    1
    33    18    19    1
