@<TRIPOS>MOLECULE
26651_out_ligand_01.pdbqt
 31 34 0 0 0
SMALL
GASTEIGER

@<TRIPOS>ATOM
      1  C         21.9170  -22.1740  -11.2780 C.2     1  UNL1        0.0340
      2  C         21.1760  -21.6430  -12.3400 C.2     1  UNL1        0.0170
      3  C         19.8360  -21.3130  -12.1490 C.2     1  UNL1        0.0030
      4  C         19.2400  -21.5100  -10.9000 C.2     1  UNL1        0.0290
      5  C         19.9730  -22.0370   -9.8290 C.2     1  UNL1        0.0350
      6  C         21.3190  -22.3570  -10.0230 C.2     1  UNL1        0.0460
      7  N         19.2910  -22.1970   -8.6050 N.am    1  UNL1       -0.3230
      8  C         19.8080  -22.0460   -7.3290 C.2     1  UNL1        0.2560
      9  O         20.9760  -21.8270   -7.0350 O.2     1  UNL1       -0.2670
     10  H         18.3370  -22.5280   -8.6760 H       1  UNL1        0.1690
     11  C         18.8240  -22.2260   -6.2230 C.2     1  UNL1        0.0340
     12  C         18.8890  -21.3500   -5.1270 C.2     1  UNL1        0.0190
     13  C         18.0040  -21.4570   -4.0460 C.2     1  UNL1        0.0330
     14  C         17.0530  -22.4740   -4.1230 C.2     1  UNL1        0.0620
     15  N         16.0470  -22.8670   -3.2750 N.pl3   1  UNL1       -0.3490
     16  C         16.9520  -23.3480   -5.2010 C.2     1  UNL1        0.0850
     17  C         15.4020  -23.9260   -3.8500 C.2     1  UNL1        0.2080
     18  H         15.8210  -22.4460   -2.3850 H       1  UNL1        0.1670
     19  N         15.9260  -24.2420   -5.0130 N.2     1  UNL1       -0.2420
     20  C         17.8380  -23.2270   -6.2790 C.2     1  UNL1        0.0510
     21  C         23.3520  -22.5310  -11.4390 C.2     1  UNL1        0.2520
     22  N         23.9790  -22.0420  -12.5620 N.am    1  UNL1       -0.3500
     23  H         23.4230  -21.6580  -13.3150 H       1  UNL1        0.1630
     24  O         23.9140  -23.2530  -10.6230 O.2     1  UNL1       -0.2680
     25  C         25.3290  -22.4360  -12.9000 C.3     1  UNL1        0.2030
     26  C         25.2700  -23.4510  -13.9830 C.2     1  UNL1        0.1410
     27  N         25.2970  -24.7620  -13.8300 N.2     1  UNL1       -0.2240
     28  C         25.2180  -25.2310  -15.1080 C.2     1  UNL1        0.2570
     29  N         25.1510  -24.2960  -16.0540 N.2     1  UNL1       -0.1650
     30  N         25.1900  -23.1650  -15.3210 N.pl3   1  UNL1       -0.2580
     31  C         25.1650  -21.8820  -15.9770 C.3     1  UNL1        0.1810
@<TRIPOS>BOND
     1    29    30    1
     2    29    28    2
     3    31    30    1
     4    30    26    1
     5    28    27    1
     6    26    27    2
     7    26    25    1
     8    23    22    1
     9    25    22    1
    10    22    21   am
    11     2     3    1
    12     2     1    2
    13     3     4    2
    14    21     1    1
    15    21    24    2
    16     1     6    1
    17     4     5    1
    18     6     5    2
    19     5     7    1
    20    10     7    1
    21     7     8   am
    22     8     9    2
    23     8    11    1
    24    20    11    2
    25    20    16    1
    26    11    12    1
    27    16    19    1
    28    16    14    2
    29    12    13    2
    30    19    17    2
    31    14    13    1
    32    14    15    1
    33    17    15    1
    34    15    18    1
