@<TRIPOS>MOLECULE
26654_out_ligand_01.pdbqt
 33 37 0 0 0
SMALL
GASTEIGER

@<TRIPOS>ATOM
      1  C         21.0300  -23.1010   -8.5360 C.2     1  UNL1        0.0730
      2  C         21.5990  -22.1260   -7.7380 C.2     1  UNL1        0.0260
      3  C         22.6690  -21.4390   -8.3890 C.2     1  UNL1        0.0260
      4  C         22.8890  -21.8960   -9.6750 C.2     1  UNL1        0.0730
      5  S         21.7990  -23.1600  -10.0680 S.3     1  UNL1       -0.0790
      6  C         19.9300  -24.0190   -8.2610 C.2     1  UNL1        0.2590
      7  O         19.9780  -25.2310   -8.4590 O.2     1  UNL1       -0.2670
      8  N         18.7990  -23.4210   -7.7330 N.am    1  UNL1       -0.3480
      9  H         18.9120  -22.5040   -7.3270 H       1  UNL1        0.1630
     10  C         17.7100  -24.2270   -7.2200 C.3     1  UNL1        0.1190
     11  C         16.4280  -24.0570   -8.0600 C.3     1  UNL1        0.0350
     12  C         15.6450  -22.8810   -7.4550 C.3     1  UNL1        0.0440
     13  C         16.0790  -22.9460   -6.0280 C.2     1  UNL1       -0.0110
     14  C         15.5070  -22.3360   -4.9300 C.2     1  UNL1        0.1230
     15  C         17.2470  -23.7050   -5.8890 C.2     1  UNL1       -0.0260
     16  F         14.4010  -21.5940   -5.0650 F       1  UNL1       -0.2060
     17  C         16.0930  -22.4930   -3.6770 C.2     1  UNL1        0.0430
     18  C         17.2610  -23.2570   -3.5370 C.2     1  UNL1        0.0040
     19  C         17.8500  -23.8660   -4.6490 C.2     1  UNL1        0.0100
     20  C         23.8680  -21.4720  -10.6700 C.2     1  UNL1        0.2590
     21  O         24.9660  -20.9950  -10.3970 O.2     1  UNL1       -0.2670
     22  N         23.4740  -21.6640  -11.9820 N.am    1  UNL1       -0.3480
     23  H         22.7000  -22.2880  -12.1530 H       1  UNL1        0.1630
     24  C         24.3920  -21.4570  -13.0800 C.3     1  UNL1        0.1190
     25  C         23.7310  -20.6550  -14.2200 C.3     1  UNL1        0.0350
     26  C         24.3760  -21.1310  -15.5270 C.3     1  UNL1        0.0440
     27  C         24.7150  -22.5440  -15.1810 C.2     1  UNL1       -0.0110
     28  C         25.0390  -23.5760  -16.0400 C.2     1  UNL1        0.1230
     29  C         24.7360  -22.7370  -13.7950 C.2     1  UNL1       -0.0260
     30  F         25.0300  -23.3860  -17.3650 F       1  UNL1       -0.2060
     31  C         25.3830  -24.8190  -15.5180 C.2     1  UNL1        0.0430
     32  C         25.4160  -25.0120  -14.1290 C.2     1  UNL1        0.0040
     33  C         25.0980  -23.9650  -13.2580 C.2     1  UNL1        0.0100
@<TRIPOS>BOND
     1    30    28    1
     2    28    31    1
     3    28    27    2
     4    26    27    1
     5    26    25    1
     6    31    32    2
     7    27    29    1
     8    25    24    1
     9    32    33    1
    10    29    33    2
    11    29    24    1
    12    24    22    1
    13    23    22    1
    14    22    20   am
    15    20    21    2
    16    20     4    1
    17     5     4    1
    18     5     1    1
    19     4     3    2
    20     1     6    1
    21     1     2    2
    22     7     6    2
    23     3     2    1
    24     6     8   am
    25    11    12    1
    26    11    10    1
    27     8     9    1
    28     8    10    1
    29    12    13    1
    30    10    15    1
    31    13    15    2
    32    13    14    1
    33    15    19    1
    34    16    14    1
    35    14    17    2
    36    19    18    2
    37    17    18    1
