@<TRIPOS>MOLECULE
26670_out_ligand_01.pdbqt
 31 34 0 0 0
SMALL
GASTEIGER

@<TRIPOS>ATOM
      1  N         20.1710  -22.1190  -10.5990 N.am    1  UNL1       -0.3230
      2  C         19.7130  -23.2170   -9.8950 C.2     1  UNL1        0.2560
      3  O         20.3430  -24.2340   -9.6300 O.2     1  UNL1       -0.2670
      4  H         19.5730  -21.3030  -10.6210 H       1  UNL1        0.1690
      5  C         18.3170  -23.1020   -9.3830 C.2     1  UNL1        0.0330
      6  C         17.2620  -22.6800  -10.2060 C.2     1  UNL1        0.0170
      7  C         15.9660  -22.5860   -9.6930 C.2     1  UNL1        0.0030
      8  C         15.7150  -22.9170   -8.3620 C.2     1  UNL1        0.0250
      9  C         16.7660  -23.3480   -7.5470 C.2     1  UNL1        0.0750
     10  C         18.0650  -23.4580   -8.0530 C.2     1  UNL1        0.0410
     11  S         16.4310  -23.8090   -5.8650 S.O2    1  UNL1        0.2410
     12  O         17.4490  -24.7410   -5.4350 O.2     1  UNL1       -0.2060
     13  O         15.0200  -24.1100   -5.7640 O.2     1  UNL1       -0.2060
     14  N         16.7670  -22.3410   -5.0690 N.3     1  UNL1       -0.2110
     15  H         16.4140  -21.5850   -5.6620 H       1  UNL1        0.1400
     16  C         18.1830  -22.1460   -4.7200 C.3     1  UNL1        0.0710
     17  C         18.6050  -20.9670   -3.8900 C.3     1  UNL1        0.0220
     18  C         18.9990  -21.0480   -5.3380 C.3     1  UNL1        0.0220
     19  C         21.4300  -21.9670  -11.2200 C.2     1  UNL1        0.0370
     20  C         22.5640  -22.1590  -10.4190 C.2     1  UNL1        0.0320
     21  C         23.8490  -22.0280  -10.9550 C.2     1  UNL1        0.0410
     22  C         24.0100  -21.6870  -12.2930 C.2     1  UNL1        0.0960
     23  O         25.2930  -21.6190  -12.7620 O.2     1  UNL1       -0.3350
     24  C         22.8850  -21.4960  -13.0990 C.2     1  UNL1        0.0700
     25  C         25.4200  -20.8860  -13.9800 C.3     1  UNL1        0.2170
     26  C         26.7500  -21.2800  -14.6120 C.3     1  UNL1        0.0500
     27  C         24.2810  -21.0150  -15.0080 C.2     1  UNL1        0.2510
     28  N         23.0430  -21.2080  -14.4560 N.am    1  UNL1       -0.3230
     29  O         24.4220  -20.8690  -16.2190 O.2     1  UNL1       -0.2700
     30  H         22.2470  -21.2040  -15.0820 H       1  UNL1        0.1690
     31  C         21.6000  -21.6360  -12.5680 C.2     1  UNL1        0.0620
@<TRIPOS>BOND
     1    29    27    2
     2    30    28    1
     3    27    28   am
     4    27    25    1
     5    26    25    1
     6    28    24    1
     7    25    23    1
     8    24    31    1
     9    24    22    2
    10    23    22    1
    11    31    19    2
    12    22    21    1
    13    19     1    1
    14    19    20    1
    15    21    20    2
    16     4     1    1
    17     1     2   am
    18     6     7    1
    19     6     5    2
    20     2     3    2
    21     2     5    1
    22     7     8    2
    23     5    10    1
    24     8     9    1
    25    10     9    2
    26     9    11    1
    27    11    13    2
    28    11    12    2
    29    11    14    1
    30    15    14    1
    31    18    16    1
    32    18    17    1
    33    14    16    1
    34    16    17    1
