@<TRIPOS>MOLECULE
26673_out_ligand_01.pdbqt
 29 31 0 0 0
SMALL
GASTEIGER

@<TRIPOS>ATOM
      1  N         19.3100  -22.2660   -9.1650 N.am    1  UNL1       -0.3260
      2  C         19.1090  -23.3320   -8.2950 C.2     1  UNL1        0.2350
      3  O         19.8720  -24.2850   -8.1750 O.2     1  UNL1       -0.2720
      4  H         18.6730  -21.4830   -9.0670 H       1  UNL1        0.1690
      5  C         17.7740  -23.2290   -7.4720 C.3     1  UNL1        0.0720
      6  C         17.2040  -24.6590   -7.1900 C.3     1  UNL1        0.0500
      7  C         15.6890  -24.6980   -7.3330 C.3     1  UNL1        0.1690
      8  O         15.2530  -24.3670   -8.6510 O.3     1  UNL1       -0.3910
      9  C         16.0850  -23.4400   -9.3450 C.3     1  UNL1        0.1690
     10  C         16.7600  -22.4690   -8.3830 C.3     1  UNL1        0.0500
     11  C         18.0810  -22.5230   -6.1270 C.2     1  UNL1       -0.0370
     12  C         17.7050  -23.0330   -4.8720 C.2     1  UNL1        0.0090
     13  C         17.9910  -22.3370   -3.6890 C.2     1  UNL1        0.0040
     14  C         18.6500  -21.1140   -3.7370 C.2     1  UNL1        0.0420
     15  C         19.0170  -20.5910   -4.9660 C.2     1  UNL1        0.1170
     16  F         19.6440  -19.4090   -5.0210 F       1  UNL1       -0.2060
     17  C         18.7400  -21.2750   -6.1470 C.2     1  UNL1        0.0500
     18  C         20.3660  -22.0840  -10.0810 C.2     1  UNL1        0.0350
     19  C         21.7230  -22.1480   -9.7460 C.2     1  UNL1        0.0490
     20  C         22.7160  -21.9620  -10.7260 C.2     1  UNL1        0.0720
     21  C         22.3300  -21.7110  -12.0430 C.2     1  UNL1        0.1320
     22  C         20.9840  -21.6510  -12.3910 C.2     1  UNL1        0.0450
     23  F         23.2360  -21.5270  -13.0160 F       1  UNL1       -0.2050
     24  C         20.0060  -21.8400  -11.4130 C.2     1  UNL1        0.0320
     25  C         24.1430  -22.0470  -10.3130 C.2     1  UNL1        0.2520
     26  N         24.6230  -23.2540   -9.8910 N.am    1  UNL1       -0.3660
     27  H         24.0570  -24.0910   -9.8370 H       1  UNL1        0.1590
     28  H         25.5930  -23.3010   -9.6080 H       1  UNL1        0.1590
     29  O         24.8810  -21.0710  -10.3420 O.2     1  UNL1       -0.2680
@<TRIPOS>BOND
     1    23    21    1
     2    22    21    2
     3    22    24    1
     4    21    20    1
     5    24    18    2
     6    20    25    1
     7    20    19    2
     8    29    25    2
     9    25    26   am
    10    18    19    1
    11    18     1    1
    12    26    27    1
    13    26    28    1
    14     9     8    1
    15     9    10    1
    16     1     4    1
    17     1     2   am
    18     8     7    1
    19    10     5    1
    20     2     3    2
    21     2     5    1
    22     5     6    1
    23     5    11    1
    24     7     6    1
    25    17    11    2
    26    17    15    1
    27    11    12    1
    28    16    15    1
    29    15    14    2
    30    12    13    2
    31    14    13    1
