@<TRIPOS>MOLECULE
26691_out_ligand_01.pdbqt
 31 33 0 0 0
SMALL
GASTEIGER

@<TRIPOS>ATOM
      1  N         21.7510  -22.2680  -10.7530 N.am    1  UNL1       -0.3230
      2  C         20.7100  -21.6670  -11.4350 C.2     1  UNL1        0.2570
      3  O         20.7890  -21.0350  -12.4830 O.2     1  UNL1       -0.2670
      4  H         21.5030  -22.8470   -9.9600 H       1  UNL1        0.1690
      5  C         19.3780  -21.9020  -10.7910 C.2     1  UNL1        0.0480
      6  C         18.1300  -21.4600  -11.3730 C.2     1  UNL1        0.0240
      7  C         16.9710  -21.6690  -10.7350 C.2     1  UNL1        0.0750
      8  C         16.9440  -22.3690   -9.4210 C.2     1  UNL1        0.2470
      9  O         15.8770  -22.4660   -8.8240 O.2     1  UNL1       -0.2680
     10  N         18.1690  -22.8630   -8.9690 N.am    1  UNL1       -0.3190
     11  C         19.3590  -22.5990   -9.6430 C.2     1  UNL1        0.1110
     12  C         18.1910  -23.5930   -7.7000 C.3     1  UNL1        0.1720
     13  C         18.2710  -22.7130   -6.4700 C.2     1  UNL1       -0.0180
     14  C         19.2570  -21.7090   -6.4100 C.2     1  UNL1        0.0100
     15  C         19.3710  -20.8790   -5.2930 C.2     1  UNL1        0.0010
     16  C         18.4990  -21.0330   -4.2200 C.2     1  UNL1        0.0020
     17  C         17.5120  -22.0160   -4.2640 C.2     1  UNL1        0.0240
     18  C         17.3960  -22.8510   -5.3810 C.2     1  UNL1        0.0420
     19 CL         16.1390  -24.0350   -5.3580 Cl      1  UNL1       -0.0840
     20  C         23.1240  -22.2230  -11.0740 C.2     1  UNL1        0.0360
     21  C         23.5470  -22.9850  -12.1720 C.2     1  UNL1        0.0490
     22  C         24.8950  -23.0060  -12.5630 C.2     1  UNL1        0.0720
     23  C         25.8200  -22.2550  -11.8410 C.2     1  UNL1        0.1320
     24  C         25.4150  -21.4970  -10.7470 C.2     1  UNL1        0.0450
     25  F         27.1210  -22.2400  -12.1720 F       1  UNL1       -0.2050
     26  C         24.0700  -21.4820  -10.3630 C.2     1  UNL1        0.0320
     27  C         25.2680  -23.8370  -13.7380 C.2     1  UNL1        0.2520
     28  N         25.1100  -23.3070  -14.9850 N.am    1  UNL1       -0.3660
     29  H         25.3670  -23.8760  -15.7800 H       1  UNL1        0.1590
     30  H         24.7540  -22.3720  -15.1500 H       1  UNL1        0.1590
     31  O         25.7060  -24.9730  -13.5950 O.2     1  UNL1       -0.2680
@<TRIPOS>BOND
     1    29    28    1
     2    30    28    1
     3    28    27   am
     4    27    31    2
     5    27    22    1
     6    22    21    1
     7    22    23    2
     8     3     2    2
     9    25    23    1
    10    21    20    2
    11    23    24    1
    12     2     5    1
    13     2     1   am
    14     6     5    1
    15     6     7    2
    16    20     1    1
    17    20    26    1
    18     5    11    2
    19     1     4    1
    20    24    26    2
    21     7     8    1
    22    11    10    1
    23     8    10   am
    24     8     9    2
    25    10    12    1
    26    12    13    1
    27    13    14    2
    28    13    18    1
    29    14    15    1
    30    18    19    1
    31    18    17    2
    32    15    16    2
    33    17    16    1
