@<TRIPOS>MOLECULE
26692_out_ligand_01.pdbqt
 40 43 0 0 0
SMALL
GASTEIGER

@<TRIPOS>ATOM
      1  N         21.0060  -22.9310   -8.2600 N.am    1  UNL1       -0.3270
      2  C         22.1820  -22.2000   -8.2530 C.2     1  UNL1        0.2220
      3  O         22.4530  -21.2650   -7.5060 O.2     1  UNL1       -0.2730
      4  H         20.9230  -23.6480   -8.9670 H       1  UNL1        0.1690
      5  C         23.1900  -22.6950   -9.2750 C.3     1  UNL1        0.1080
      6  C         22.4920  -23.3520  -10.4640 C.3     1  UNL1        0.0510
      7  C         22.3930  -22.4360  -11.6550 C.ar    1  UNL1       -0.0180
      8  C         21.2580  -21.7760  -12.1150 C.ar    1  UNL1        0.0500
      9  N         21.6290  -21.0630  -13.2340 N.ar    1  UNL1       -0.3540
     10  C         22.9700  -21.2060  -13.4900 C.ar    1  UNL1        0.0430
     11  H         20.9970  -20.5100  -13.7930 H       1  UNL1        0.1660
     12  C         23.7550  -20.6500  -14.5080 C.2     1  UNL1        0.0330
     13  C         23.4810  -22.0570  -12.5110 C.ar    1  UNL1        0.0020
     14  C         25.1140  -20.9700  -14.5180 C.2     1  UNL1        0.0440
     15  C         25.6490  -21.8070  -13.5470 C.2     1  UNL1        0.1170
     16  F         26.9580  -22.0900  -13.5780 F       1  UNL1       -0.2060
     17  C         24.8580  -22.3610  -12.5410 C.2     1  UNL1        0.0560
     18  C         19.8850  -21.7450  -11.6170 C.2     1  UNL1       -0.0090
     19  C         19.2980  -22.9140  -11.1090 C.2     1  UNL1        0.0170
     20  C         17.9820  -22.8970  -10.6410 C.2     1  UNL1        0.0430
     21  C         17.2560  -21.7130  -10.6800 C.2     1  UNL1        0.1160
     22  F         15.9940  -21.6990  -10.2370 F       1  UNL1       -0.2060
     23  C         17.8210  -20.5440  -11.1750 C.2     1  UNL1        0.0430
     24  C         19.1370  -20.5610  -11.6420 C.2     1  UNL1        0.0170
     25  C         19.8800  -22.7520   -7.4280 C.2     1  UNL1        0.0360
     26  C         19.9280  -21.6870   -6.5200 C.2     1  UNL1        0.0460
     27  C         18.8500  -21.4220   -5.6640 C.2     1  UNL1        0.0350
     28  C         17.7240  -22.2480   -5.6820 C.2     1  UNL1        0.0340
     29  C         17.6790  -23.3180   -6.5790 C.2     1  UNL1        0.0350
     30  C         18.7390  -23.5570   -7.4640 C.2     1  UNL1        0.0460
     31  C         18.9530  -20.2670   -4.7390 C.2     1  UNL1        0.2490
     32  N         18.5120  -20.4490   -3.4580 N.am    1  UNL1       -0.3660
     33  H         17.8780  -21.1970   -3.2160 H       1  UNL1        0.1590
     34  H         18.4670  -19.6130   -2.8860 H       1  UNL1        0.1590
     35  O         19.3880  -19.1860   -5.1140 O.2     1  UNL1       -0.2680
     36  C         16.4900  -24.2030   -6.6320 C.2     1  UNL1        0.2490
     37  N         16.0310  -24.5300   -7.8780 N.am    1  UNL1       -0.3660
     38  H         15.1360  -25.0000   -7.8940 H       1  UNL1        0.1590
     39  H         16.2620  -23.9630   -8.6820 H       1  UNL1        0.1590
     40  O         15.9340  -24.6020   -5.6210 O.2     1  UNL1       -0.2680
@<TRIPOS>BOND
     1    14    12    1
     2    14    15    2
     3    12    10    2
     4    11     9    1
     5    16    15    1
     6    15    17    1
     7    10     9   ar
     8    10    13   ar
     9     9     8   ar
    10    17    13    2
    11    13     7   ar
    12     8     7   ar
    13     8    18    1
    14     7     6    1
    15    24    18    2
    16    24    23    1
    17    18    19    1
    18    23    21    2
    19    19    20    2
    20    21    20    1
    21    21    22    1
    22     6     5    1
    23     5     2    1
    24     4     1    1
    25    39    37    1
    26     1     2   am
    27     1    25    1
    28     2     3    2
    29    38    37    1
    30    37    36   am
    31    30    25    2
    32    30    29    1
    33    25    26    1
    34    36    29    1
    35    36    40    2
    36    29    28    2
    37    26    27    2
    38    28    27    1
    39    27    31    1
    40    35    31    2
    41    31    32   am
    42    32    33    1
    43    32    34    1
