@<TRIPOS>MOLECULE
26695_out_ligand_01.pdbqt
 30 33 0 0 0
SMALL
GASTEIGER

@<TRIPOS>ATOM
      1  C         20.3370  -22.0250  -11.2720 C.2     1  UNL1        0.0790
      2  C         20.9620  -21.4640  -12.4040 C.2     1  UNL1        0.0340
      3  C         22.3220  -21.6740  -12.6540 C.2     1  UNL1        0.0190
      4  C         23.0820  -22.4400  -11.7710 C.2     1  UNL1        0.0330
      5  C         22.4700  -23.0110  -10.6500 C.2     1  UNL1        0.0420
      6  C         21.1000  -22.8250  -10.3800 C.2     1  UNL1        0.0380
      7  N         20.5680  -23.3770   -9.1900 N.pl3   1  UNL1       -0.2870
      8  H         21.1310  -24.2070   -8.9400 H       1  UNL1        0.1280
      9  C         20.5570  -22.4660   -8.0450 C.3     1  UNL1        0.1320
     10  C         19.3970  -22.8170   -7.1480 C.2     1  UNL1       -0.0290
     11  C         18.6760  -24.0050   -7.3680 C.2     1  UNL1        0.0280
     12  C         17.6100  -24.3320   -6.5390 C.2     1  UNL1        0.1190
     13  N         17.1720  -23.5990   -5.4920 N.2     1  UNL1       -0.2420
     14  C         17.9010  -22.4840   -5.3010 C.2     1  UNL1        0.1380
     15  N         17.6730  -21.5840   -4.2970 N.pl3   1  UNL1       -0.3500
     16  C         18.9870  -22.0370   -6.0460 C.2     1  UNL1        0.0190
     17  C         18.5920  -20.5690   -4.3630 C.2     1  UNL1        0.0900
     18  H         16.9340  -21.6860   -3.6180 H       1  UNL1        0.1660
     19  C         19.4210  -20.8240   -5.4360 C.2     1  UNL1        0.0330
     20  N         18.9350  -21.8010  -11.0710 N.pl3   1  UNL1       -0.2430
     21  N         18.3390  -20.6370  -11.4510 N.2     1  UNL1       -0.1800
     22  C         17.0620  -20.7650  -11.0950 C.2     1  UNL1        0.1470
     23  C         16.7900  -22.0000  -10.4820 C.2     1  UNL1       -0.0250
     24  C         15.4940  -22.4880   -9.9620 C.3     1  UNL1        0.0510
     25  C         18.0110  -22.6420  -10.4780 C.2     1  UNL1        0.1270
     26  C         24.5300  -22.6890  -11.9890 C.2     1  UNL1        0.2490
     27  N         24.8880  -23.9140  -12.4800 N.am    1  UNL1       -0.3660
     28  H         24.2240  -24.5100  -12.9530 H       1  UNL1        0.1590
     29  H         25.8600  -24.0040  -12.7510 H       1  UNL1        0.1590
     30  O         25.3720  -21.8280  -11.7700 O.2     1  UNL1       -0.2680
@<TRIPOS>BOND
     1    28    27    1
     2    29    27    1
     3     3     2    1
     4     3     4    2
     5    27    26   am
     6     2     1    2
     7    26     4    1
     8    26    30    2
     9     4     5    1
    10    21    22    2
    11    21    20    1
    12     1    20    1
    13     1     6    1
    14    22    23    1
    15    20    25    1
    16     5     6    2
    17    23    25    2
    18    23    24    1
    19     6     7    1
    20     7     8    1
    21     7     9    1
    22     9    10    1
    23    11    10    2
    24    11    12    1
    25    10    16    1
    26    12    13    2
    27    16    19    1
    28    16    14    2
    29    13    14    1
    30    19    17    2
    31    14    15    1
    32    17    15    1
    33    15    18    1
