@<TRIPOS>MOLECULE
26690_out_ligand_01.pdbqt
 31 34 0 0 0
SMALL
GASTEIGER

@<TRIPOS>ATOM
      1  C         20.5870  -23.3940   -8.3140 C.2     1  UNL1        0.2360
      2  O         20.6980  -24.5590   -8.6920 O.2     1  UNL1       -0.2720
      3  N         19.3730  -22.8130   -8.0090 N.am    1  UNL1       -0.3540
      4  H         19.3450  -21.8340   -7.7540 H       1  UNL1        0.1620
      5  C         21.7840  -22.4820   -8.1460 C.3     1  UNL1        0.2310
      6  N         22.5890  -22.4340   -9.3550 N.pl3   1  UNL1       -0.3460
      7  C         23.8840  -22.8850   -9.4290 C.2     1  UNL1        0.1090
      8  C         24.3340  -22.7360  -10.7310 C.2     1  UNL1        0.0590
      9  C         23.2400  -22.1720  -11.4710 C.2     1  UNL1        0.0080
     10  C         23.0710  -21.7970  -12.8230 C.2     1  UNL1        0.0150
     11  C         22.1680  -21.9860  -10.5890 C.2     1  UNL1        0.0460
     12  C         21.8580  -21.2520  -13.2520 C.2     1  UNL1        0.0010
     13  C         20.8100  -21.0750  -12.3560 C.2     1  UNL1        0.0020
     14  C         20.9450  -21.4370  -11.0120 C.2     1  UNL1        0.0300
     15  C         25.6490  -23.0980  -11.2460 C.2     1  UNL1        0.2510
     16  N         25.6660  -24.0610  -12.2160 N.am    1  UNL1       -0.3660
     17  H         24.8670  -24.6600  -12.3630 H       1  UNL1        0.1590
     18  H         26.5780  -24.4140  -12.4700 H       1  UNL1        0.1590
     19  O         26.7010  -22.6120  -10.8450 O.2     1  UNL1       -0.2680
     20  C         18.1060  -23.5250   -8.1410 C.3     1  UNL1        0.0920
     21  C         17.1270  -22.7590   -9.0380 C.3     1  UNL1        0.0260
     22  C         15.8740  -23.5810   -9.3480 C.3     1  UNL1        0.0020
     23  C         15.5130  -24.5910   -8.2570 C.3     1  UNL1        0.0010
     24  C         15.9270  -24.0990   -6.8760 C.3     1  UNL1        0.0110
     25  C         17.4580  -23.9130   -6.7710 C.3     1  UNL1        0.0410
     26  C         17.8240  -23.0020   -5.6030 C.2     1  UNL1       -0.0520
     27  C         18.3940  -21.7330   -5.7940 C.2     1  UNL1        0.0070
     28  C         18.7480  -20.9380   -4.7020 C.2     1  UNL1        0.0010
     29  C         18.5410  -21.3990   -3.4050 C.2     1  UNL1        0.0000
     30  C         17.9780  -22.6560   -3.1970 C.2     1  UNL1        0.0010
     31  C         17.6250  -23.4530   -4.2870 C.2     1  UNL1        0.0070
@<TRIPOS>BOND
     1    12    10    1
     2    12    13    2
     3    10     9    2
     4    18    16    1
     5    17    16    1
     6    13    14    1
     7    16    15   am
     8     9     8    1
     9     9    11    1
    10    15    19    2
    11    15     8    1
    12    14    11    2
    13     8     7    2
    14    11     6    1
    15     7     6    1
    16     6     5    1
    17    22    21    1
    18    22    23    1
    19    21    20    1
    20     2     1    2
    21     1     5    1
    22     1     3   am
    23    23    24    1
    24    20     3    1
    25    20    25    1
    26     3     4    1
    27    24    25    1
    28    25    26    1
    29    27    26    2
    30    27    28    1
    31    26    31    1
    32    28    29    2
    33    31    30    2
    34    29    30    1
