@<TRIPOS>MOLECULE
26702_out_ligand_01.pdbqt
 39 43 0 0 0
SMALL
GASTEIGER

@<TRIPOS>ATOM
      1  N         24.1730  -21.7870  -10.7310 N.am    1  UNL1       -0.3530
      2  C         23.5090  -22.7040   -9.9500 C.2     1  UNL1        0.2510
      3  O         24.0720  -23.6030   -9.3330 O.2     1  UNL1       -0.2680
      4  H         23.6650  -21.1480  -11.3260 H       1  UNL1        0.1630
      5  C         25.6160  -21.8150  -10.9030 C.3     1  UNL1        0.1640
      6  C         26.1610  -20.5640  -11.5490 C.2     1  UNL1       -0.0000
      7  C         26.6240  -19.4870  -10.7760 C.2     1  UNL1        0.0130
      8  C         27.1200  -18.3470  -11.3930 C.2     1  UNL1        0.0200
      9  C         27.1200  -18.3100  -12.7730 C.2     1  UNL1        0.1180
     10  N         26.6570  -19.3100  -13.5510 N.2     1  UNL1       -0.2480
     11  C         26.1700  -20.4210  -12.9470 C.2     1  UNL1        0.1130
     12  N         25.6100  -21.4390  -13.7580 N.pl3   1  UNL1       -0.2670
     13  C         26.4820  -21.7860  -14.9010 C.3     1  UNL1        0.0980
     14  C         25.9950  -21.1580  -16.2030 C.3     1  UNL1        0.0290
     15  C         24.5750  -21.6360  -16.5460 C.3     1  UNL1        0.0800
     16  C         23.7270  -21.8810  -15.2850 C.3     1  UNL1        0.0290
     17  C         24.2310  -21.0500  -14.1090 C.3     1  UNL1        0.0980
     18  C         24.6000  -22.8980  -17.3970 C.2     1  UNL1        0.2190
     19  N         23.3660  -23.4020  -17.7050 N.am    1  UNL1       -0.3700
     20  H         22.5310  -22.8370  -17.6290 H       1  UNL1        0.1590
     21  H         23.3470  -24.1830  -18.3500 H       1  UNL1        0.1590
     22  O         25.6160  -23.4570  -17.7940 O.2     1  UNL1       -0.2730
     23  C         22.0220  -22.6030   -9.9120 C.2     1  UNL1        0.0320
     24  C         21.2570  -22.3090  -11.0490 C.2     1  UNL1        0.0180
     25  C         19.8620  -22.2490  -10.9590 C.2     1  UNL1        0.0190
     26  C         19.2240  -22.4610   -9.7310 C.2     1  UNL1        0.0450
     27  C         19.9840  -22.7190   -8.5830 C.2     1  UNL1       -0.0380
     28  C         17.7370  -22.4450   -9.6680 C.2     1  UNL1        0.2940
     29  C         21.3780  -22.7980   -8.6790 C.2     1  UNL1        0.0250
     30  C         19.2750  -22.9570   -7.2800 C.3     1  UNL1        0.0770
     31  C         17.9880  -22.1310   -7.2800 C.3     1  UNL1        0.1690
     32  O         17.1800  -22.4540   -8.4310 O.3     1  UNL1       -0.3070
     33  O         17.0610  -22.4600  -10.6890 O.2     1  UNL1       -0.2590
     34  C         17.1770  -22.3850   -6.0250 C.2     1  UNL1       -0.0290
     35  C         15.8040  -22.6630   -6.1170 C.2     1  UNL1        0.0100
     36  C         15.0470  -22.8800   -4.9640 C.2     1  UNL1        0.0010
     37  C         15.6490  -22.8150   -3.7090 C.2     1  UNL1        0.0000
     38  C         17.0080  -22.5340   -3.6020 C.2     1  UNL1        0.0010
     39  C         17.7680  -22.3190   -4.7530 C.2     1  UNL1        0.0100
@<TRIPOS>BOND
     1    21    19    1
     2    22    18    2
     3    19    20    1
     4    19    18   am
     5    18    15    1
     6    15    14    1
     7    15    16    1
     8    14    13    1
     9    16    17    1
    10    13    12    1
    11    17    12    1
    12    12    11    1
    13    10    11    1
    14    10     9    2
    15    11     6    2
    16     9     8    1
    17     6     5    1
    18     6     7    1
    19     8     7    2
    20     4     1    1
    21    24    25    1
    22    24    23    2
    23    25    26    2
    24     5     1    1
    25     1     2   am
    26    33    28    2
    27     2    23    1
    28     2     3    2
    29    23    29    1
    30    26    28    1
    31    26    27    1
    32    28    32    1
    33    29    27    2
    34    27    30    1
    35    32    31    1
    36    31    30    1
    37    31    34    1
    38    35    34    2
    39    35    36    1
    40    34    39    1
    41    36    37    2
    42    39    38    2
    43    37    38    1
