@<TRIPOS>MOLECULE
26719_out_ligand_01.pdbqt
 33 36 0 0 0
SMALL
GASTEIGER

@<TRIPOS>ATOM
      1  C         21.4440  -22.1660  -11.2970 C.2     1  UNL1        0.0490
      2  C         20.4110  -21.3830  -11.8240 C.2     1  UNL1        0.0440
      3  C         19.1300  -21.4920  -11.2880 C.2     1  UNL1        0.0340
      4  C         18.0220  -20.6550  -11.8620 C.3     1  UNL1        0.0700
      5  N         18.7990  -22.3160  -10.2650 N.2     1  UNL1       -0.2340
      6  C         19.8340  -23.0270   -9.7750 C.2     1  UNL1        0.1590
      7  C         21.1510  -23.0030  -10.2110 C.2     1  UNL1        0.0460
      8  C         21.8260  -23.8760   -9.3300 C.2     1  UNL1        0.1550
      9  N         21.0140  -24.4450   -8.4340 N.2     1  UNL1       -0.1820
     10  N         19.7970  -23.9280   -8.7410 N.pl3   1  UNL1       -0.2470
     11  C         22.7990  -22.0580  -11.8750 C.2     1  UNL1        0.2570
     12  N         22.8360  -21.7020  -13.2100 N.am    1  UNL1       -0.3230
     13  H         21.9590  -21.4380  -13.6430 H       1  UNL1        0.1690
     14  O         23.7540  -22.2370  -11.1300 O.2     1  UNL1       -0.2670
     15  C         23.9790  -21.5750  -14.0270 C.2     1  UNL1        0.0350
     16  C         24.4960  -22.6080  -14.8110 C.2     1  UNL1        0.0290
     17  C         25.6230  -22.3970  -15.6120 C.2     1  UNL1        0.0030
     18  C         26.2500  -21.1530  -15.6330 C.2     1  UNL1        0.0170
     19  C         25.7510  -20.1130  -14.8410 C.2     1  UNL1        0.0340
     20  C         24.6090  -20.3250  -14.0540 C.2     1  UNL1        0.0460
     21  C         26.3760  -18.7620  -14.8230 C.2     1  UNL1        0.2510
     22  N         26.0990  -17.9410  -15.8970 N.am    1  UNL1       -0.3610
     23  C         26.7520  -16.6620  -16.0260 C.3     1  UNL1        0.1490
     24  H         25.7030  -18.3510  -16.7320 H       1  UNL1        0.1620
     25  O         27.1210  -18.4440  -13.9020 O.2     1  UNL1       -0.2680
     26  C         18.6220  -24.2990   -7.9700 C.3     1  UNL1        0.1910
     27  C         18.4960  -23.4630   -6.7210 C.2     1  UNL1       -0.0380
     28  C         17.7880  -23.9440   -5.6110 C.2     1  UNL1        0.0090
     29  C         17.6600  -23.1640   -4.4600 C.2     1  UNL1        0.0070
     30  C         18.2220  -21.8850   -4.4020 C.2     1  UNL1       -0.0620
     31  C         18.1120  -21.0610   -3.1530 C.3     1  UNL1        0.0480
     32  C         18.9330  -21.4050   -5.5080 C.2     1  UNL1        0.0070
     33  C         19.0620  -22.1830   -6.6600 C.2     1  UNL1        0.0090
@<TRIPOS>BOND
     1    24    22    1
     2    23    22    1
     3    22    21   am
     4    18    17    2
     5    18    19    1
     6    17    16    1
     7    19    21    1
     8    19    20    2
     9    21    25    2
    10    16    15    2
    11    20    15    1
    12    15    12    1
    13    13    12    1
    14    12    11   am
    15    11     1    1
    16    11    14    2
    17     4     3    1
    18     2     1    2
    19     2     3    1
    20     1     7    1
    21     3     5    2
    22     5     6    1
    23     7     6    2
    24     7     8    1
    25     6    10    1
    26     8     9    2
    27    10     9    1
    28    10    26    1
    29    26    27    1
    30    27    33    2
    31    27    28    1
    32    33    32    1
    33    28    29    2
    34    32    30    2
    35    29    30    1
    36    30    31    1
