@<TRIPOS>MOLECULE
26717_out_ligand_01.pdbqt
 37 40 0 0 0
SMALL
GASTEIGER

@<TRIPOS>ATOM
      1  C         20.8790  -23.1950   -8.5690 C.2     1  UNL1        0.0320
      2  C         20.7290  -22.1010   -7.7050 C.2     1  UNL1        0.0180
      3  C         19.7250  -22.1000   -6.7340 C.2     1  UNL1        0.0260
      4  C         18.8720  -23.2020   -6.6280 C.2     1  UNL1        0.0790
      5  C         18.9910  -24.2860   -7.5050 C.2     1  UNL1        0.0260
      6  C         19.9950  -24.2810   -8.4780 C.2     1  UNL1        0.0180
      7  C         21.9640  -23.1440   -9.5920 C.2     1  UNL1        0.2560
      8  O         23.0280  -23.6930   -9.3330 O.2     1  UNL1       -0.2670
      9  N         21.6300  -22.5000  -10.7710 N.am    1  UNL1       -0.3230
     10  H         20.6650  -22.2190  -10.8830 H       1  UNL1        0.1690
     11  C         22.4660  -22.2710  -11.8840 C.2     1  UNL1        0.0350
     12  C         22.0020  -21.3870  -12.8650 C.2     1  UNL1        0.0300
     13  C         22.7730  -21.0990  -14.0010 C.2     1  UNL1        0.0170
     14  C         24.0290  -21.6910  -14.1800 C.2     1  UNL1        0.0120
     15  C         24.4880  -22.5720  -13.1920 C.2     1  UNL1        0.0170
     16  C         23.7170  -22.8590  -12.0560 C.2     1  UNL1        0.0300
     17  C         24.8700  -21.4240  -15.3460 C.ar    1  UNL1        0.1680
     18  N         26.0620  -21.9310  -15.6080 N.ar    1  UNL1       -0.1420
     19  N         26.4660  -21.3970  -16.8070 N.ar    1  UNL1        0.0180
     20  N         25.5480  -20.5730  -17.2900 N.ar    1  UNL1       -0.0050
     21  N         24.5610  -20.5900  -16.3870 N.ar    1  UNL1       -0.2680
     22  H         23.7380  -20.0270  -16.5460 H       1  UNL1        0.1850
     23  S         17.5740  -23.2000   -5.4140 S.O2    1  UNL1        0.2630
     24  O         17.9270  -22.2190   -4.4100 O.2     1  UNL1       -0.2000
     25  O         17.2680  -24.5660   -5.0510 O.2     1  UNL1       -0.2000
     26  N         16.2720  -22.5360   -6.2700 N.pl3   1  UNL1       -0.2810
     27  H         15.4110  -22.6450   -5.7350 H       1  UNL1        0.1790
     28  C         16.2050  -22.7850   -7.6680 C.2     1  UNL1        0.0430
     29  C         15.4900  -23.8840   -8.1380 C.2     1  UNL1        0.0300
     30  C         15.3870  -24.1110   -9.5100 C.2     1  UNL1        0.0030
     31  C         15.9940  -23.2330  -10.4090 C.2     1  UNL1        0.0160
     32  C         16.7010  -22.1130   -9.9460 C.2     1  UNL1        0.0500
     33  C         16.8060  -21.8990   -8.5610 C.2     1  UNL1        0.0460
     34  C         17.3670  -21.1740  -10.9220 C.3     1  UNL1        0.4170
     35  F         18.6880  -20.9980  -10.6430 F       1  UNL1       -0.1660
     36  F         16.8190  -19.9270  -10.9310 F       1  UNL1       -0.1660
     37  F         17.3110  -21.6160  -12.2080 F       1  UNL1       -0.1660
@<TRIPOS>BOND
     1    20    19   ar
     2    20    21   ar
     3    19    18   ar
     4    22    21    1
     5    21    17   ar
     6    18    17   ar
     7    17    14    1
     8    14    13    2
     9    14    15    1
    10    13    12    1
    11    15    16    2
    12    12    11    2
    13    37    34    1
    14    16    11    1
    15    11     9    1
    16    36    34    1
    17    34    35    1
    18    34    32    1
    19    10     9    1
    20     9     7   am
    21    31    32    2
    22    31    30    1
    23    32    33    1
    24     7     8    2
    25     7     1    1
    26    30    29    2
    27     1     6    2
    28     1     2    1
    29    33    28    2
    30     6     5    1
    31    29    28    1
    32     2     3    2
    33    28    26    1
    34     5     4    2
    35     3     4    1
    36     4    23    1
    37    26    27    1
    38    26    23    1
    39    23    25    2
    40    23    24    2
