@<TRIPOS>MOLECULE
26733_out_ligand_01.pdbqt
 38 41 0 0 0
SMALL
GASTEIGER

@<TRIPOS>ATOM
      1  N         17.4000  -22.2170   -9.3020 N.am    1  UNL1       -0.3520
      2  C         16.3460  -22.9330   -8.7800 C.2     1  UNL1        0.2320
      3  O         15.9460  -23.9940   -9.2490 O.2     1  UNL1       -0.2720
      4  H         17.6270  -21.3340   -8.8540 H       1  UNL1        0.1630
      5  C         18.1040  -22.6130  -10.5070 C.3     1  UNL1        0.1130
      6  C         18.0780  -21.4970  -11.5550 C.3     1  UNL1        0.0370
      7  C         19.5130  -23.0490  -10.1530 C.2     1  UNL1       -0.0340
      8  C         19.7610  -24.1780   -9.3600 C.2     1  UNL1        0.0090
      9  C         21.0690  -24.5600   -9.0650 C.2     1  UNL1        0.0030
     10  C         22.1490  -23.8280   -9.5630 C.2     1  UNL1        0.0290
     11  C         21.9320  -22.7110  -10.3680 C.2     1  UNL1        0.0350
     12  C         20.6130  -22.3320  -10.6580 C.2     1  UNL1        0.0380
     13  N         22.9650  -21.9190  -10.9120 N.am    1  UNL1       -0.3230
     14  C         23.9730  -22.3250  -11.7690 C.2     1  UNL1        0.2560
     15  O         24.1150  -23.4360  -12.2650 O.2     1  UNL1       -0.2670
     16  H         22.9170  -20.9320  -10.6990 H       1  UNL1        0.1690
     17  C         24.9510  -21.2610  -12.1330 C.2     1  UNL1        0.0320
     18  C         25.8210  -20.7020  -11.1870 C.2     1  UNL1        0.0170
     19  C         26.7250  -19.7100  -11.5730 C.2     1  UNL1        0.0010
     20  C         26.7710  -19.2820  -12.9000 C.2     1  UNL1        0.0000
     21  C         25.9190  -19.8480  -13.8470 C.2     1  UNL1        0.0010
     22  C         25.0140  -20.8410  -13.4680 C.2     1  UNL1        0.0170
     23  C         15.7360  -22.3090   -7.5310 C.3     1  UNL1        0.2070
     24  N         15.1410  -23.3660   -6.6780 N.3     1  UNL1       -0.2070
     25  H         14.6850  -24.1100   -7.2080 H       1  UNL1        0.1400
     26  S         16.1490  -24.0060   -5.4920 S.O2    1  UNL1        0.2440
     27  O         15.3320  -24.4540   -4.3880 O.2     1  UNL1       -0.2060
     28  O         17.0960  -24.8640   -6.1660 O.2     1  UNL1       -0.2060
     29  C         17.0940  -22.7080   -4.8600 C.2     1  UNL1        0.1030
     30  C         16.8100  -21.9720   -3.7220 C.2     1  UNL1        0.1150
     31  N         17.7820  -21.0160   -3.5940 N.pl3   1  UNL1       -0.3490
     32  C         18.6620  -21.1090   -4.6370 C.2     1  UNL1        0.1390
     33  H         17.8620  -20.3280   -2.8590 H       1  UNL1        0.1670
     34  N         19.7160  -20.2910   -4.8040 N.2     1  UNL1       -0.2420
     35  C         18.2710  -22.1690   -5.4510 C.2     1  UNL1        0.0340
     36  C         20.4490  -20.5890   -5.9000 C.2     1  UNL1        0.1190
     37  C         20.1830  -21.6170   -6.7940 C.2     1  UNL1        0.0200
     38  C         19.0710  -22.4330   -6.5780 C.2     1  UNL1        0.0180
@<TRIPOS>BOND
     1    21    22    1
     2    21    20    2
     3    22    17    2
     4    20    19    1
     5    15    14    2
     6    17    14    1
     7    17    18    1
     8    14    13   am
     9    19    18    2
    10     6     5    1
    11    13    16    1
    12    13    11    1
    13    12    11    1
    14    12     7    2
    15     5     7    1
    16     5     1    1
    17    11    10    2
    18     7     8    1
    19    10     9    1
    20     8     9    2
    21     1     4    1
    22     1     2   am
    23     3     2    2
    24     2    23    1
    25    23    24    1
    26    25    24    1
    27    37    38    2
    28    37    36    1
    29    24    26    1
    30    38    35    1
    31    28    26    2
    32    36    34    2
    33    26    29    1
    34    26    27    2
    35    35    29    1
    36    35    32    2
    37    29    30    2
    38    34    32    1
    39    32    31    1
    40    30    31    1
    41    31    33    1
