@<TRIPOS>MOLECULE
26749_out_ligand_01.pdbqt
 33 35 0 0 0
SMALL
GASTEIGER

@<TRIPOS>ATOM
      1  N         27.0190  -21.6220  -14.1570 N.1     1  UNL1       -0.1910
      2  C         25.9350  -21.6210  -13.7370 C.1     1  UNL1        0.1030
      3  C         24.6550  -21.7180  -13.1030 C.2     1  UNL1        0.0850
      4  C         24.5980  -22.3120  -11.8300 C.2     1  UNL1        0.0420
      5  C         23.3430  -22.4860  -11.2310 C.ar    1  UNL1        0.0290
      6  C         22.9230  -23.1420  -10.0230 C.ar    1  UNL1        0.0620
      7  C         21.5860  -22.9100   -9.7390 C.ar    1  UNL1        0.1020
      8  S         20.8340  -22.0070  -10.9930 S.2     1  UNL1       -0.0620
      9  C         22.2620  -21.9340  -11.9020 C.ar    1  UNL1        0.1130
     10  N         22.2770  -21.3590  -13.1240 N.2     1  UNL1       -0.2270
     11  C         23.4700  -21.3590  -13.7360 C.2     1  UNL1        0.1220
     12  N         23.4250  -21.0510  -15.1070 N.pl3   1  UNL1       -0.2860
     13  H         24.3870  -20.7510  -15.3540 H       1  UNL1        0.1250
     14  H         22.6810  -20.3790  -15.3680 H       1  UNL1        0.1250
     15  N         23.7790  -23.7850   -9.2050 N.pl3   1  UNL1       -0.3970
     16  H         24.6520  -23.3450   -8.8960 H       1  UNL1        0.1560
     17  H         23.7820  -24.7890   -9.0730 H       1  UNL1        0.1560
     18  C         20.8240  -23.5060   -8.6480 C.2     1  UNL1        0.2650
     19  O         20.6840  -24.7220   -8.5070 O.2     1  UNL1       -0.2670
     20  N         20.2670  -22.5680   -7.7760 N.am    1  UNL1       -0.3220
     21  H         20.6900  -21.6420   -7.8120 H       1  UNL1        0.1690
     22  C         19.1010  -22.7570   -7.0140 C.2     1  UNL1        0.0350
     23  C         18.7680  -21.9110   -5.9590 C.2     1  UNL1        0.0310
     24  C         17.6670  -22.1920   -5.1450 C.2     1  UNL1        0.0270
     25  C         16.8560  -23.2910   -5.4250 C.2     1  UNL1        0.0740
     26  C         17.1590  -24.1360   -6.4910 C.2     1  UNL1        0.0270
     27  C         18.2910  -23.8660   -7.2730 C.2     1  UNL1        0.0310
     28  S         15.4790  -23.6310   -4.3650 S.O2    1  UNL1        0.2390
     29  O         15.9450  -24.4440   -3.2620 O.2     1  UNL1       -0.2060
     30  O         14.3320  -23.9940   -5.1580 O.2     1  UNL1       -0.2060
     31  N         15.1830  -22.1050   -3.7030 N.3     1  UNL1       -0.2250
     32  H         14.6560  -22.1360   -2.8270 H       1  UNL1        0.1360
     33  H         14.6880  -21.5530   -4.4070 H       1  UNL1        0.1360
@<TRIPOS>BOND
     1    14    12    1
     2    13    12    1
     3    12    11    1
     4     1     2    3
     5     2     3    1
     6    11    10    1
     7    11     3    2
     8    10     9    2
     9     3     4    1
    10     9     5   ar
    11     9     8   ar
    12     4     5    2
    13     5     6   ar
    14     8     7   ar
    15     6     7   ar
    16     6    15    1
    17     7    18    1
    18    15    17    1
    19    15    16    1
    20    18    19    2
    21    18    20   am
    22    21    20    1
    23    20    22    1
    24    27    22    2
    25    27    26    1
    26    22    23    1
    27    26    25    2
    28    23    24    2
    29    25    24    1
    30    25    28    1
    31    30    28    2
    32    33    31    1
    33    28    31    1
    34    28    29    2
    35    31    32    1
