@<TRIPOS>MOLECULE
26744_out_ligand_01.pdbqt
 33 36 0 0 0
SMALL
GASTEIGER

@<TRIPOS>ATOM
      1  C         27.1210  -24.6030  -14.6300 C.3     1  UNL1        0.1630
      2  N         26.0510  -23.6250  -14.6700 N.ar    1  UNL1       -0.2860
      3  C         25.6760  -23.0290  -15.8680 C.ar    1  UNL1        0.3300
      4  O         26.2070  -23.2670  -16.9530 O.2     1  UNL1       -0.2460
      5  N         24.6410  -22.1120  -15.8190 N.ar    1  UNL1       -0.2730
      6  C         23.9340  -21.7110  -14.7070 C.ar    1  UNL1        0.2800
      7  O         23.0330  -20.8820  -14.7730 O.2     1  UNL1       -0.2650
      8  C         24.3710  -22.3570  -13.5190 C.ar    1  UNL1        0.1660
      9  C         25.3830  -23.2700  -13.5160 C.ar    1  UNL1        0.1860
     10  N         25.6240  -23.7520  -12.2740 N.ar    1  UNL1       -0.0420
     11  C         24.7460  -23.1570  -11.4840 C.ar    1  UNL1        0.7250
     12  N         23.9690  -22.2650  -12.2100 N.ar    1  UNL1       -0.1710
     13  H         24.3830  -21.6930  -16.6970 H       1  UNL1        0.1730
     14  N         24.5840  -23.3320  -10.1420 N.pl3   1  UNL1       -0.1070
     15  H         25.4190  -23.3450   -9.5590 H       1  UNL1        0.2080
     16  N         23.4730  -22.9670   -9.4260 N.2     1  UNL1       -0.1720
     17  C         22.5860  -23.8940   -9.2330 C.2     1  UNL1        0.1500
     18  C         21.3290  -23.6250   -8.5080 C.2     1  UNL1       -0.0170
     19  C         20.3320  -24.6020   -8.4080 C.2     1  UNL1        0.0140
     20  C         19.1520  -24.3220   -7.7160 C.2     1  UNL1        0.0240
     21  C         18.9740  -23.0710   -7.1280 C.2     1  UNL1        0.0340
     22 CL         17.5190  -22.7260   -6.2760 Cl      1  UNL1       -0.0840
     23  C         19.9660  -22.0950   -7.2230 C.2     1  UNL1        0.0240
     24  C         21.1490  -22.3720   -7.9140 C.2     1  UNL1        0.0140
     25  C         22.9010  -21.4080  -11.7280 C.3     1  UNL1        0.1480
     26  C         21.4960  -21.9550  -11.9970 C.3     1  UNL1        0.0250
     27  C         20.3940  -20.8880  -12.0730 C.3     1  UNL1        0.0400
     28  C         19.0740  -21.2980  -11.4650 C.2     1  UNL1       -0.0580
     29  C         18.0090  -20.3870  -11.4210 C.2     1  UNL1        0.0070
     30  C         16.7840  -20.7480  -10.8570 C.2     1  UNL1        0.0010
     31  C         16.6020  -22.0310  -10.3490 C.2     1  UNL1        0.0000
     32  C         17.6410  -22.9560  -10.4130 C.2     1  UNL1        0.0010
     33  C         18.8680  -22.5940  -10.9720 C.2     1  UNL1        0.0070
@<TRIPOS>BOND
     1     4     3    2
     2    13     5    1
     3     3     5   ar
     4     3     2   ar
     5     5     6   ar
     6     7     6    2
     7     6     8   ar
     8     2     1    1
     9     2     9   ar
    10     8     9   ar
    11     8    12   ar
    12     9    10   ar
    13    10    11   ar
    14    12    25    1
    15    12    11   ar
    16    27    26    1
    17    27    28    1
    18    26    25    1
    19    11    14    1
    20    28    29    2
    21    28    33    1
    22    29    30    1
    23    33    32    2
    24    30    31    2
    25    32    31    1
    26    14    15    1
    27    14    16    1
    28    16    17    2
    29    17    18    1
    30    18    19    2
    31    18    24    1
    32    19    20    1
    33    24    23    2
    34    20    21    2
    35    23    21    1
    36    21    22    1
