@<TRIPOS>MOLECULE
26758_out_ligand_01.pdbqt
 32 36 0 0 0
SMALL
GASTEIGER

@<TRIPOS>ATOM
      1  C         22.2260  -22.3000  -10.8720 C.2     1  UNL1        0.1220
      2  N         22.2270  -21.7660  -12.0640 N.2     1  UNL1       -0.2500
      3  C         21.0280  -21.2550  -12.5280 C.2     1  UNL1        0.1370
      4  C         19.8820  -21.3070  -11.8350 C.2     1  UNL1        0.1380
      5  N         19.8760  -21.8940  -10.5800 N.pl3   1  UNL1       -0.2400
      6  N         18.8400  -22.0470   -9.7290 N.2     1  UNL1       -0.1670
      7  C         19.3500  -22.6920   -8.6710 C.2     1  UNL1        0.0910
      8  C         20.7350  -22.9410   -8.8370 C.2     1  UNL1        0.0690
      9  C         21.0460  -22.4080  -10.0660 C.2     1  UNL1        0.0950
     10  S         23.7010  -22.9260  -10.1870 S.3     1  UNL1       -0.0990
     11  C         24.8920  -21.7600  -10.9010 C.3     1  UNL1        0.1840
     12  C         25.5020  -22.3370  -12.1700 C.2     1  UNL1        0.2310
     13  O         26.2360  -23.3200  -12.1290 O.2     1  UNL1       -0.2720
     14  N         25.1000  -21.6660  -13.3150 N.am    1  UNL1       -0.3260
     15  H         24.3900  -20.9490  -13.1870 H       1  UNL1        0.1690
     16  C         25.4380  -21.9730  -14.6480 C.2     1  UNL1        0.0370
     17  C         26.6510  -21.4580  -15.1310 C.2     1  UNL1        0.0290
     18  C         27.0570  -21.6940  -16.4480 C.2     1  UNL1        0.0050
     19  C         26.2540  -22.4550  -17.2930 C.2     1  UNL1        0.0420
     20  C         25.0580  -22.9730  -16.8100 C.2     1  UNL1        0.1180
     21  F         24.2890  -23.7080  -17.6230 F       1  UNL1       -0.2060
     22  C         24.6450  -22.7390  -15.5010 C.2     1  UNL1        0.0710
     23  C         18.5260  -23.0800   -7.5300 C.2     1  UNL1        0.0050
     24  C         17.7280  -24.2260   -7.6690 C.2     1  UNL1        0.0150
     25  C         16.9430  -24.6700   -6.6100 C.2     1  UNL1        0.0020
     26  C         16.9560  -23.9760   -5.4020 C.2     1  UNL1        0.0120
     27  C         17.7420  -22.8250   -5.2350 C.2     1  UNL1       -0.0250
     28  C         17.7390  -22.1440   -4.0070 C.2     1  UNL1        0.0120
     29  C         18.5420  -22.3530   -6.3070 C.2     1  UNL1       -0.0130
     30  C         18.5110  -20.9980   -3.8180 C.2     1  UNL1        0.0010
     31  C         19.3000  -20.5200   -4.8570 C.2     1  UNL1        0.0010
     32  C         19.3170  -21.1890   -6.0820 C.2     1  UNL1        0.0130
@<TRIPOS>BOND
     1    21    20    1
     2    19    20    2
     3    19    18    1
     4    20    22    1
     5    18    17    2
     6    22    16    2
     7    17    16    1
     8    16    14    1
     9    14    15    1
    10    14    12   am
    11     3     2    1
    12     3     4    2
    13    12    13    2
    14    12    11    1
    15     2     1    2
    16     4     5    1
    17    11    10    1
    18     1    10    1
    19     1     9    1
    20     5     9    1
    21     5     6    1
    22     9     8    2
    23     6     7    2
    24     8     7    1
    25     7    23    1
    26    24    23    2
    27    24    25    1
    28    23    29    1
    29    25    26    2
    30    29    32    1
    31    29    27    2
    32    32    31    2
    33    26    27    1
    34    27    28    1
    35    31    30    1
    36    28    30    2
