@<TRIPOS>MOLECULE
26764_out_ligand_01.pdbqt
 33 36 0 0 0
SMALL
GASTEIGER

@<TRIPOS>ATOM
      1  N         17.5880  -22.3310  -10.1580 N.ar    1  UNL1       -0.1940
      2  N         18.6170  -23.0820   -9.6210 N.ar    1  UNL1        0.0260
      3  C         19.6550  -22.7170  -10.3160 C.ar    1  UNL1        0.7550
      4  N         20.9120  -23.2070  -10.1160 N.2     1  UNL1       -0.0430
      5  C         21.8690  -22.7320  -10.8740 C.2     1  UNL1        0.1480
      6  C         21.6130  -21.7200  -11.9590 C.2     1  UNL1        0.0690
      7  C         20.3550  -21.2920  -12.1010 C.2     1  UNL1        0.1240
      8  N         19.4030  -21.7970  -11.2760 N.ar    1  UNL1       -0.1000
      9  C         18.0640  -21.5380  -11.2030 C.ar    1  UNL1        0.3640
     10  O         17.3920  -20.7620  -11.8660 O.2     1  UNL1       -0.2440
     11  C         16.2080  -22.4800   -9.7570 C.3     1  UNL1        0.2590
     12  C         16.0550  -23.2250   -8.4290 C.2     1  UNL1        0.2420
     13  O         15.7250  -24.4100   -8.4230 O.2     1  UNL1       -0.2710
     14  N         16.1750  -22.4180   -7.3010 N.am    1  UNL1       -0.3250
     15  H         16.2100  -21.4160   -7.4900 H       1  UNL1        0.1690
     16  C         16.1490  -22.8230   -5.9400 C.2     1  UNL1        0.0490
     17  C         15.0490  -23.4980   -5.3910 C.2     1  UNL1        0.0300
     18  C         15.0350  -23.9030   -4.0530 C.2     1  UNL1        0.0020
     19  C         16.1260  -23.6460   -3.2350 C.2     1  UNL1        0.0010
     20  C         17.2330  -22.9870   -3.7600 C.2     1  UNL1        0.0180
     21  C         17.2610  -22.5680   -5.1080 C.2     1  UNL1        0.0740
     22  C         18.5000  -21.8760   -5.6150 C.3     1  UNL1        0.4190
     23  F         19.3060  -22.7030   -6.3360 F       1  UNL1       -0.1660
     24  F         19.2680  -21.3860   -4.6010 F       1  UNL1       -0.1660
     25  F         18.2460  -20.8120   -6.4290 F       1  UNL1       -0.1660
     26  N         23.1290  -23.2430  -10.6660 N.pl3   1  UNL1       -0.3400
     27  H         23.2500  -23.5240   -9.6960 H       1  UNL1        0.1670
     28  C         24.3320  -22.6900  -11.1600 C.2     1  UNL1        0.0330
     29  C         25.0280  -23.2200  -12.2530 C.2     1  UNL1        0.0290
     30  C         26.2010  -22.6150  -12.7140 C.2     1  UNL1        0.0020
     31  C         26.6870  -21.4670  -12.0920 C.2     1  UNL1        0.0000
     32  C         25.9950  -20.9180  -11.0150 C.2     1  UNL1        0.0020
     33  C         24.8220  -21.5240  -10.5580 C.2     1  UNL1        0.0290
@<TRIPOS>BOND
     1    30    29    1
     2    30    31    2
     3    29    28    2
     4     7     6    2
     5     7     8    1
     6    31    32    1
     7     6     5    1
     8    10     9    2
     9     8     9   ar
    10     8     3   ar
    11     9     1   ar
    12    28    26    1
    13    28    33    1
    14    32    33    2
    15     5    26    1
    16     5     4    2
    17    26    27    1
    18     3     4    1
    19     3     2   ar
    20     1    11    1
    21     1     2   ar
    22    11    12    1
    23    12    13    2
    24    12    14   am
    25    15    14    1
    26    14    16    1
    27    25    22    1
    28    23    22    1
    29    16    17    2
    30    16    21    1
    31    22    21    1
    32    22    24    1
    33    17    18    1
    34    21    20    2
    35    18    19    2
    36    20    19    1
