@<TRIPOS>MOLECULE
26772_out_ligand_01.pdbqt
 37 41 0 0 0
SMALL
GASTEIGER

@<TRIPOS>ATOM
      1  C         21.3310  -23.4140   -9.8330 C.2     1  UNL1        0.0340
      2  C         20.8870  -24.2360   -8.7860 C.2     1  UNL1        0.0310
      3  C         19.5300  -24.3000   -8.4530 C.2     1  UNL1        0.0270
      4  C         18.6120  -23.5350   -9.1770 C.2     1  UNL1        0.0800
      5  C         19.0420  -22.6940  -10.2070 C.2     1  UNL1        0.0270
      6  C         20.4000  -22.6450  -10.5370 C.2     1  UNL1        0.0310
      7  N         22.7090  -23.4360  -10.1200 N.am    1  UNL1       -0.3260
      8  C         23.6180  -22.3950  -10.0100 C.2     1  UNL1        0.2400
      9  O         23.4070  -21.3030   -9.4870 O.2     1  UNL1       -0.2710
     10  H         23.0840  -24.3190  -10.4490 H       1  UNL1        0.1690
     11  C         25.0230  -22.7590  -10.4970 C.3     1  UNL1        0.2350
     12  N         25.4020  -22.0470  -11.6980 N.am    1  UNL1       -0.3040
     13  C         25.8680  -20.7360  -11.7510 C.2     1  UNL1        0.2590
     14  O         26.0870  -19.9750  -10.8260 O.2     1  UNL1       -0.2670
     15  C         26.1460  -20.4730  -13.1780 C.2     1  UNL1        0.0450
     16  C         26.6130  -19.3580  -13.8430 C.2     1  UNL1        0.0180
     17  C         25.8850  -21.6390  -13.8550 C.2     1  UNL1        0.0170
     18  C         26.8070  -19.4670  -15.2330 C.2     1  UNL1        0.0020
     19  C         26.5430  -20.6780  -15.9220 C.2     1  UNL1        0.0120
     20  C         26.0660  -21.8110  -15.2240 C.2     1  UNL1       -0.0230
     21  C         25.7580  -23.0980  -15.7180 C.2     1  UNL1        0.0120
     22  C         25.3040  -24.1100  -14.8380 C.2     1  UNL1        0.0030
     23  C         25.1420  -23.8690  -13.4590 C.2     1  UNL1        0.0310
     24  C         25.4430  -22.6050  -12.9880 C.2     1  UNL1        0.0500
     25  S         16.8880  -23.5830   -8.7550 S.O2    1  UNL1        0.2630
     26  O         16.6980  -24.6430   -7.7890 O.2     1  UNL1       -0.2000
     27  O         16.1190  -23.5430   -9.9820 O.2     1  UNL1       -0.2000
     28  N         16.6740  -22.1500   -7.9220 N.pl3   1  UNL1       -0.2790
     29  H         16.7210  -21.2880   -8.4740 H       1  UNL1        0.1790
     30  C         16.5220  -22.1060   -6.5120 C.2     1  UNL1        0.0660
     31  C         15.2710  -22.4260   -5.9620 C.2     1  UNL1        0.0320
     32  C         15.0990  -22.4860   -4.5770 C.2     1  UNL1        0.0040
     33  C         16.1820  -22.2360   -3.7310 C.2     1  UNL1        0.0260
     34  C         17.4420  -21.9230   -4.2720 C.2     1  UNL1        0.0580
     35 CL         18.7360  -21.6350   -3.1550 Cl      1  UNL1       -0.0820
     36  C         17.6250  -21.8670   -5.6660 C.2     1  UNL1        0.0830
     37 CL         19.1830  -21.5070   -6.3610 Cl      1  UNL1       -0.0800
@<TRIPOS>BOND
     1    19    18    1
     2    19    20    2
     3    21    20    1
     4    21    22    2
     5    18    16    2
     6    20    17    1
     7    22    23    1
     8    17    15    2
     9    17    24    1
    10    16    15    1
    11    23    24    2
    12    15    13    1
    13    24    12    1
    14    13    12   am
    15    13    14    2
    16    12    11    1
    17     6     5    1
    18     6     1    2
    19    11     8    1
    20    10     7    1
    21     5     4    2
    22     7     8   am
    23     7     1    1
    24     8     9    2
    25    27    25    2
    26     1     2    1
    27     4    25    1
    28     4     3    1
    29     2     3    2
    30    25    28    1
    31    25    26    2
    32    29    28    1
    33    28    30    1
    34    30    31    2
    35    30    36    1
    36    37    36    1
    37    31    32    1
    38    36    34    2
    39    32    33    2
    40    34    33    1
    41    34    35    1
