@<TRIPOS>MOLECULE
26773_out_ligand_01.pdbqt
 38 42 0 0 0
SMALL
GASTEIGER

@<TRIPOS>ATOM
      1  C         22.4290  -22.9560  -10.6850 C.2     1  UNL1        0.0340
      2  C         21.2860  -22.3190  -11.1710 C.2     1  UNL1        0.0310
      3  C         20.0620  -22.4580  -10.5070 C.2     1  UNL1        0.0270
      4  C         19.9780  -23.2590   -9.3660 C.2     1  UNL1        0.0800
      5  C         21.1200  -23.8700   -8.8470 C.2     1  UNL1        0.0270
      6  C         22.3400  -23.7220   -9.5130 C.2     1  UNL1        0.0310
      7  N         23.6900  -22.9010  -11.3100 N.am    1  UNL1       -0.3260
      8  C         24.6880  -21.9550  -11.1320 C.2     1  UNL1        0.2410
      9  O         24.6810  -21.0500  -10.3000 O.2     1  UNL1       -0.2710
     10  H         23.8790  -23.6550  -11.9700 H       1  UNL1        0.1690
     11  C         25.8930  -22.1580  -12.0450 C.3     1  UNL1        0.2480
     12  N         25.5230  -22.1810  -13.4600 N.am    1  UNL1       -0.2280
     13  C         25.1850  -23.3240  -14.2130 C.2     1  UNL1        0.2690
     14  O         25.0680  -24.4530  -13.7800 O.2     1  UNL1       -0.2660
     15  C         24.9980  -22.9290  -15.6220 C.2     1  UNL1        0.0560
     16  C         24.6450  -23.7640  -16.6720 C.2     1  UNL1        0.0180
     17  C         25.2160  -21.5740  -15.8420 C.2     1  UNL1        0.0950
     18  C         24.5160  -23.1990  -17.9460 C.2     1  UNL1        0.0010
     19  C         24.7400  -21.8240  -18.1520 C.2     1  UNL1        0.0020
     20  C         25.0970  -20.9910  -17.0900 C.2     1  UNL1        0.0260
     21  S         25.6490  -20.7780  -14.3610 S.O2    1  UNL1        0.2690
     22  O         27.0490  -20.4180  -14.4030 O.2     1  UNL1       -0.2000
     23  O         24.6010  -19.8680  -13.9730 O.2     1  UNL1       -0.2000
     24  S         18.4130  -23.4840   -8.5530 S.O2    1  UNL1        0.2630
     25  O         17.4070  -23.6420   -9.5830 O.2     1  UNL1       -0.2000
     26  O         18.5830  -24.4820   -7.5170 O.2     1  UNL1       -0.2000
     27  N         18.1150  -21.9770   -7.8450 N.pl3   1  UNL1       -0.2800
     28  H         18.5390  -21.2140   -8.3650 H       1  UNL1        0.1790
     29  C         18.0720  -21.8820   -6.4190 C.2     1  UNL1        0.0530
     30  C         19.1120  -21.2020   -5.7800 C.2     1  UNL1        0.0310
     31  C         19.0880  -21.0220   -4.4010 C.2     1  UNL1        0.0030
     32  C         18.0170  -21.5090   -3.6570 C.2     1  UNL1        0.0120
     33  C         16.9570  -22.1910   -4.2760 C.2     1  UNL1       -0.0240
     34  C         15.8770  -22.6590   -3.5120 C.2     1  UNL1        0.0120
     35  C         16.9740  -22.3980   -5.6780 C.2     1  UNL1        0.0010
     36  C         14.8120  -23.3340   -4.1080 C.2     1  UNL1        0.0010
     37  C         14.8160  -23.5540   -5.4790 C.2     1  UNL1        0.0010
     38  C         15.8830  -23.0940   -6.2540 C.2     1  UNL1        0.0140
@<TRIPOS>BOND
     1    19    18    2
     2    19    20    1
     3    18    16    1
     4    20    17    2
     5    16    15    2
     6    17    15    1
     7    17    21    1
     8    15    13    1
     9    22    21    2
    10    21    23    2
    11    21    12    1
    12    13    14    2
    13    13    12   am
    14    12    11    1
    15    11     8    1
    16    10     7    1
    17     7     8   am
    18     7     1    1
    19     2     1    2
    20     2     3    1
    21     8     9    2
    22     1     6    1
    23     3     4    2
    24    25    24    2
    25     6     5    2
    26     4     5    1
    27     4    24    1
    28    24    27    1
    29    24    26    2
    30    28    27    1
    31    27    29    1
    32    29    30    2
    33    29    35    1
    34    38    35    1
    35    38    37    2
    36    30    31    1
    37    35    33    2
    38    37    36    1
    39    31    32    2
    40    33    32    1
    41    33    34    1
    42    36    34    2
