@<TRIPOS>MOLECULE
26771_out_ligand_01.pdbqt
 37 39 0 0 0
SMALL
GASTEIGER

@<TRIPOS>ATOM
      1  N         21.0160  -22.5350  -10.1630 N.pl3   1  UNL1       -0.2630
      2  S         20.9380  -23.8980   -9.1330 S.O2    1  UNL1        0.2650
      3  O         20.1720  -24.9350   -9.7930 O.2     1  UNL1       -0.2000
      4  O         22.2550  -24.1630   -8.5990 O.2     1  UNL1       -0.2000
      5  C         19.9630  -23.2920   -7.7740 C.2     1  UNL1        0.0800
      6  C         20.3010  -22.0690   -7.1910 C.2     1  UNL1        0.0260
      7  C         19.5200  -21.5660   -6.1500 C.2     1  UNL1        0.0080
      8  C         18.4040  -22.2780   -5.6910 C.2     1  UNL1       -0.0620
      9  C         17.5820  -21.7550   -4.5490 C.3     1  UNL1        0.0480
     10  C         18.0940  -23.5190   -6.2670 C.2     1  UNL1        0.0080
     11  C         18.8730  -24.0290   -7.3070 C.2     1  UNL1        0.0260
     12  C         22.0730  -21.5230   -9.9090 C.3     1  UNL1        0.2450
     13  C         23.3120  -21.5640  -10.7930 C.2     1  UNL1        0.2410
     14  O         24.4140  -21.2460  -10.3550 O.2     1  UNL1       -0.2710
     15  N         23.0340  -21.9560  -12.0960 N.am    1  UNL1       -0.3260
     16  H         22.0790  -22.2120  -12.3140 H       1  UNL1        0.1690
     17  C         23.9450  -22.0870  -13.1660 C.2     1  UNL1        0.0340
     18  C         24.9090  -23.0900  -13.2600 C.2     1  UNL1        0.0300
     19  C         25.7790  -23.1470  -14.3580 C.2     1  UNL1        0.0190
     20  C         25.6860  -22.2000  -15.3790 C.2     1  UNL1        0.0320
     21  C         24.7320  -21.1810  -15.2830 C.2     1  UNL1        0.0190
     22  C         23.8700  -21.1270  -14.1820 C.2     1  UNL1        0.0300
     23  C         26.5810  -22.2170  -16.5660 C.2     1  UNL1        0.2490
     24  N         26.9580  -21.0120  -17.0920 N.am    1  UNL1       -0.3660
     25  H         26.8420  -20.1410  -16.5970 H       1  UNL1        0.1590
     26  H         27.6560  -21.0440  -17.8250 H       1  UNL1        0.1590
     27  O         26.9990  -23.2670  -17.0370 O.2     1  UNL1       -0.2680
     28  C         19.7350  -21.9970  -10.5360 C.2     1  UNL1        0.0460
     29  C         19.5840  -21.0620  -11.5610 C.2     1  UNL1        0.0300
     30  C         18.3130  -20.6120  -11.9150 C.2     1  UNL1        0.0030
     31  C         17.1870  -21.1120  -11.2610 C.2     1  UNL1        0.0160
     32  C         17.3200  -22.0790  -10.2550 C.2     1  UNL1        0.0500
     33  C         18.6060  -22.5190   -9.9010 C.2     1  UNL1        0.0460
     34  C         16.1150  -22.6330   -9.5390 C.3     1  UNL1        0.4170
     35  F         16.1570  -23.9870   -9.4170 F       1  UNL1       -0.1660
     36  F         15.9640  -22.1480   -8.2780 F       1  UNL1       -0.1660
     37  F         14.9510  -22.3540  -10.1870 F       1  UNL1       -0.1660
@<TRIPOS>BOND
     1    26    24    1
     2    24    25    1
     3    24    23   am
     4    27    23    2
     5    23    20    1
     6    20    21    2
     7    20    19    1
     8    21    22    1
     9    19    18    2
    10    22    17    2
    11    18    17    1
    12    17    15    1
    13    16    15    1
    14    15    13   am
    15    30    29    1
    16    30    31    2
    17    29    28    2
    18    31    32    1
    19    13    14    2
    20    13    12    1
    21    28     1    1
    22    28    33    1
    23    32    33    2
    24    32    34    1
    25    37    34    1
    26     1    12    1
    27     1     2    1
    28     3     2    2
    29    34    35    1
    30    34    36    1
    31     2     4    2
    32     2     5    1
    33     5    11    2
    34     5     6    1
    35    11    10    1
    36     6     7    2
    37    10     8    2
    38     7     8    1
    39     8     9    1
