@<TRIPOS>MOLECULE
2677_out_ligand_01.pdbqt
 37 39 0 0 0
SMALL
GASTEIGER

@<TRIPOS>ATOM
      1  S         22.7610  -21.7010   -9.4870 S.3     1  UNL1       -0.0780
      2  C         22.7080  -23.5330   -9.4620 C.3     1  UNL1        0.1430
      3  C         23.9790  -24.0300   -8.7780 C.3     1  UNL1        0.0310
      4  C         21.4490  -24.0100   -8.7200 C.2     1  UNL1        0.2360
      5  O         21.0710  -25.1780   -8.7800 O.2     1  UNL1       -0.2720
      6  N         20.8020  -22.9910   -8.0430 N.am    1  UNL1       -0.3260
      7  H         21.2650  -22.0800   -8.0600 H       1  UNL1        0.1690
      8  C         19.6080  -23.0560   -7.2960 C.2     1  UNL1        0.0340
      9  C         19.2770  -21.9260   -6.5290 C.2     1  UNL1        0.0310
     10  C         18.1070  -21.8980   -5.7610 C.2     1  UNL1        0.0270
     11  C         17.2600  -23.0080   -5.7620 C.2     1  UNL1        0.0740
     12  C         17.5800  -24.1430   -6.5060 C.2     1  UNL1        0.0270
     13  C         18.7530  -24.1610   -7.2780 C.2     1  UNL1        0.0310
     14  S         15.7940  -22.9930   -4.7780 S.O2    1  UNL1        0.2390
     15  O         14.8020  -22.1550   -5.4100 O.2     1  UNL1       -0.2060
     16  O         15.5030  -24.3340   -4.3310 O.2     1  UNL1       -0.2060
     17  N         16.3000  -22.1580   -3.4130 N.3     1  UNL1       -0.2250
     18  H         16.1370  -21.1570   -3.5430 H       1  UNL1        0.1360
     19  H         17.2690  -22.3970   -3.2040 H       1  UNL1        0.1360
     20  C         23.6710  -21.4280  -10.9800 C.2     1  UNL1        0.1740
     21  N         24.8870  -21.0300  -10.7870 N.am    1  UNL1       -0.1850
     22  C         25.6840  -20.7970  -11.8740 C.2     1  UNL1        0.2720
     23  O         26.8540  -20.4510  -11.7660 O.2     1  UNL1       -0.2660
     24  C         25.1050  -20.9780  -13.2170 C.2     1  UNL1        0.1180
     25  C         23.8420  -21.4040  -13.3670 C.2     1  UNL1        0.0870
     26  N         23.0750  -21.6540  -12.2210 N.pl3   1  UNL1       -0.3160
     27  N         23.3530  -21.5760  -14.6520 N.pl3   1  UNL1       -0.2880
     28  H         22.4850  -22.1070  -14.6900 H       1  UNL1        0.1250
     29  H         23.2160  -20.6870  -15.1300 H       1  UNL1        0.1250
     30  C         21.6540  -22.0580  -12.3380 C.3     1  UNL1        0.1370
     31  C         20.6840  -20.8810  -12.1550 C.3     1  UNL1        0.0590
     32  C         19.3420  -21.2820  -11.5900 C.2     1  UNL1       -0.0570
     33  C         19.1600  -22.5520  -11.0220 C.2     1  UNL1        0.0070
     34  C         17.9310  -22.9050  -10.4610 C.2     1  UNL1        0.0010
     35  C         16.8760  -21.9910  -10.4590 C.2     1  UNL1        0.0000
     36  C         17.0450  -20.7290  -11.0270 C.2     1  UNL1        0.0010
     37  C         18.2720  -20.3760  -11.5910 C.2     1  UNL1        0.0070
@<TRIPOS>BOND
     1    29    27    1
     2    28    27    1
     3    27    25    1
     4    25    24    2
     5    25    26    1
     6    24    22    1
     7    30    26    1
     8    30    31    1
     9    26    20    1
    10    31    32    1
    11    22    23    2
    12    22    21    1
    13    37    32    2
    14    37    36    1
    15    32    33    1
    16    36    35    2
    17    33    34    2
    18    20    21    2
    19    20     1    1
    20    34    35    1
    21     1     2    1
    22     2     3    1
    23     2     4    1
    24     5     4    2
    25     4     6   am
    26     7     6    1
    27     6     8    1
    28     8    13    2
    29     8     9    1
    30    13    12    1
    31     9    10    2
    32    12    11    2
    33    11    10    1
    34    11    14    1
    35    15    14    2
    36    14    16    2
    37    14    17    1
    38    18    17    1
    39    17    19    1
