@<TRIPOS>MOLECULE
26797_out_ligand_01.pdbqt
 35 38 0 0 0
SMALL
GASTEIGER

@<TRIPOS>ATOM
      1  C         21.7150  -22.2940  -11.3010 C.2     1  UNL1        0.0340
      2  C         21.4750  -23.3080  -10.3610 C.2     1  UNL1        0.0310
      3  C         20.2110  -23.4670   -9.7880 C.2     1  UNL1        0.0270
      4  C         19.1780  -22.6030  -10.1530 C.2     1  UNL1        0.0750
      5  C         19.3930  -21.6030  -11.1010 C.2     1  UNL1        0.0270
      6  C         20.6630  -21.4490  -11.6680 C.2     1  UNL1        0.0310
      7  S         17.5640  -22.8200   -9.4380 S.O2    1  UNL1        0.2450
      8  O         16.7850  -23.6150  -10.3620 O.2     1  UNL1       -0.2060
      9  O         17.1110  -21.5340   -8.9540 O.2     1  UNL1       -0.2060
     10  N         17.9670  -23.7420   -8.0570 N.pl3   1  UNL1       -0.1810
     11  H         18.8580  -24.2000   -8.2630 H       1  UNL1        0.1460
     12  C         18.0890  -22.9500   -6.8550 C.2     1  UNL1        0.0340
     13  C         19.1710  -22.0690   -6.7430 C.2     1  UNL1        0.0250
     14  C         19.2960  -21.2600   -5.6180 C.2     1  UNL1        0.0030
     15  C         18.3380  -21.3230   -4.6070 C.2     1  UNL1        0.0120
     16  C         17.2390  -22.1930   -4.7050 C.2     1  UNL1       -0.0240
     17  C         16.2770  -22.2480   -3.6820 C.2     1  UNL1        0.0120
     18  C         17.1000  -23.0220   -5.8440 C.2     1  UNL1       -0.0040
     19  C         15.1850  -23.1100   -3.7700 C.2     1  UNL1        0.0010
     20  C         15.0390  -23.9310   -4.8800 C.2     1  UNL1        0.0010
     21  C         15.9860  -23.8890   -5.9050 C.2     1  UNL1        0.0140
     22  N         23.0190  -22.2070  -11.8310 N.am    1  UNL1       -0.3270
     23  C         24.1450  -21.6800  -11.2190 C.2     1  UNL1        0.2260
     24  O         24.2120  -21.2810  -10.0600 O.2     1  UNL1       -0.2730
     25  H         23.1340  -22.5830  -12.7650 H       1  UNL1        0.1690
     26  C         25.3940  -21.6990  -12.0930 C.3     1  UNL1        0.1440
     27  C         25.2550  -22.4580  -13.3970 C.2     1  UNL1       -0.0160
     28  C         25.6960  -23.7950  -13.4500 C.2     1  UNL1        0.0100
     29  C         25.5410  -24.5580  -14.6120 C.2     1  UNL1        0.0010
     30  C         24.9450  -24.0070  -15.7460 C.2     1  UNL1        0.0020
     31  C         24.5090  -22.6830  -15.7270 C.2     1  UNL1        0.0370
     32  C         24.6750  -21.9180  -14.5630 C.2     1  UNL1        0.1090
     33  N         24.2260  -20.5320  -14.6170 N.pl3   1  UNL1       -0.1150
     34  O         23.0220  -20.3200  -14.4350 O.2     1  UNL1       -0.5320
     35  O         25.0930  -19.6700  -14.8130 O.2     1  UNL1       -0.5320
@<TRIPOS>BOND
     1    30    31    2
     2    30    29    1
     3    31    32    1
     4    35    33    2
     5    33    32    1
     6    33    34    2
     7    29    28    2
     8    32    27    2
     9    28    27    1
    10    27    26    1
    11    25    22    1
    12    26    23    1
    13    22     1    1
    14    22    23   am
    15     6     1    2
    16     6     5    1
    17     1     2    1
    18    23    24    2
    19     5     4    2
    20     8     7    2
    21     2     3    2
    22     4     3    1
    23     4     7    1
    24     7     9    2
    25     7    10    1
    26    11    10    1
    27    10    12    1
    28    12    13    2
    29    12    18    1
    30    13    14    1
    31    21    18    1
    32    21    20    2
    33    18    16    2
    34    14    15    2
    35    20    19    1
    36    16    15    1
    37    16    17    1
    38    19    17    2
