@<TRIPOS>MOLECULE
26810_out_ligand_01.pdbqt
 32 36 0 0 0
SMALL
GASTEIGER

@<TRIPOS>ATOM
      1  N         20.0150  -20.3670   -5.4050 N.1     1  UNL1       -0.1910
      2  C         19.2750  -21.1870   -5.7630 C.1     1  UNL1        0.1030
      3  C         18.4090  -22.2200   -6.2450 C.ar    1  UNL1        0.0850
      4  C         18.7040  -22.9890   -7.3580 C.ar    1  UNL1        0.0980
      5  S         17.4840  -24.1370   -7.6580 S.2     1  UNL1       -0.0750
      6  C         16.5530  -23.6090   -6.3400 C.ar    1  UNL1       -0.0070
      7  C         17.1570  -22.5780   -5.6460 C.ar    1  UNL1       -0.0210
      8  C         16.5060  -21.9480   -4.4470 C.3     1  UNL1        0.0410
      9  C         15.3720  -22.8210   -3.8860 C.3     1  UNL1        0.0050
     10  C         14.4670  -23.3620   -5.0020 C.3     1  UNL1        0.0050
     11  C         15.2460  -24.2460   -5.9870 C.3     1  UNL1        0.0470
     12  N         19.8380  -22.9010   -8.1580 N.am    1  UNL1       -0.3160
     13  C         19.8840  -22.5460   -9.4950 C.2     1  UNL1        0.2560
     14  O         18.9620  -22.1810  -10.2110 O.2     1  UNL1       -0.2670
     15  H         20.7240  -23.0430   -7.6870 H       1  UNL1        0.1690
     16  C         21.2500  -22.5870  -10.0950 C.2     1  UNL1        0.0330
     17  C         22.2960  -23.1240   -9.3340 C.2     1  UNL1        0.0180
     18  C         23.5880  -23.1880   -9.8630 C.2     1  UNL1        0.0190
     19  C         23.8450  -22.6920  -11.1460 C.2     1  UNL1        0.0450
     20  C         22.8080  -22.1240  -11.9000 C.2     1  UNL1       -0.0380
     21  C         25.2180  -22.8020  -11.7100 C.2     1  UNL1        0.2940
     22  C         21.5080  -22.0780  -11.3760 C.2     1  UNL1        0.0250
     23  C         23.1170  -21.6060  -13.2770 C.3     1  UNL1        0.0770
     24  C         24.5550  -21.0820  -13.2830 C.3     1  UNL1        0.1690
     25  O         25.4500  -22.1400  -12.8710 O.3     1  UNL1       -0.3070
     26  O         26.0750  -23.4820  -11.1640 O.2     1  UNL1       -0.2590
     27  C         25.0640  -20.5430  -14.6100 C.2     1  UNL1       -0.0290
     28  C         24.7740  -21.1300  -15.8500 C.2     1  UNL1        0.0100
     29  C         25.2620  -20.5740  -17.0370 C.2     1  UNL1        0.0010
     30  C         26.0450  -19.4230  -17.0040 C.2     1  UNL1        0.0000
     31  C         26.3450  -18.8260  -15.7840 C.2     1  UNL1        0.0010
     32  C         25.8580  -19.3810  -14.5980 C.2     1  UNL1        0.0100
@<TRIPOS>BOND
     1    29    30    2
     2    29    28    1
     3    30    31    1
     4    28    27    2
     5    31    32    2
     6    27    32    1
     7    27    24    1
     8    24    23    1
     9    24    25    1
    10    23    20    1
    11    25    21    1
    12    20    22    1
    13    20    19    2
    14    21    26    2
    15    21    19    1
    16    22    16    2
    17    19    18    1
    18    14    13    2
    19    16    13    1
    20    16    17    1
    21    18    17    2
    22    13    12   am
    23    12    15    1
    24    12     4    1
    25     5     4   ar
    26     5     6   ar
    27     4     3   ar
    28     6    11    1
    29     6     7   ar
    30     3     2    1
    31     3     7   ar
    32    11    10    1
    33     2     1    3
    34     7     8    1
    35    10     9    1
    36     8     9    1
