@<TRIPOS>MOLECULE
26813_out_ligand_01.pdbqt
 35 37 0 0 0
SMALL
GASTEIGER

@<TRIPOS>ATOM
      1  C         21.0440  -23.2850   -8.8360 C.2     1  UNL1        0.0340
      2  C         20.1210  -24.3360   -8.7220 C.2     1  UNL1        0.0310
      3  C         19.1310  -24.3150   -7.7360 C.2     1  UNL1        0.0270
      4  C         19.0650  -23.2350   -6.8550 C.2     1  UNL1        0.0750
      5  C         19.9630  -22.1730   -6.9650 C.2     1  UNL1        0.0270
      6  C         20.9530  -22.2050   -7.9540 C.2     1  UNL1        0.0310
      7  S         17.7980  -23.2070   -5.6100 S.O2    1  UNL1        0.2450
      8  O         17.2430  -24.5390   -5.4990 O.2     1  UNL1       -0.2060
      9  O         18.3260  -22.4930   -4.4690 O.2     1  UNL1       -0.2060
     10  N         16.6170  -22.2560   -6.3990 N.pl3   1  UNL1       -0.1810
     11  H         16.8990  -21.2810   -6.2780 H       1  UNL1        0.1460
     12  C         16.4650  -22.5690   -7.7890 C.2     1  UNL1        0.0230
     13  C         15.6890  -23.6590   -8.1850 C.2     1  UNL1        0.0240
     14  C         15.5080  -23.9230   -9.5420 C.2     1  UNL1        0.0030
     15  C         16.0920  -23.0910  -10.4990 C.2     1  UNL1        0.0160
     16  C         16.8570  -21.9790  -10.1100 C.2     1  UNL1        0.0490
     17  C         17.0320  -21.7220   -8.7420 C.2     1  UNL1        0.0400
     18  C         17.4640  -21.0760  -11.1530 C.3     1  UNL1        0.4170
     19  F         16.8930  -19.8390  -11.1620 F       1  UNL1       -0.1660
     20  F         18.7940  -20.8690  -10.9550 F       1  UNL1       -0.1660
     21  F         17.3420  -21.5480  -12.4250 F       1  UNL1       -0.1660
     22  N         22.0070  -23.3900   -9.8580 N.am    1  UNL1       -0.3270
     23  C         22.2720  -22.4820  -10.8670 C.2     1  UNL1        0.2260
     24  O         21.7340  -21.3890  -11.0270 O.2     1  UNL1       -0.2730
     25  H         22.6160  -24.2070   -9.8080 H       1  UNL1        0.1690
     26  C         23.3650  -22.9500  -11.8190 C.3     1  UNL1        0.1440
     27  C         24.4260  -21.8960  -12.0530 C.2     1  UNL1       -0.0160
     28  C         25.3810  -21.6860  -11.0410 C.2     1  UNL1        0.0100
     29  C         26.3780  -20.7160  -11.1790 C.2     1  UNL1        0.0010
     30  C         26.4460  -19.9320  -12.3290 C.2     1  UNL1        0.0020
     31  C         25.5210  -20.1230  -13.3530 C.2     1  UNL1        0.0370
     32  C         24.5260  -21.1050  -13.2140 C.2     1  UNL1        0.1090
     33  N         23.6080  -21.2770  -14.3350 N.pl3   1  UNL1       -0.1150
     34  O         23.9300  -22.0810  -15.2190 O.2     1  UNL1       -0.5320
     35  O         22.5600  -20.6120  -14.3210 O.2     1  UNL1       -0.5320
@<TRIPOS>BOND
     1    34    33    2
     2    33    35    2
     3    33    32    1
     4    31    32    1
     5    31    30    2
     6    32    27    2
     7    21    18    1
     8    30    29    1
     9    27    26    1
    10    27    28    1
    11    26    23    1
    12    29    28    2
    13    19    18    1
    14    18    20    1
    15    18    16    1
    16    24    23    2
    17    23    22   am
    18    15    16    2
    19    15    14    1
    20    16    17    1
    21    22    25    1
    22    22     1    1
    23    14    13    2
    24     1     2    2
    25     1     6    1
    26    17    12    2
    27     2     3    1
    28    13    12    1
    29     6     5    2
    30    12    10    1
    31     3     4    2
    32     5     4    1
    33     4     7    1
    34    10    11    1
    35    10     7    1
    36     7     8    2
    37     7     9    2
