@<TRIPOS>MOLECULE
26833_out_ligand_01.pdbqt
 28 30 0 0 0
SMALL
GASTEIGER

@<TRIPOS>ATOM
      1  C         20.9440  -22.4800  -10.4380 C.2     1  UNL1       -0.0190
      2  C         20.4250  -22.0280  -11.6610 C.2     1  UNL1        0.0100
      3  C         19.0820  -21.6690  -11.7800 C.2     1  UNL1        0.0030
      4  C         18.2260  -21.7550  -10.6810 C.2     1  UNL1        0.0290
      5  C         18.7050  -22.2020   -9.4540 C.2     1  UNL1        0.0350
      6  C         20.0560  -22.5650   -9.3450 C.2     1  UNL1        0.0390
      7  N         17.9160  -22.3110   -8.2890 N.am    1  UNL1       -0.3230
      8  C         17.8210  -23.3930   -7.4380 C.2     1  UNL1        0.2570
      9  O         18.4500  -24.4420   -7.4950 O.2     1  UNL1       -0.2670
     10  H         17.3330  -21.5100   -8.0790 H       1  UNL1        0.1690
     11  C         16.9000  -23.2080   -6.2860 C.2     1  UNL1        0.0520
     12  C         15.6920  -23.9200   -6.3420 C.2     1  UNL1        0.0600
     13  C         14.7780  -23.8100   -5.3020 C.2     1  UNL1        0.1170
     14  F         13.6330  -24.5010   -5.3550 F       1  UNL1       -0.2060
     15  C         15.0350  -22.9960   -4.2060 C.2     1  UNL1        0.0430
     16  C         16.2250  -22.2690   -4.1520 C.2     1  UNL1        0.0230
     17  C         17.1590  -22.3680   -5.1930 C.2     1  UNL1        0.0260
     18 BR         18.7110  -21.2820   -5.0520 Br      1  UNL1       -0.0500
     19  C         22.4000  -22.9020  -10.2770 C.3     1  UNL1        0.1390
     20  C         22.5850  -23.9070   -9.1390 C.3     1  UNL1        0.0540
     21  N         22.9830  -23.4240  -11.4990 N.am    1  UNL1       -0.3210
     22  C         24.0440  -22.6820  -11.9480 C.2     1  UNL1        0.3240
     23  H         22.7170  -24.2840  -11.9590 H       1  UNL1        0.1650
     24  O         24.7220  -22.9530  -12.9210 O.2     1  UNL1       -0.2470
     25  N         24.2200  -21.6310  -11.1190 N.am    1  UNL1       -0.2770
     26  C         23.3520  -21.6940  -10.0730 C.2     1  UNL1        0.2580
     27  H         24.9630  -20.9610  -11.2100 H       1  UNL1        0.1730
     28  O         23.3610  -20.9210   -9.1240 O.2     1  UNL1       -0.2700
@<TRIPOS>BOND
     1    24    22    2
     2    23    21    1
     3    22    21   am
     4    22    25   am
     5     3     2    1
     6     3     4    2
     7     2     1    2
     8    21    19    1
     9    27    25    1
    10    25    26   am
    11     4     5    1
    12     1    19    1
    13     1     6    1
    14    19    26    1
    15    19    20    1
    16    26    28    2
    17     5     6    2
    18     5     7    1
    19     7    10    1
    20     7     8   am
    21     9     8    2
    22     8    11    1
    23    12    11    2
    24    12    13    1
    25    11    17    1
    26    14    13    1
    27    13    15    2
    28    17    18    1
    29    17    16    2
    30    15    16    1
