@<TRIPOS>MOLECULE
26830_out_ligand_01.pdbqt
 35 38 0 0 0
SMALL
GASTEIGER

@<TRIPOS>ATOM
      1  C         18.8070  -22.4150  -10.4900 C.2     1  UNL1       -0.0340
      2  C         18.2870  -21.3460  -11.2370 C.2     1  UNL1        0.0090
      3  C         19.1210  -20.5420  -12.0100 C.2     1  UNL1        0.0030
      4  C         20.4930  -20.7940  -12.0550 C.2     1  UNL1        0.0290
      5  C         21.0390  -21.8530  -11.3330 C.2     1  UNL1        0.0350
      6  C         20.1890  -22.6630  -10.5610 C.2     1  UNL1        0.0380
      7  C         17.8410  -23.2610   -9.6750 C.3     1  UNL1        0.1120
      8  C         16.5280  -22.5740   -9.2970 C.3     1  UNL1        0.0370
      9  N         18.5300  -23.6790   -8.4630 N.pl3   1  UNL1       -0.3650
     10  H         19.1780  -24.4480   -8.5780 H       1  UNL1        0.1620
     11  C         18.4940  -22.9930   -7.2750 C.2     1  UNL1        0.1440
     12  C         19.5780  -21.9880   -7.0150 C.2     1  UNL1        0.0560
     13  C         19.5730  -21.3140   -5.8570 C.2     1  UNL1        0.0580
     14  C         18.5520  -21.5740   -4.9250 C.ar    1  UNL1        0.1750
     15  N         18.2910  -21.0920   -3.7300 N.ar    1  UNL1       -0.1280
     16  N         17.6050  -22.5150   -5.2670 N.ar    1  UNL1       -0.1880
     17  N         17.1570  -21.7200   -3.2670 N.ar    1  UNL1       -0.1230
     18  C         16.7540  -22.5720   -4.1970 C.ar    1  UNL1        0.2580
     19  N         17.5380  -23.2390   -6.4190 N.2     1  UNL1       -0.1460
     20  C         15.6070  -23.4890   -4.1890 C.3     1  UNL1        0.4540
     21  F         14.4200  -22.8340   -4.0920 F       1  UNL1       -0.1630
     22  F         15.6490  -24.3740   -3.1590 F       1  UNL1       -0.1630
     23  F         15.5320  -24.2350   -5.3230 F       1  UNL1       -0.1630
     24  N         22.4110  -22.1750  -11.3250 N.am    1  UNL1       -0.3270
     25  C         23.3650  -21.7930  -10.3950 C.2     1  UNL1        0.2260
     26  O         23.1830  -21.0900   -9.4040 O.2     1  UNL1       -0.2730
     27  H         22.7210  -22.8220  -12.0420 H       1  UNL1        0.1690
     28  C         24.7480  -22.3390  -10.7130 C.3     1  UNL1        0.1440
     29  C         25.5360  -21.4300  -11.6150 C.2     1  UNL1       -0.0110
     30  C         26.2770  -20.3620  -11.0940 C.2     1  UNL1        0.0110
     31  C         27.0140  -19.5340  -11.9460 C.2     1  UNL1        0.0010
     32  C         27.0250  -19.7700  -13.3210 C.2     1  UNL1        0.0030
     33  C         26.3030  -20.8400  -13.8460 C.2     1  UNL1        0.0430
     34  C         25.5720  -21.6590  -12.9930 C.2     1  UNL1        0.1230
     35  F         24.9000  -22.7000  -13.5060 F       1  UNL1       -0.2060
@<TRIPOS>BOND
     1    33    32    2
     2    33    34    1
     3    35    34    1
     4    32    31    1
     5    34    29    2
     6     4     3    2
     7     4     5    1
     8    27    24    1
     9     3     2    1
    10    31    30    2
    11    29    30    1
    12    29    28    1
    13     5    24    1
    14     5     6    2
    15    24    25   am
    16     2     1    2
    17    28    25    1
    18     6     1    1
    19     1     7    1
    20    25    26    2
    21     7     8    1
    22     7     9    1
    23    10     9    1
    24     9    11    1
    25    11    12    1
    26    11    19    2
    27    12    13    2
    28    19    16    1
    29    13    14    1
    30    23    20    1
    31    16    14   ar
    32    16    18   ar
    33    14    15   ar
    34    18    20    1
    35    18    17   ar
    36    20    21    1
    37    20    22    1
    38    15    17   ar
