@<TRIPOS>MOLECULE
26838_out_ligand_01.pdbqt
 29 31 0 0 0
SMALL
GASTEIGER

@<TRIPOS>ATOM
      1  C         18.4920  -22.8330   -9.4780 C.2     1  UNL1        0.0350
      2  C         17.3070  -22.6960  -10.2060 C.2     1  UNL1        0.0290
      3  C         16.0730  -22.7670   -9.5650 C.2     1  UNL1        0.0030
      4  C         16.0120  -22.9710   -8.1860 C.2     1  UNL1        0.0100
      5  C         17.1850  -23.1010   -7.4200 C.2     1  UNL1       -0.0190
      6  C         18.4210  -23.0350   -8.0950 C.2     1  UNL1        0.0390
      7  N         19.7000  -22.7580  -10.2030 N.am    1  UNL1       -0.3230
      8  C         20.1960  -21.6800  -10.9110 C.2     1  UNL1        0.2570
      9  O         19.6590  -20.5900  -11.0720 O.2     1  UNL1       -0.2670
     10  H         20.2790  -23.5880  -10.1750 H       1  UNL1        0.1690
     11  C         21.4900  -21.9190  -11.6010 C.2     1  UNL1        0.0520
     12  C         22.5230  -22.7170  -11.0920 C.2     1  UNL1        0.0260
     13  C         23.6960  -22.8860  -11.8340 C.2     1  UNL1        0.0230
     14 BR         22.4570  -23.5620   -9.3920 Br      1  UNL1       -0.0500
     15  C         23.8400  -22.2540  -13.0710 C.2     1  UNL1        0.0380
     16  C         22.8280  -21.4360  -13.5770 C.2     1  UNL1        0.0690
     17  C         21.6560  -21.2700  -12.8410 C.2     1  UNL1        0.0550
     18  O         23.1040  -20.8690  -14.7880 O.2     1  UNL1       -0.3560
     19  C         24.4590  -20.9040  -15.2240 C.3     1  UNL1        0.2100
     20  C         17.0970  -23.3330   -5.9140 C.3     1  UNL1        0.1390
     21  C         17.7550  -24.6060   -5.3690 C.3     1  UNL1        0.0540
     22  N         15.7120  -23.2860   -5.4790 N.am    1  UNL1       -0.3210
     23  C         15.4760  -22.2920   -4.5640 C.2     1  UNL1        0.3240
     24  H         14.9610  -23.8380   -5.8700 H       1  UNL1        0.1650
     25  O         14.3890  -22.0160   -4.0920 O.2     1  UNL1       -0.2470
     26  N         16.6410  -21.6560   -4.3060 N.am    1  UNL1       -0.2770
     27  C         17.6440  -22.1410   -5.0900 C.2     1  UNL1        0.2580
     28  H         16.7250  -20.8580   -3.7000 H       1  UNL1        0.1730
     29  O         18.7830  -21.6920   -5.1100 O.2     1  UNL1       -0.2700
@<TRIPOS>BOND
     1    19    18    1
     2    18    16    1
     3    16    15    2
     4    16    17    1
     5    15    13    1
     6    17    11    2
     7    13    12    2
     8    11    12    1
     9    11     8    1
    10    12    14    1
    11     9     8    2
    12     8     7   am
    13     2     3    1
    14     2     1    2
    15     7    10    1
    16     7     1    1
    17     3     4    2
    18     1     6    1
    19     4     5    1
    20     6     5    2
    21     5    20    1
    22    20    22    1
    23    20    21    1
    24    20    27    1
    25    24    22    1
    26    22    23   am
    27    29    27    2
    28    27    26   am
    29    23    26   am
    30    23    25    2
    31    26    28    1
