@<TRIPOS>MOLECULE
26862_out_ligand_01.pdbqt
 39 43 0 0 0
SMALL
GASTEIGER

@<TRIPOS>ATOM
      1  O         20.8780  -21.6610  -11.7790 O.2     1  UNL1       -0.2670
      2  C         21.1390  -22.3590  -10.8050 C.2     1  UNL1        0.2560
      3  N         22.4000  -22.7280  -10.3710 N.am    1  UNL1       -0.3230
      4  H         22.4600  -23.2120   -9.4850 H       1  UNL1        0.1690
      5  C         20.0030  -22.8480   -9.9670 C.2     1  UNL1        0.0320
      6  C         20.2960  -23.6800   -8.8750 C.2     1  UNL1        0.0180
      7  C         19.2750  -24.1550   -8.0500 C.2     1  UNL1        0.0260
      8  C         17.9530  -23.7970   -8.3250 C.2     1  UNL1        0.0800
      9  C         17.6470  -22.9500   -9.3950 C.2     1  UNL1        0.0260
     10  C         18.6730  -22.4720  -10.2150 C.2     1  UNL1        0.0180
     11  S         16.6290  -24.3660   -7.2690 S.O2    1  UNL1        0.2650
     12  O         17.2660  -25.2060   -6.2760 O.2     1  UNL1       -0.2000
     13  O         15.5820  -24.8870   -8.1240 O.2     1  UNL1       -0.2000
     14  N         16.0800  -22.8890   -6.5570 N.pl3   1  UNL1       -0.2710
     15  C         14.6830  -22.9120   -6.0330 C.3     1  UNL1        0.1420
     16  C         14.6430  -23.3920   -4.5910 C.3     1  UNL1        0.0260
     17  C         15.4570  -22.4660   -3.7030 C.3     1  UNL1        0.0420
     18  C         16.7780  -22.0790   -4.3120 C.2     1  UNL1       -0.0310
     19  C         17.7390  -21.4630   -3.4930 C.2     1  UNL1        0.0090
     20  C         17.0420  -22.2410   -5.6830 C.2     1  UNL1        0.0510
     21  C         18.9460  -21.0140   -4.0260 C.2     1  UNL1        0.0010
     22  C         19.1970  -21.1580   -5.3860 C.2     1  UNL1        0.0020
     23  C         18.2460  -21.7620   -6.2100 C.2     1  UNL1        0.0310
     24  C         23.6380  -22.4140  -10.9740 C.2     1  UNL1        0.0360
     25  C         24.5030  -21.4160  -10.5140 C.2     1  UNL1        0.0290
     26  C         25.7270  -21.1810  -11.1510 C.2     1  UNL1        0.0040
     27  C         26.0940  -21.9290  -12.2660 C.2     1  UNL1        0.0250
     28  C         25.2180  -22.8980  -12.7520 C.2     1  UNL1        0.0810
     29  C         24.0050  -23.1580  -12.1010 C.2     1  UNL1        0.0540
     30  S         25.6760  -23.8760  -14.1680 S.O2    1  UNL1        0.2600
     31  O         24.8550  -25.0690  -14.1490 O.2     1  UNL1       -0.2000
     32  O         27.1210  -23.9660  -14.1900 O.2     1  UNL1       -0.2000
     33  N         25.1780  -22.9110  -15.4800 N.3     1  UNL1       -0.3070
     34  C         24.3260  -23.5560  -16.5070 C.3     1  UNL1        0.1350
     35  C         24.7280  -23.1100  -17.9090 C.3     1  UNL1        0.0210
     36  C         24.6670  -21.6000  -18.1530 C.3     1  UNL1        0.0020
     37  C         25.8020  -20.8410  -17.4670 C.3     1  UNL1        0.0020
     38  C         25.5980  -20.5290  -15.9830 C.3     1  UNL1        0.0210
     39  C         24.7670  -21.5210  -15.1770 C.3     1  UNL1        0.1350
@<TRIPOS>BOND
     1    36    35    1
     2    36    37    1
     3    35    34    1
     4    37    38    1
     5    34    33    1
     6    38    39    1
     7    33    39    1
     8    33    30    1
     9    32    30    2
    10    30    31    2
    11    30    28    1
    12    28    27    2
    13    28    29    1
    14    27    26    1
    15    29    24    2
    16     1     2    2
    17    26    25    2
    18    24    25    1
    19    24     3    1
    20     2     3   am
    21     2     5    1
    22     3     4    1
    23    10     5    2
    24    10     9    1
    25     5     6    1
    26     9     8    2
    27     6     7    2
    28     8     7    1
    29     8    11    1
    30    13    11    2
    31    11    14    1
    32    11    12    2
    33    14    15    1
    34    14    20    1
    35    23    20    1
    36    23    22    2
    37    15    16    1
    38    20    18    2
    39    22    21    1
    40    16    17    1
    41    18    17    1
    42    18    19    1
    43    21    19    2
