@<TRIPOS>MOLECULE
26864_out_ligand_01.pdbqt
 33 35 0 0 0
SMALL
GASTEIGER

@<TRIPOS>ATOM
      1  C         16.6980  -21.5840  -10.3200 C.3     1  UNL1        0.0500
      2  C         18.1580  -21.7970  -10.6000 C.2     1  UNL1       -0.0390
      3  C         18.7360  -21.1170  -11.6820 C.2     1  UNL1        0.0100
      4  C         20.0940  -21.2650  -11.9920 C.2     1  UNL1        0.0300
      5  C         20.9130  -22.0840  -11.2230 C.2     1  UNL1        0.0360
      6  C         20.3550  -22.7590  -10.1360 C.2     1  UNL1        0.0550
      7  C         18.9880  -22.6290   -9.8300 C.2     1  UNL1        0.0870
      8  N         22.2850  -22.2880  -11.4690 N.am    1  UNL1       -0.3270
      9  C         23.3570  -21.8280  -10.7250 C.2     1  UNL1        0.2260
     10  O         23.3000  -21.1530   -9.6990 O.2     1  UNL1       -0.2730
     11  H         22.5090  -22.8770  -12.2700 H       1  UNL1        0.1690
     12  C         24.7040  -22.2520  -11.2950 C.3     1  UNL1        0.1440
     13  C         25.3800  -21.1470  -12.0750 C.2     1  UNL1       -0.0160
     14  C         26.3080  -20.3370  -11.3970 C.2     1  UNL1        0.0100
     15  C         26.9640  -19.2910  -12.0490 C.2     1  UNL1        0.0010
     16  C         26.7120  -19.0270  -13.3930 C.2     1  UNL1        0.0020
     17  C         25.8050  -19.8140  -14.0940 C.2     1  UNL1        0.0370
     18  C         25.1520  -20.8700  -13.4380 C.2     1  UNL1        0.1090
     19  N         24.2270  -21.6690  -14.2370 N.pl3   1  UNL1       -0.1150
     20  O         23.0540  -21.2740  -14.3170 O.2     1  UNL1       -0.5320
     21  O         24.6740  -22.6900  -14.7720 O.2     1  UNL1       -0.5320
     22  S         18.3650  -23.5720   -8.4500 S.O2    1  UNL1        0.2630
     23  O         17.0360  -24.0510   -8.7660 O.2     1  UNL1       -0.2000
     24  O         19.3990  -24.4970   -8.0340 O.2     1  UNL1       -0.2000
     25  N         18.2430  -22.4110   -7.2230 N.pl3   1  UNL1       -0.2810
     26  H         19.1710  -22.1520   -6.8860 H       1  UNL1        0.1790
     27  C         17.2120  -22.5670   -6.2550 C.2     1  UNL1        0.0440
     28  C         17.4360  -23.3710   -5.1380 C.2     1  UNL1        0.0300
     29  C         16.4190  -23.5660   -4.2020 C.2     1  UNL1        0.0040
     30  C         15.1770  -22.9600   -4.3910 C.2     1  UNL1        0.0240
     31  C         14.9580  -22.1660   -5.5160 C.2     1  UNL1        0.0360
     32 CL         13.4220  -21.4250   -5.7500 Cl      1  UNL1       -0.0840
     33  C         15.9690  -21.9690   -6.4530 C.2     1  UNL1        0.0540
@<TRIPOS>BOND
     1    21    19    2
     2    20    19    2
     3    19    18    1
     4    17    18    1
     5    17    16    2
     6    18    13    2
     7    16    15    1
     8    11     8    1
     9    13    14    1
    10    13    12    1
    11    15    14    2
    12     4     3    1
    13     4     5    2
    14     3     2    2
    15     8     5    1
    16     8     9   am
    17    12     9    1
    18     5     6    1
    19     9    10    2
    20     2     1    1
    21     2     7    1
    22     6     7    2
    23     7    22    1
    24    23    22    2
    25    22    24    2
    26    22    25    1
    27    25    26    1
    28    25    27    1
    29    33    27    2
    30    33    31    1
    31    27    28    1
    32    32    31    1
    33    31    30    2
    34    28    29    2
    35    30    29    1
