@<TRIPOS>MOLECULE
26877_out_ligand_01.pdbqt
 28 31 0 0 0
SMALL
GASTEIGER

@<TRIPOS>ATOM
      1  C         16.8320  -22.8650   -7.4170 C.2     1  UNL1        0.0120
      2  C         15.6160  -22.8790   -8.1060 C.2     1  UNL1        0.0150
      3  C         15.6140  -22.8780   -9.5010 C.2     1  UNL1        0.0030
      4  C         16.8180  -22.8570  -10.2110 C.2     1  UNL1        0.0290
      5  C         18.0390  -22.8290   -9.5350 C.2     1  UNL1        0.0350
      6  C         18.0370  -22.8270   -8.1350 C.2     1  UNL1        0.0440
      7  N         19.2940  -22.7880  -10.1770 N.am    1  UNL1       -0.3230
      8  C         19.8260  -21.7460  -10.9170 C.2     1  UNL1        0.2560
      9  O         19.2680  -20.6970  -11.2140 O.2     1  UNL1       -0.2670
     10  H         19.8330  -23.6440  -10.1410 H       1  UNL1        0.1690
     11  C         21.2070  -21.9840  -11.4250 C.2     1  UNL1        0.0320
     12  C         22.1160  -22.8040  -10.7240 C.2     1  UNL1        0.0170
     13  C         23.4050  -23.0230  -11.2200 C.2     1  UNL1        0.0090
     14  C         23.7700  -22.3980  -12.4000 C.2     1  UNL1       -0.0520
     15  C         22.8770  -21.5700  -13.0880 C.2     1  UNL1       -0.0510
     16  C         25.0700  -22.5020  -13.1350 C.3     1  UNL1        0.0390
     17  C         21.5940  -21.3520  -12.6150 C.2     1  UNL1        0.0240
     18  C         23.4960  -21.0420  -14.3450 C.3     1  UNL1        0.0390
     19  C         24.9870  -21.2820  -14.0650 C.3     1  UNL1        0.0090
     20  C         16.8940  -22.8650   -5.9290 C.2     1  UNL1        0.1410
     21  N         16.0580  -23.7350   -5.2710 N.am    1  UNL1       -0.3070
     22  C         16.0490  -23.8490   -3.9140 C.2     1  UNL1        0.2480
     23  H         15.4690  -24.3900   -5.7610 H       1  UNL1        0.1700
     24  C         16.9560  -22.9420   -3.2020 C.2     1  UNL1        0.1010
     25  O         15.3420  -24.6530   -3.3180 O.2     1  UNL1       -0.2680
     26  C         17.7310  -22.1270   -3.9290 C.2     1  UNL1        0.0380
     27  C         18.6880  -21.1760   -3.2690 C.3     1  UNL1        0.0700
     28  N         17.7200  -22.0860   -5.3040 N.2     1  UNL1       -0.2350
@<TRIPOS>BOND
     1    18    19    1
     2    18    15    1
     3    19    16    1
     4    16    14    1
     5    15    17    1
     6    15    14    2
     7    17    11    2
     8    14    13    1
     9    11     8    1
    10    11    12    1
    11    13    12    2
    12     9     8    2
    13     8     7   am
    14     4     5    2
    15     4     3    1
    16     7    10    1
    17     7     5    1
    18     5     6    1
    19     3     2    2
    20     6     1    2
    21     2     1    1
    22     1    20    1
    23    20    28    2
    24    20    21    1
    25    23    21    1
    26    28    26    1
    27    21    22   am
    28    26    27    1
    29    26    24    2
    30    22    25    2
    31    22    24    1
