@<TRIPOS>MOLECULE
26884_out_ligand_01.pdbqt
 42 46 0 0 0
SMALL
GASTEIGER

@<TRIPOS>ATOM
      1  C         23.2510  -22.0780  -12.4900 C.2     1  UNL1        0.0360
      2  C         22.1700  -21.4070  -13.0670 C.2     1  UNL1        0.0320
      3  C         20.9110  -21.3980  -12.4480 C.2     1  UNL1        0.0330
      4  C         20.6740  -22.0740  -11.2370 C.2     1  UNL1        0.0530
      5  C         21.7780  -22.7580  -10.6760 C.2     1  UNL1        0.1030
      6  C         23.0450  -22.7600  -11.2950 C.2     1  UNL1        0.0560
      7  N         24.4960  -21.9810  -13.1480 N.am    1  UNL1       -0.3260
      8  C         25.2540  -23.0160  -13.6670 C.2     1  UNL1        0.2420
      9  O         24.8980  -24.1840  -13.7990 O.2     1  UNL1       -0.2710
     10  H         24.8870  -21.0460  -13.2230 H       1  UNL1        0.1690
     11  C         26.6380  -22.5780  -14.1400 C.3     1  UNL1        0.2550
     12  N         26.5310  -21.3550  -14.9160 N.ar    1  UNL1       -0.2450
     13  N         25.9860  -21.5050  -16.1940 N.ar    1  UNL1       -0.2600
     14  C         25.7820  -20.4440  -17.0420 C.ar    1  UNL1        0.2710
     15  H         25.4930  -22.3710  -16.4210 H       1  UNL1        0.1900
     16  O         25.2360  -20.5830  -18.1320 O.2     1  UNL1       -0.2660
     17  C         26.2310  -19.1190  -16.5720 C.ar    1  UNL1        0.0490
     18  C         26.1590  -18.0150  -17.4350 C.2     1  UNL1        0.0180
     19  C         26.6930  -18.9530  -15.2650 C.ar    1  UNL1        0.0490
     20  C         26.5540  -16.7510  -16.9900 C.2     1  UNL1        0.0010
     21  C         27.0130  -16.5820  -15.6820 C.2     1  UNL1        0.0010
     22  C         27.0800  -17.6790  -14.8190 C.2     1  UNL1        0.0180
     23  C         26.7910  -20.1180  -14.3570 C.ar    1  UNL1        0.2730
     24  O         27.1170  -19.9730  -13.1780 O.2     1  UNL1       -0.2660
     25  S         21.6180  -23.7130   -9.1770 S.O2    1  UNL1        0.2480
     26  O         22.9500  -24.1050   -8.7600 O.2     1  UNL1       -0.2050
     27  O         20.6020  -24.7260   -9.3740 O.2     1  UNL1       -0.2050
     28  N         21.0470  -22.5820   -8.0480 N.pl3   1  UNL1       -0.1810
     29  H         21.1480  -21.6640   -8.4850 H       1  UNL1        0.1460
     30  C         19.8030  -22.7780   -7.3640 C.2     1  UNL1        0.0220
     31  C         19.3540  -21.7290   -6.5500 C.2     1  UNL1        0.0260
     32  C         18.1740  -21.8520   -5.8090 C.2     1  UNL1        0.0260
     33  C         17.4550  -23.0450   -5.8490 C.2     1  UNL1        0.0340
     34 CL         15.9940  -23.2010   -4.9490 Cl      1  UNL1       -0.0840
     35  C         17.9210  -24.1180   -6.6050 C.2     1  UNL1        0.0260
     36  C         19.1060  -23.9900   -7.3430 C.2     1  UNL1        0.0260
     37  N         19.4100  -22.0240  -10.6160 N.pl3   1  UNL1       -0.3800
     38  C         18.7690  -20.6880  -10.7320 C.3     1  UNL1        0.1230
     39  C         17.4080  -20.7710  -11.4250 C.3     1  UNL1        0.0200
     40  C         16.4660  -21.7180  -10.6820 C.3     1  UNL1        0.0030
     41  C         17.1950  -22.9310  -10.0940 C.3     1  UNL1        0.0200
     42  C         18.5160  -23.1840  -10.8170 C.3     1  UNL1        0.1230
@<TRIPOS>BOND
     1    16    14    2
     2    18    20    1
     3    18    17    2
     4    14    17   ar
     5    14    13   ar
     6    20    21    2
     7    17    19   ar
     8    15    13    1
     9    13    12   ar
    10    21    22    1
    11    19    22    2
    12    19    23   ar
    13    12    23   ar
    14    12    11    1
    15    23    24    2
    16    11     8    1
    17     9     8    2
    18     8     7   am
    19    10     7    1
    20     7     1    1
    21     2     1    2
    22     2     3    1
    23     1     6    1
    24     3     4    2
    25    39    38    1
    26    39    40    1
    27     6     5    2
    28     4     5    1
    29     4    37    1
    30    42    37    1
    31    42    41    1
    32    38    37    1
    33    40    41    1
    34     5    25    1
    35    27    25    2
    36    25    26    2
    37    25    28    1
    38    29    28    1
    39    28    30    1
    40    30    36    2
    41    30    31    1
    42    36    35    1
    43    35    33    2
    44    31    32    2
    45    33    32    1
    46    33    34    1
