@<TRIPOS>MOLECULE
26888_out_ligand_01.pdbqt
 31 33 0 0 0
SMALL
GASTEIGER

@<TRIPOS>ATOM
      1  C         15.2380  -22.2840   -9.7740 C.3     1  UNL1        0.0500
      2  C         16.7310  -22.4340   -9.8520 C.2     1  UNL1       -0.0390
      3  C         17.4240  -21.7310  -10.8480 C.2     1  UNL1        0.0100
      4  C         18.8180  -21.8070  -10.9590 C.2     1  UNL1        0.0300
      5  C         19.5600  -22.5790  -10.0680 C.2     1  UNL1        0.0360
      6  C         18.8860  -23.2780   -9.0640 C.2     1  UNL1        0.0540
      7  C         17.4840  -23.2130   -8.9570 C.2     1  UNL1        0.0830
      8  N         20.9640  -22.7090  -10.1120 N.am    1  UNL1       -0.3230
      9  C         21.8560  -22.5040   -9.0770 C.2     1  UNL1        0.2570
     10  O         21.5950  -22.2240   -7.9140 O.2     1  UNL1       -0.2670
     11  H         21.3520  -23.0410  -10.9870 H       1  UNL1        0.1690
     12  C         23.2800  -22.7120   -9.4850 C.2     1  UNL1        0.0480
     13  C         23.9310  -21.7660  -10.3730 C.2     1  UNL1        0.0240
     14  C         25.2000  -21.9540  -10.7680 C.2     1  UNL1        0.0750
     15  C         25.9480  -23.1530  -10.3030 C.2     1  UNL1        0.2450
     16  O         27.1080  -23.3540  -10.6420 O.2     1  UNL1       -0.2680
     17  N         25.2530  -24.0080   -9.4790 N.am    1  UNL1       -0.3330
     18  C         23.9500  -23.8070   -9.0850 C.2     1  UNL1        0.1080
     19  H         25.7590  -24.8370   -9.1860 H       1  UNL1        0.1680
     20  S         16.7140  -24.1500   -7.6440 S.O2    1  UNL1        0.2460
     21  O         15.5970  -24.8740   -8.2180 O.2     1  UNL1       -0.2060
     22  O         17.7540  -24.8230   -6.8990 O.2     1  UNL1       -0.2060
     23  N         16.0310  -22.8940   -6.7090 N.pl3   1  UNL1       -0.1810
     24  H         15.1500  -23.2390   -6.3270 H       1  UNL1        0.1460
     25  C         16.8970  -22.4110   -5.6740 C.2     1  UNL1        0.0240
     26  C         16.5820  -22.6800   -4.3410 C.2     1  UNL1        0.0240
     27  C         17.3900  -22.1770   -3.3190 C.2     1  UNL1        0.0030
     28  C         18.5030  -21.3950   -3.6340 C.2     1  UNL1        0.0240
     29  C         18.7970  -21.1170   -4.9700 C.2     1  UNL1        0.0350
     30 CL         20.1700  -20.1530   -5.3590 Cl      1  UNL1       -0.0840
     31  C         17.9940  -21.6120   -5.9940 C.2     1  UNL1        0.0480
@<TRIPOS>BOND
     1    11     8    1
     2     4     3    1
     3     4     5    2
     4     3     2    2
     5    14    13    2
     6    14    15    1
     7    16    15    2
     8    13    12    1
     9    15    17   am
    10     8     5    1
    11     8     9   am
    12     5     6    1
    13     2     1    1
    14     2     7    1
    15    12    18    2
    16    12     9    1
    17    17    19    1
    18    17    18    1
    19     9    10    2
    20     6     7    2
    21     7    20    1
    22    21    20    2
    23    20    22    2
    24    20    23    1
    25    23    24    1
    26    23    25    1
    27    31    25    2
    28    31    29    1
    29    25    26    1
    30    30    29    1
    31    29    28    2
    32    26    27    2
    33    28    27    1
