@<TRIPOS>MOLECULE
26896_out_ligand_01.pdbqt
 28 31 0 0 0
SMALL
GASTEIGER

@<TRIPOS>ATOM
      1  C         19.2840  -22.0170   -6.0160 C.2     1  UNL1        0.1430
      2  C         19.0920  -20.8570   -5.2830 C.2     1  UNL1        0.0450
      3  C         18.1900  -21.1730   -4.2370 C.2     1  UNL1        0.0360
      4  C         17.8580  -22.5010   -4.3940 C.2     1  UNL1        0.0680
      5  O         18.5330  -23.0180   -5.4590 O.2     1  UNL1       -0.3080
      6  C         20.0810  -22.3400   -7.1860 C.2     1  UNL1        0.2760
      7  O         21.1250  -21.7620   -7.4820 O.2     1  UNL1       -0.2650
      8  N         19.5760  -23.3520   -7.9770 N.am    1  UNL1       -0.3470
      9  H         18.6560  -23.7240   -7.7930 H       1  UNL1        0.1630
     10  C         20.2090  -23.7120   -9.2220 C.3     1  UNL1        0.1190
     11  C         21.7430  -23.7990   -9.0870 C.3     1  UNL1        0.0340
     12  C         22.3240  -23.4090  -10.4510 C.3     1  UNL1        0.0410
     13  C         21.2780  -22.4670  -10.9580 C.2     1  UNL1       -0.0500
     14  C         21.3860  -21.5580  -11.9980 C.2     1  UNL1        0.0070
     15  C         20.0720  -22.6400  -10.2690 C.2     1  UNL1       -0.0290
     16  C         20.2580  -20.8090  -12.3410 C.2     1  UNL1        0.0010
     17  C         19.0450  -20.9860  -11.6580 C.2     1  UNL1        0.0010
     18  C         18.9430  -21.9140  -10.6190 C.2     1  UNL1        0.0100
     19  C         16.9930  -23.4550   -3.6610 C.3     1  UNL1        0.2100
     20  S         15.3270  -23.3770   -4.3030 S.O2    1  UNL1        0.1810
     21  O         14.7360  -22.0880   -3.9920 O.2     1  UNL1       -0.2220
     22  O         14.6310  -24.6090   -3.9690 O.2     1  UNL1       -0.2220
     23  C         15.6030  -23.4020   -6.0640 C.2     1  UNL1        0.0590
     24  C         15.5810  -22.2050   -6.7840 C.2     1  UNL1        0.0230
     25  C         15.8010  -22.2340   -8.1620 C.2     1  UNL1        0.0020
     26  C         16.0500  -23.4470   -8.8050 C.2     1  UNL1        0.0000
     27  C         16.0880  -24.6380   -8.0750 C.2     1  UNL1        0.0020
     28  C         15.8690  -24.6180   -6.6990 C.2     1  UNL1        0.0230
@<TRIPOS>BOND
     1    16    14    1
     2    16    17    2
     3    14    13    2
     4    17    18    1
     5    13    12    1
     6    13    15    1
     7    18    15    2
     8    12    11    1
     9    15    10    1
    10    10    11    1
    11    10     8    1
    12    26    25    2
    13    26    27    1
    14    25    24    1
    15    27    28    2
    16     8     9    1
    17     8     6   am
    18     7     6    2
    19     6     1    1
    20    24    23    2
    21    28    23    1
    22    23    20    1
    23     1     5    1
    24     1     2    2
    25     5     4    1
    26     2     3    1
    27     4     3    2
    28     4    19    1
    29    20    21    2
    30    20    22    2
    31    20    19    1
