@<TRIPOS>MOLECULE
2690_out_ligand_01.pdbqt
 25 27 0 0 0
SMALL
GASTEIGER

@<TRIPOS>ATOM
      1  C         20.7020  -21.5610   -7.1800 C.3     1  UNL1        0.0680
      2  C         19.4460  -22.0470   -6.4900 C.2     1  UNL1       -0.0560
      3  C         18.8260  -23.2360   -6.8990 C.2     1  UNL1        0.0090
      4  C         17.6750  -23.6910   -6.2520 C.2     1  UNL1        0.0250
      5  C         17.1500  -22.9610   -5.1840 C.2     1  UNL1        0.0740
      6  C         17.7530  -21.7710   -4.7690 C.2     1  UNL1        0.0250
      7  C         18.9030  -21.3200   -5.4200 C.2     1  UNL1        0.0090
      8  S         15.6750  -23.5160   -4.3840 S.O2    1  UNL1        0.2390
      9  O         16.0280  -24.3700   -3.2730 O.2     1  UNL1       -0.2060
     10  O         14.7080  -23.9070   -5.3830 O.2     1  UNL1       -0.2060
     11  N         15.0920  -22.0970   -3.7050 N.3     1  UNL1       -0.2250
     12  H         14.0810  -22.0380   -3.8380 H       1  UNL1        0.1360
     13  H         15.3870  -22.0310   -2.7310 H       1  UNL1        0.1360
     14  C         21.3590  -22.6780   -8.0100 C.3     1  UNL1        0.2780
     15  N         21.9670  -22.3050   -9.2920 N.3     1  UNL1        0.0970
     16  C         23.3740  -22.6700   -9.4210 C.3     1  UNL1        0.2730
     17  C         23.6670  -22.3660  -10.8830 C.3     1  UNL1        0.0330
     18  C         22.3270  -22.5100  -11.6000 C.3     1  UNL1        0.0420
     19  C         21.3120  -22.8380  -10.4960 C.3     1  UNL1        0.2560
     20  C         19.9430  -22.2610  -10.7780 C.2     1  UNL1       -0.0250
     21  C         19.8210  -21.0610  -11.4950 C.2     1  UNL1        0.0090
     22  C         18.5650  -20.5050  -11.7470 C.2     1  UNL1        0.0010
     23  C         17.4150  -21.1410  -11.2870 C.2     1  UNL1        0.0000
     24  C         17.5180  -22.3330  -10.5740 C.2     1  UNL1        0.0010
     25  C         18.7730  -22.8870  -10.3180 C.2     1  UNL1        0.0090
@<TRIPOS>BOND
     1    22    21    1
     2    22    23    2
     3    18    17    1
     4    18    19    1
     5    21    20    2
     6    23    24    1
     7    17    16    1
     8    20    19    1
     9    20    25    1
    10    24    25    2
    11    19    15    1
    12    16    15    1
    13    15    14    1
    14    14     1    1
    15     1     2    1
    16     3     2    2
    17     3     4    1
    18     2     7    1
    19     4     5    2
    20     7     6    2
    21    10     8    2
    22     5     6    1
    23     5     8    1
    24     8    11    1
    25     8     9    2
    26    12    11    1
    27    11    13    1
