@<TRIPOS>MOLECULE
26906_out_ligand_01.pdbqt
 39 43 0 0 0
SMALL
GASTEIGER

@<TRIPOS>ATOM
      1  C         19.2300  -22.2820  -10.6790 C.2     1  UNL1        0.0320
      2  C         19.7150  -21.4680  -11.7110 C.2     1  UNL1        0.0190
      3  C         21.0510  -21.5720  -12.1100 C.2     1  UNL1        0.0310
      4  C         21.8970  -22.4830  -11.4750 C.2     1  UNL1        0.0420
      5  C         21.4170  -23.3040  -10.4550 C.2     1  UNL1        0.0310
      6  C         20.0810  -23.2090  -10.0610 C.2     1  UNL1        0.0190
      7  N         23.2570  -22.5970  -11.8590 N.pl3   1  UNL1       -0.2810
      8  H         23.4950  -22.4220  -12.8350 H       1  UNL1        0.1790
      9  S         24.4410  -22.0180  -10.8060 S.O2    1  UNL1        0.2630
     10  O         23.7360  -21.2790   -9.7780 O.2     1  UNL1       -0.2000
     11  O         25.3520  -23.0890  -10.4630 O.2     1  UNL1       -0.2000
     12  C         25.3020  -20.8350  -11.8160 C.2     1  UNL1        0.0820
     13  C         26.3350  -20.0570  -11.2370 C.2     1  UNL1        0.0280
     14  C         27.0220  -19.1060  -12.0010 C.2     1  UNL1        0.0330
     15  C         26.6320  -18.9720  -13.3130 C.ar    1  UNL1        0.0630
     16  N         27.1180  -18.1200  -14.2990 N.ar    1  UNL1       -0.3070
     17  C         25.6060  -19.7330  -13.8720 C.ar    1  UNL1        0.0640
     18  C         26.3940  -18.3360  -15.4800 C.ar    1  UNL1        0.3250
     19  H         27.8500  -17.4360  -14.2100 H       1  UNL1        0.1700
     20  O         26.5440  -17.7570  -16.5410 O.2     1  UNL1       -0.2470
     21  N         25.4620  -19.3470  -15.2000 N.ar    1  UNL1       -0.3060
     22  H         24.7990  -19.6960  -15.8740 H       1  UNL1        0.1700
     23  C         24.9120  -20.6750  -13.1530 C.2     1  UNL1        0.0570
     24  C         17.8120  -22.2230  -10.2370 C.2     1  UNL1        0.2510
     25  O         17.1200  -21.2590  -10.5420 O.2     1  UNL1       -0.2680
     26  N         17.3600  -23.2970   -9.5030 N.am    1  UNL1       -0.3570
     27  H         17.9850  -24.0540   -9.2570 H       1  UNL1        0.1620
     28  C         16.0420  -23.3110   -8.8920 C.3     1  UNL1        0.1270
     29  C         15.9500  -24.3070   -7.7310 C.3     1  UNL1        0.0600
     30  C         16.0630  -23.6480   -6.3870 C.2     1  UNL1       -0.0290
     31  C         15.1660  -23.7540   -5.3420 C.2     1  UNL1        0.0960
     32  N         15.6310  -23.0030   -4.2960 N.pl3   1  UNL1       -0.3650
     33  C         16.8170  -22.3960   -4.6350 C.2     1  UNL1        0.0420
     34  H         15.1780  -22.9080   -3.3980 H       1  UNL1        0.1650
     35  C         17.6380  -21.5400   -3.8900 C.2     1  UNL1        0.0300
     36  C         17.1200  -22.7910   -5.9380 C.2     1  UNL1       -0.0020
     37  C         18.8080  -21.0730   -4.4980 C.2     1  UNL1        0.0020
     38  C         19.1410  -21.4520   -5.7950 C.2     1  UNL1        0.0010
     39  C         18.3100  -22.3090   -6.5240 C.2     1  UNL1        0.0140
@<TRIPOS>BOND
     1    20    18    2
     2    22    21    1
     3    18    21   ar
     4    18    16   ar
     5    21    17   ar
     6    16    19    1
     7    16    15   ar
     8    17    15   ar
     9    17    23    1
    10    15    14    1
    11    23    12    2
    12     8     7    1
    13     3     2    1
    14     3     4    2
    15    14    13    2
    16     7     4    1
    17     7     9    1
    18    12    13    1
    19    12     9    1
    20     2     1    2
    21     4     5    1
    22     9    11    2
    23     9    10    2
    24     1    24    1
    25     1     6    1
    26    25    24    2
    27     5     6    2
    28    24    26   am
    29    26    27    1
    30    26    28    1
    31    28    29    1
    32    29    30    1
    33    39    36    1
    34    39    38    2
    35    30    36    1
    36    30    31    2
    37    36    33    2
    38    38    37    1
    39    31    32    1
    40    33    32    1
    41    33    35    1
    42    37    35    2
    43    32    34    1
