@<TRIPOS>MOLECULE
26910_out_ligand_01.pdbqt
 37 40 0 0 0
SMALL
GASTEIGER

@<TRIPOS>ATOM
      1  C         20.9870  -22.3820  -10.0500 C.2     1  UNL1        0.0810
      2  C         20.0330  -21.5630  -10.6660 C.2     1  UNL1        0.0250
      3  C         20.2920  -21.0360  -11.9280 C.2     1  UNL1        0.0030
      4  C         21.5000  -21.3300  -12.5730 C.2     1  UNL1        0.0170
      5  C         22.4540  -22.1600  -11.9610 C.2     1  UNL1        0.0330
      6  C         22.2040  -22.6720  -10.6800 C.2     1  UNL1        0.0420
      7  S         20.6540  -22.9960   -8.4110 S.O2    1  UNL1        0.2650
      8  O         21.4430  -22.1780   -7.5020 O.2     1  UNL1       -0.2000
      9  O         20.8100  -24.4380   -8.4310 O.2     1  UNL1       -0.2000
     10  N         19.0040  -22.6150   -8.1960 N.pl3   1  UNL1       -0.2680
     11  C         18.0070  -23.2720   -9.0750 C.3     1  UNL1        0.1680
     12  C         16.8500  -22.3840   -9.4270 C.2     1  UNL1       -0.0160
     13  C         15.5750  -22.7920   -9.5270 C.2     1  UNL1        0.0080
     14  C         18.5920  -22.3510   -6.8440 C.2     1  UNL1        0.0460
     15  C         19.2710  -21.3660   -6.1230 C.2     1  UNL1        0.0300
     16  C         18.8600  -21.0270   -4.8350 C.2     1  UNL1        0.0030
     17  C         17.7520  -21.6590   -4.2710 C.2     1  UNL1        0.0160
     18  C         17.0450  -22.6370   -4.9900 C.2     1  UNL1        0.0500
     19  C         17.4670  -22.9640   -6.2890 C.2     1  UNL1        0.0460
     20  C         15.8160  -23.2800   -4.3980 C.3     1  UNL1        0.4170
     21  F         15.1590  -24.1010   -5.2760 F       1  UNL1       -0.1660
     22  F         16.0970  -24.0430   -3.2880 F       1  UNL1       -0.1660
     23  F         14.8910  -22.3480   -3.9860 F       1  UNL1       -0.1660
     24  C         23.7470  -22.5010  -12.6250 C.2     1  UNL1        0.2520
     25  O         24.1530  -23.6580  -12.6280 O.2     1  UNL1       -0.2680
     26  N         24.4010  -21.4710  -13.2500 N.am    1  UNL1       -0.3480
     27  H         23.9590  -20.5690  -13.3400 H       1  UNL1        0.1630
     28  C         25.6940  -21.6370  -13.9010 C.3     1  UNL1        0.1180
     29  C         26.7040  -20.5700  -13.4540 C.3     1  UNL1        0.0300
     30  C         26.2460  -19.1750  -13.8810 C.3     1  UNL1        0.0070
     31  C         25.9820  -19.0560  -15.3800 C.3     1  UNL1        0.0390
     32  C         25.5850  -20.3330  -16.0790 C.2     1  UNL1       -0.0500
     33  C         25.3310  -20.2910  -17.4560 C.2     1  UNL1        0.0070
     34  C         25.4890  -21.5620  -15.3990 C.2     1  UNL1       -0.0290
     35  C         24.9760  -21.4480  -18.1480 C.2     1  UNL1        0.0010
     36  C         24.8720  -22.6630  -17.4730 C.2     1  UNL1        0.0010
     37  C         25.1280  -22.7210  -16.1050 C.2     1  UNL1        0.0100
@<TRIPOS>BOND
     1    35    36    2
     2    35    33    1
     3    36    37    1
     4    33    32    2
     5    37    34    2
     6    32    34    1
     7    32    31    1
     8    34    28    1
     9    31    30    1
    10    28    29    1
    11    28    26    1
    12    30    29    1
    13    27    26    1
    14    26    24   am
    15    25    24    2
    16    24     5    1
    17     4     5    2
    18     4     3    1
    19     5     6    1
    20     3     2    2
    21     6     1    2
    22     2     1    1
    23     1     7    1
    24    13    12    2
    25    12    11    1
    26    11    10    1
    27     9     7    2
    28     7    10    1
    29     7     8    2
    30    10    14    1
    31    14    19    2
    32    14    15    1
    33    19    18    1
    34    15    16    2
    35    21    20    1
    36    18    20    1
    37    18    17    2
    38    16    17    1
    39    20    23    1
    40    20    22    1
