@<TRIPOS>MOLECULE
26924_out_ligand_01.pdbqt
 36 39 0 0 0
SMALL
GASTEIGER

@<TRIPOS>ATOM
      1  N         20.7370  -23.3430   -9.1470 N.3     1  UNL1        0.1100
      2  C         19.6700  -24.0750   -8.4400 C.3     1  UNL1        0.3120
      3  C         19.1040  -23.4480   -7.1850 C.2     1  UNL1       -0.0300
      4  C         19.4880  -22.1590   -6.7900 C.2     1  UNL1        0.0090
      5  C         18.9580  -21.5810   -5.6340 C.2     1  UNL1        0.0070
      6  C         18.0350  -22.2780   -4.8490 C.2     1  UNL1       -0.0620
      7  C         17.4440  -21.6420   -3.6260 C.3     1  UNL1        0.0480
      8  C         17.6270  -23.5530   -5.2550 C.2     1  UNL1        0.0070
      9  C         18.1560  -24.1320   -6.4110 C.2     1  UNL1        0.0090
     10  C         22.0540  -24.0150   -9.1130 C.3     1  UNL1        0.3750
     11  C         23.1790  -23.0800   -9.5720 C.2     1  UNL1        0.2460
     12  O         23.4750  -22.0550   -8.9640 O.2     1  UNL1       -0.2720
     13  N         23.8570  -23.5310  -10.6820 N.am    1  UNL1       -0.3550
     14  H         23.5530  -24.4220  -11.0590 H       1  UNL1        0.1620
     15  C         25.0550  -22.9100  -11.1790 C.3     1  UNL1        0.1610
     16  C         24.9990  -22.7780  -12.6800 C.2     1  UNL1       -0.0400
     17  C         24.1730  -21.8190  -13.2850 C.2     1  UNL1        0.0100
     18  C         24.1010  -21.7250  -14.6760 C.2     1  UNL1        0.0250
     19  C         24.8570  -22.5950  -15.4650 C.2     1  UNL1        0.0740
     20  C         25.6680  -23.5690  -14.8810 C.2     1  UNL1        0.0250
     21  C         25.7370  -23.6560  -13.4910 C.2     1  UNL1        0.0100
     22  S         24.7520  -22.4760  -17.2310 S.O2    1  UNL1        0.2390
     23  O         24.3530  -21.1330  -17.5820 O.2     1  UNL1       -0.2060
     24  O         25.9120  -23.1180  -17.8030 O.2     1  UNL1       -0.2060
     25  N         23.4120  -23.4450  -17.5510 N.3     1  UNL1       -0.2250
     26  H         23.6590  -24.4180  -17.3560 H       1  UNL1        0.1360
     27  H         23.0510  -23.3290  -18.4970 H       1  UNL1        0.1360
     28  C         20.3400  -22.8530  -10.4710 C.3     1  UNL1        0.2570
     29  C         21.1070  -21.6470  -11.0750 C.3     1  UNL1        0.0450
     30  C         20.1460  -20.9850  -12.0730 C.3     1  UNL1        0.0410
     31  C         18.8260  -21.2540  -11.4230 C.2     1  UNL1       -0.0500
     32  C         17.6160  -20.6270  -11.6700 C.2     1  UNL1        0.0070
     33  C         18.9230  -22.3150  -10.5130 C.2     1  UNL1       -0.0190
     34  C         16.4860  -21.0720  -10.9820 C.2     1  UNL1        0.0010
     35  C         16.5750  -22.1430  -10.0790 C.2     1  UNL1        0.0010
     36  C         17.7960  -22.7790   -9.8480 C.2     1  UNL1        0.0100
@<TRIPOS>BOND
     1    27    25    1
     2    24    22    2
     3    23    22    2
     4    25    26    1
     5    25    22    1
     6    22    19    1
     7    19    20    2
     8    19    18    1
     9    20    21    1
    10    18    17    2
    11    21    16    2
    12    17    16    1
    13    16    15    1
    14    30    31    1
    15    30    29    1
    16    32    31    2
    17    32    34    1
    18    31    33    1
    19    15    13    1
    20    29    28    1
    21    14    13    1
    22    34    35    2
    23    13    11   am
    24    33    28    1
    25    33    36    2
    26    28     1    1
    27    35    36    1
    28    11    10    1
    29    11    12    2
    30     1    10    1
    31     1     2    1
    32     2     3    1
    33     3     4    2
    34     3     9    1
    35     4     5    1
    36     9     8    2
    37     5     6    2
    38     8     6    1
    39     6     7    1
