@<TRIPOS>MOLECULE
26927_out_ligand_01.pdbqt
 41 45 0 0 0
SMALL
GASTEIGER

@<TRIPOS>ATOM
      1  C         21.7710  -21.8320  -12.5770 C.2     1  UNL1        0.0360
      2  C         21.8400  -20.8230  -13.5290 C.2     1  UNL1        0.0320
      3  C         23.0150  -20.6180  -14.2690 C.2     1  UNL1        0.0330
      4  C         24.1600  -21.4150  -14.0960 C.2     1  UNL1        0.0530
      5  C         24.0750  -22.4260  -13.1210 C.2     1  UNL1        0.1080
      6  C         22.8990  -22.6270  -12.3710 C.2     1  UNL1        0.0570
      7  N         20.6350  -22.0990  -11.7880 N.am    1  UNL1       -0.3230
      8  C         19.5020  -21.3160  -11.6620 C.2     1  UNL1        0.2560
      9  O         19.2500  -20.2790  -12.2610 O.2     1  UNL1       -0.2670
     10  H         20.6230  -22.9980  -11.3210 H       1  UNL1        0.1690
     11  C         18.4820  -21.8540  -10.7210 C.2     1  UNL1        0.0350
     12  C         17.1100  -21.6910  -10.9610 C.2     1  UNL1        0.0170
     13  C         16.1820  -22.1980  -10.0500 C.2     1  UNL1        0.0040
     14  C         16.6190  -22.8720   -8.9090 C.2     1  UNL1        0.0370
     15  C         17.9860  -23.0630   -8.6900 C.2     1  UNL1        0.0770
     16  C         18.9190  -22.5480   -9.5880 C.2     1  UNL1        0.0540
     17  O         18.4810  -23.6750   -7.5620 O.2     1  UNL1       -0.3110
     18  C         18.4620  -22.9540   -6.3890 C.2     1  UNL1        0.0760
     19  C         19.0760  -21.7060   -6.2660 C.2     1  UNL1        0.0370
     20  C         18.9890  -21.0080   -5.0610 C.2     1  UNL1        0.0030
     21  C         18.2780  -21.5520   -3.9890 C.2     1  UNL1        0.0000
     22  C         17.6460  -22.7880   -4.1240 C.2     1  UNL1        0.0030
     23  C         17.7300  -23.4860   -5.3270 C.2     1  UNL1        0.0370
     24  S         25.4280  -23.5380  -12.7990 S.O2    1  UNL1        0.2650
     25  O         26.6410  -22.9170  -13.2970 O.2     1  UNL1       -0.2000
     26  O         25.0560  -24.8510  -13.2810 O.2     1  UNL1       -0.2000
     27  N         25.5280  -23.6140  -11.1230 N.pl3   1  UNL1       -0.2790
     28  H         25.9230  -24.5180  -10.8450 H       1  UNL1        0.1790
     29  C         24.5040  -23.1180  -10.2420 C.2     1  UNL1        0.0640
     30  C         23.5000  -23.9310   -9.7070 C.2     1  UNL1        0.0320
     31  C         22.4900  -23.3880   -8.9050 C.2     1  UNL1        0.0020
     32  C         22.4450  -22.0200   -8.6580 C.2     1  UNL1        0.0020
     33  C         23.4000  -21.1850   -9.2310 C.2     1  UNL1        0.0260
     34  C         24.4100  -21.7290  -10.0310 C.2     1  UNL1        0.0610
     35 CL         25.5300  -20.6310  -10.7640 Cl      1  UNL1       -0.0820
     36  N         25.3320  -21.1670  -14.8330 N.pl3   1  UNL1       -0.3800
     37  C         25.2770  -21.4330  -16.2850 C.3     1  UNL1        0.1230
     38  C         26.5830  -20.9880  -16.9380 C.3     1  UNL1        0.0200
     39  C         26.7750  -19.4770  -16.8030 C.3     1  UNL1        0.0030
     40  C         26.0520  -18.9030  -15.5830 C.3     1  UNL1        0.0200
     41  C         26.0060  -19.9050  -14.4330 C.3     1  UNL1        0.1230
@<TRIPOS>BOND
     1    38    39    1
     2    38    37    1
     3    39    40    1
     4    37    36    1
     5    40    41    1
     6    36    41    1
     7    36     4    1
     8     3     4    2
     9     3     2    1
    10     4     5    1
    11     2     1    2
    12    25    24    2
    13    26    24    2
    14     5    24    1
    15     5     6    2
    16    24    27    1
    17     1     6    1
    18     1     7    1
    19     9     8    2
    20     7     8   am
    21     7    10    1
    22     8    11    1
    23    27    28    1
    24    27    29    1
    25    12    11    2
    26    12    13    1
    27    35    34    1
    28    11    16    1
    29    29    34    2
    30    29    30    1
    31    13    14    2
    32    34    33    1
    33    30    31    2
    34    16    15    2
    35    33    32    2
    36    14    15    1
    37    31    32    1
    38    15    17    1
    39    17    18    1
    40    18    19    2
    41    18    23    1
    42    19    20    1
    43    23    22    2
    44    20    21    2
    45    22    21    1
