@<TRIPOS>MOLECULE
26939_out_ligand_01.pdbqt
 39 43 0 0 0
SMALL
GASTEIGER

@<TRIPOS>ATOM
      1  C         21.5250  -21.8350  -12.1830 C.2     1  UNL1        0.0360
      2  C         21.5400  -21.2440  -13.4420 C.2     1  UNL1        0.0310
      3  C         22.7540  -20.9470  -14.0820 C.2     1  UNL1        0.0270
      4  C         23.9960  -21.2200  -13.4890 C.2     1  UNL1        0.0330
      5  C         23.9600  -21.8380  -12.2260 C.2     1  UNL1        0.0980
      6  C         22.7450  -22.1310  -11.5770 C.2     1  UNL1        0.0560
      7  S         25.4520  -22.2490  -11.3460 S.O2    1  UNL1        0.2470
      8  O         25.8580  -21.0590  -10.6270 O.2     1  UNL1       -0.2050
      9  O         26.3480  -22.8990  -12.2830 O.2     1  UNL1       -0.2050
     10  N         24.9260  -23.4230  -10.2340 N.pl3   1  UNL1       -0.1810
     11  H         24.8830  -24.3150  -10.7440 H       1  UNL1        0.1460
     12  C         23.7480  -23.0880   -9.5020 C.2     1  UNL1        0.0230
     13  C         23.6780  -21.8640   -8.8360 C.2     1  UNL1        0.0240
     14  C         22.5380  -21.5360   -8.1030 C.2     1  UNL1        0.0030
     15  C         21.4710  -22.4320   -8.0330 C.2     1  UNL1        0.0160
     16  C         21.5360  -23.6720   -8.6890 C.2     1  UNL1        0.0490
     17  C         22.6840  -23.9880   -9.4320 C.2     1  UNL1        0.0400
     18  C         20.3770  -24.6340   -8.6310 C.3     1  UNL1        0.4170
     19  F         19.4580  -24.3060   -7.6780 F       1  UNL1       -0.1660
     20  F         19.6910  -24.6830   -9.8060 F       1  UNL1       -0.1660
     21  F         20.7500  -25.9160   -8.3600 F       1  UNL1       -0.1660
     22  N         25.2070  -20.9320  -14.1360 N.pl3   1  UNL1       -0.2820
     23  C         25.2500  -21.4340  -15.5360 C.3     1  UNL1        0.0960
     24  C         25.8520  -20.2920  -16.3520 C.3     1  UNL1        0.0160
     25  C         26.6420  -19.5000  -15.3270 C.3     1  UNL1        0.0160
     26  C         25.7220  -19.5480  -14.1140 C.3     1  UNL1        0.0960
     27  N         20.3560  -22.1580  -11.4620 N.am    1  UNL1       -0.3210
     28  C         19.2080  -21.3900  -11.3080 C.2     1  UNL1        0.2800
     29  O         19.0370  -20.2970  -11.8420 O.2     1  UNL1       -0.2650
     30  H         20.3490  -23.0720  -11.0340 H       1  UNL1        0.1690
     31  C         18.1970  -22.0040  -10.4570 C.2     1  UNL1        0.1440
     32  C         17.1620  -22.8980  -10.6930 C.2     1  UNL1        0.0570
     33  C         16.5130  -23.1280   -9.4500 C.2     1  UNL1        0.0010
     34  C         15.4260  -23.9030   -9.0120 C.2     1  UNL1        0.0140
     35  C         17.1970  -22.3560   -8.5210 C.2     1  UNL1        0.0860
     36  C         15.0780  -23.8640   -7.6540 C.2     1  UNL1        0.0010
     37  C         15.7910  -23.0710   -6.7500 C.2     1  UNL1        0.0030
     38  C         16.8750  -22.2930   -7.1680 C.2     1  UNL1        0.0380
     39  O         18.2120  -21.6840   -9.1230 O.2     1  UNL1       -0.3040
@<TRIPOS>BOND
     1    24    23    1
     2    24    25    1
     3    23    22    1
     4    25    26    1
     5    22    26    1
     6    22     4    1
     7     3     4    2
     8     3     2    1
     9     4     5    1
    10     2     1    2
    11     9     7    2
    12     5     6    2
    13     5     7    1
    14     1     6    1
    15     1    27    1
    16    29    28    2
    17    27    28   am
    18    27    30    1
    19     7     8    2
    20     7    10    1
    21    28    31    1
    22    11    10    1
    23    32    31    2
    24    32    33    1
    25    31    39    1
    26    10    12    1
    27    20    18    1
    28    12    17    2
    29    12    13    1
    30    33    34    2
    31    33    35    1
    32    17    16    1
    33    39    35    1
    34    34    36    1
    35    13    14    2
    36    16    18    1
    37    16    15    2
    38    18    21    1
    39    18    19    1
    40    35    38    2
    41    14    15    1
    42    36    37    2
    43    38    37    1
