@<TRIPOS>MOLECULE
26936_out_ligand_01.pdbqt
 36 39 0 0 0
SMALL
GASTEIGER

@<TRIPOS>ATOM
      1  C         19.7780  -22.5390  -10.4960 C.2     1  UNL1        0.0870
      2  C         21.1090  -23.0010  -10.4420 C.2     1  UNL1        0.0550
      3  C         22.0780  -22.4800  -11.2950 C.2     1  UNL1        0.0360
      4  C         21.7160  -21.4670  -12.1850 C.2     1  UNL1        0.0300
      5  C         20.4020  -20.9940  -12.2370 C.2     1  UNL1        0.0100
      6  C         19.4060  -21.5280  -11.4030 C.2     1  UNL1       -0.0390
      7  C         18.0160  -20.9700  -11.5170 C.3     1  UNL1        0.0500
      8  N         23.4200  -22.9040  -11.3200 N.am    1  UNL1       -0.3260
      9  C         24.5360  -22.2460  -10.8410 C.2     1  UNL1        0.2310
     10  O         24.5360  -21.1700  -10.2460 O.2     1  UNL1       -0.2720
     11  H         23.6080  -23.7880  -11.7850 H       1  UNL1        0.1690
     12  C         25.8530  -22.9900  -11.0370 C.3     1  UNL1        0.1820
     13  S         27.1050  -22.0620  -11.9890 S.3     1  UNL1       -0.1210
     14  C         26.3160  -21.7330  -13.5630 C.2     1  UNL1        0.0030
     15  C         25.9630  -20.4680  -14.0470 C.2     1  UNL1        0.0210
     16  C         25.3360  -20.3260  -15.2900 C.2     1  UNL1        0.0410
     17  C         25.0630  -21.4470  -16.0670 C.2     1  UNL1        0.1020
     18  C         25.3900  -22.7170  -15.5880 C.2     1  UNL1        0.1030
     19  O         24.4680  -21.2300  -17.2820 O.2     1  UNL1       -0.3460
     20  C         26.0210  -22.8570  -14.3520 C.2     1  UNL1        0.0580
     21  O         25.1260  -23.8720  -16.2800 O.2     1  UNL1       -0.3460
     22  C         24.1910  -23.6420  -17.3400 C.3     1  UNL1        0.2020
     23  C         24.5530  -22.3880  -18.1180 C.3     1  UNL1        0.2020
     24  S         18.6190  -23.2760   -9.3440 S.O2    1  UNL1        0.2630
     25  O         17.3800  -23.5330  -10.0430 O.2     1  UNL1       -0.2000
     26  O         19.2880  -24.3520   -8.6420 O.2     1  UNL1       -0.2000
     27  N         18.3800  -22.0550   -8.2040 N.pl3   1  UNL1       -0.2800
     28  H         18.1830  -21.1550   -8.6350 H       1  UNL1        0.1790
     29  C         17.7940  -22.3530   -6.9390 C.2     1  UNL1        0.0480
     30  C         16.6480  -23.1500   -6.8760 C.2     1  UNL1        0.0310
     31  C         16.0340  -23.4180   -5.6520 C.2     1  UNL1        0.0090
     32  C         16.5720  -22.9120   -4.4690 C.2     1  UNL1       -0.0610
     33  C         15.8980  -23.1640   -3.1530 C.3     1  UNL1        0.0480
     34  C         17.7270  -22.1200   -4.5310 C.2     1  UNL1        0.0150
     35  C         18.3550  -21.8420   -5.7580 C.2     1  UNL1       -0.0340
     36  C         19.5910  -20.9870   -5.7610 C.3     1  UNL1        0.0500
@<TRIPOS>BOND
     1    23    22    1
     2    23    19    1
     3    22    21    1
     4    19    17    1
     5    21    18    1
     6    17    18    2
     7    17    16    1
     8    18    20    1
     9    16    15    2
    10    20    14    2
    11    15    14    1
    12    14    13    1
    13     5     4    2
    14     5     6    1
    15     4     3    1
    16    13    12    1
    17    11     8    1
    18     7     6    1
    19     6     1    2
    20     8     3    1
    21     8     9   am
    22     3     2    2
    23    12     9    1
    24     9    10    2
    25     1     2    1
    26     1    24    1
    27    25    24    2
    28    24    26    2
    29    24    27    1
    30    28    27    1
    31    27    29    1
    32    29    30    2
    33    29    35    1
    34    30    31    1
    35    36    35    1
    36    35    34    2
    37    31    32    2
    38    34    32    1
    39    32    33    1
