@<TRIPOS>MOLECULE
26956_out_ligand_01.pdbqt
 30 32 0 0 0
SMALL
GASTEIGER

@<TRIPOS>ATOM
      1  N         13.0340  -21.0510   -6.0440 N.1     1  UNL1       -0.1910
      2  C         13.9680  -21.6360   -5.6810 C.1     1  UNL1        0.0990
      3  C         15.1280  -22.3570   -5.2480 C.2     1  UNL1        0.0460
      4  C         15.1130  -23.0450   -4.0340 C.2     1  UNL1        0.0230
      5  C         16.2450  -23.7470   -3.6240 C.2     1  UNL1        0.0040
      6  C         17.3920  -23.7630   -4.4250 C.2     1  UNL1        0.0290
      7  C         17.4210  -23.0770   -5.6400 C.2     1  UNL1        0.0360
      8  C         16.2790  -22.3760   -6.0490 C.2     1  UNL1        0.0520
      9  N         18.5370  -23.0520   -6.5050 N.am    1  UNL1       -0.3230
     10  C         19.5410  -22.1010   -6.5440 C.2     1  UNL1        0.2560
     11  O         19.6160  -21.0750   -5.8820 O.2     1  UNL1       -0.2670
     12  H         18.5590  -23.7700   -7.2180 H       1  UNL1        0.1690
     13  C         20.6160  -22.3730   -7.5390 C.2     1  UNL1        0.0320
     14  C         20.5440  -23.4630   -8.4180 C.2     1  UNL1        0.0180
     15  C         21.5770  -23.6940   -9.3320 C.2     1  UNL1        0.0180
     16  C         22.6890  -22.8410   -9.3620 C.2     1  UNL1        0.0320
     17  C         22.7580  -21.7500   -8.4870 C.2     1  UNL1        0.0180
     18  C         21.7300  -21.5240   -7.5680 C.2     1  UNL1        0.0180
     19  C         23.8030  -23.0490  -10.3280 C.2     1  UNL1        0.2560
     20  O         24.8810  -23.4350   -9.8920 O.2     1  UNL1       -0.2670
     21  N         23.4780  -22.8080  -11.6500 N.am    1  UNL1       -0.3230
     22  H         22.5030  -22.6330  -11.8570 H       1  UNL1        0.1690
     23  C         24.3370  -22.8840  -12.7670 C.2     1  UNL1        0.0360
     24  C         24.6510  -21.6810  -13.4130 C.2     1  UNL1        0.0290
     25  C         25.4990  -21.6650  -14.5240 C.2     1  UNL1        0.0040
     26  C         26.0440  -22.8560  -14.9980 C.2     1  UNL1        0.0230
     27  C         25.7430  -24.0630  -14.3590 C.2     1  UNL1        0.0460
     28  C         26.3090  -25.2880  -14.8450 C.1     1  UNL1        0.0990
     29  C         24.8920  -24.0740  -13.2460 C.2     1  UNL1        0.0520
     30  N         26.7800  -26.2680  -15.2500 N.1     1  UNL1       -0.1910
@<TRIPOS>BOND
     1    30    28    3
     2    26    25    2
     3    26    27    1
     4    28    27    1
     5    25    24    1
     6    27    29    2
     7    24    23    2
     8    29    23    1
     9    23    21    1
    10    22    21    1
    11    21    19   am
    12    19    20    2
    13    19    16    1
    14    16    15    2
    15    16    17    1
    16    15    14    1
    17    17    18    2
    18    14    13    2
    19    18    13    1
    20    13    10    1
    21    12     9    1
    22    10     9   am
    23    10    11    2
    24     9     7    1
    25     8     7    1
    26     8     3    2
    27     1     2    3
    28     2     3    1
    29     7     6    2
    30     3     4    1
    31     6     5    1
    32     4     5    2
