@<TRIPOS>MOLECULE
26967_out_ligand_01.pdbqt
 28 31 0 0 0
SMALL
GASTEIGER

@<TRIPOS>ATOM
      1  C         18.9610  -22.0860   -9.9430 C.2     1  UNL1        0.0330
      2  C         18.7170  -21.3300  -11.1190 C.2     1  UNL1        0.0180
      3  C         19.7190  -21.1310  -12.0770 C.2     1  UNL1        0.0190
      4  C         20.9470  -21.7070  -11.8280 C.2     1  UNL1        0.0480
      5  C         21.1870  -22.4540  -10.6880 C.2     1  UNL1        0.0490
      6  C         20.2170  -22.6690   -9.7250 C.2     1  UNL1        0.0350
      7  C         22.5730  -22.9140  -10.7440 C.2     1  UNL1        0.2620
      8  O         23.1000  -23.5620   -9.8620 O.2     1  UNL1       -0.2670
      9  N         23.0900  -22.4400  -11.9160 N.am    1  UNL1       -0.2740
     10  C         22.1800  -21.6950  -12.6130 C.2     1  UNL1        0.2620
     11  O         22.3110  -21.1100  -13.6710 O.2     1  UNL1       -0.2670
     12  C         17.8380  -22.2590   -8.9790 C.2     1  UNL1        0.2520
     13  O         16.6830  -22.0990   -9.3560 O.2     1  UNL1       -0.2680
     14  N         18.1820  -22.5680   -7.6780 N.am    1  UNL1       -0.3520
     15  H         19.1410  -22.4430   -7.3830 H       1  UNL1        0.1630
     16  C         17.1690  -22.6520   -6.6230 C.3     1  UNL1        0.0840
     17  C         17.8510  -22.5560   -5.2500 C.3     1  UNL1        0.0250
     18  C         16.9770  -22.0000   -4.1290 C.3     1  UNL1        0.0020
     19  C         15.5160  -22.4400   -4.0960 C.3     1  UNL1        0.0000
     20  C         15.2700  -23.8960   -4.4750 C.3     1  UNL1        0.0000
     21  C         15.1200  -24.0970   -5.9800 C.3     1  UNL1        0.0020
     22  C         16.4070  -23.9750   -6.7900 C.3     1  UNL1        0.0250
     23  C         24.4360  -22.7020  -12.3730 C.3     1  UNL1        0.2000
     24  C         25.2790  -21.5050  -12.1180 C.2     1  UNL1        0.0700
     25  C         25.8220  -20.9560  -10.9740 C.2     1  UNL1        0.0360
     26  C         26.5300  -19.8020  -11.3820 C.2     1  UNL1        0.0270
     27  C         26.3780  -19.7200  -12.7460 C.2     1  UNL1        0.1420
     28  O         25.6200  -20.7500  -13.2020 O.2     1  UNL1       -0.3250
@<TRIPOS>BOND
     1    11    10    2
     2    28    27    1
     3    28    24    1
     4    27    26    2
     5    10     9   am
     6    10     4    1
     7    23    24    1
     8    23     9    1
     9    24    25    2
    10     3     4    2
    11     3     2    1
    12     9     7   am
    13     4     5    1
    14    26    25    1
    15     2     1    2
    16     7     5    1
    17     7     8    2
    18     5     6    2
    19     1     6    1
    20     1    12    1
    21    13    12    2
    22    12    14   am
    23    14    15    1
    24    14    16    1
    25    22    16    1
    26    22    21    1
    27    16    17    1
    28    21    20    1
    29    17    18    1
    30    20    19    1
    31    18    19    1
