@<TRIPOS>MOLECULE
26960_out_ligand_01.pdbqt
 36 39 0 0 0
SMALL
GASTEIGER

@<TRIPOS>ATOM
      1  C         22.1130  -22.6570  -11.1060 C.2     1  UNL1        0.0350
      2  C         21.3780  -21.9550  -12.0650 C.2     1  UNL1        0.0290
      3  C         20.0370  -21.6330  -11.8390 C.2     1  UNL1        0.0030
      4  C         19.4190  -21.9960  -10.6440 C.2     1  UNL1        0.0170
      5  C         20.1520  -22.6730   -9.6660 C.2     1  UNL1        0.0340
      6  C         21.4900  -23.0170   -9.9040 C.2     1  UNL1        0.0460
      7  N         23.4590  -23.0380  -11.2710 N.am    1  UNL1       -0.3270
      8  C         24.5980  -22.3460  -10.8860 C.2     1  UNL1        0.2310
      9  O         24.6230  -21.2820  -10.2740 O.2     1  UNL1       -0.2720
     10  H         23.6320  -23.8880  -11.7970 H       1  UNL1        0.1690
     11  C         25.8930  -23.0800  -11.2120 C.3     1  UNL1        0.1820
     12  S         27.1210  -21.9940  -12.0180 S.3     1  UNL1       -0.1210
     13  C         26.2880  -21.7380  -13.5760 C.2     1  UNL1        0.0030
     14  C         25.8290  -20.4650  -13.9330 C.2     1  UNL1        0.0210
     15  C         25.1780  -20.2690  -15.1520 C.2     1  UNL1        0.0410
     16  C         24.9870  -21.3440  -16.0170 C.2     1  UNL1        0.1020
     17  C         25.4120  -22.6250  -15.6480 C.2     1  UNL1        0.1030
     18  O         24.3680  -21.0750  -17.2100 O.2     1  UNL1       -0.3460
     19  C         26.0710  -22.8200  -14.4340 C.2     1  UNL1        0.0580
     20  O         25.2220  -23.7350  -16.4290 O.2     1  UNL1       -0.3460
     21  C         24.2890  -23.4840  -17.4890 C.3     1  UNL1        0.2020
     22  C         24.5640  -22.1420  -18.1450 C.3     1  UNL1        0.2020
     23  C         19.4730  -23.0340   -8.3930 C.2     1  UNL1        0.2560
     24  O         19.3010  -24.2200   -8.1390 O.2     1  UNL1       -0.2670
     25  N         19.0610  -21.9530   -7.6330 N.am    1  UNL1       -0.3230
     26  H         19.1490  -21.0380   -8.0560 H       1  UNL1        0.1690
     27  C         18.4280  -21.9850   -6.3730 C.2     1  UNL1        0.0350
     28  C         19.0560  -21.3010   -5.3240 C.2     1  UNL1        0.0290
     29  C         18.4990  -21.2920   -4.0440 C.2     1  UNL1        0.0030
     30  C         17.3060  -21.9690   -3.7980 C.2     1  UNL1        0.0160
     31  C         16.6600  -22.6600   -4.8320 C.2     1  UNL1        0.0500
     32  C         17.2340  -22.6640   -6.1170 C.2     1  UNL1        0.0450
     33  C         15.3750  -23.4110   -4.5840 C.3     1  UNL1        0.4170
     34  F         15.4650  -24.2620   -3.5240 F       1  UNL1       -0.1660
     35  F         14.9910  -24.1700   -5.6460 F       1  UNL1       -0.1660
     36  F         14.3170  -22.5940   -4.3120 F       1  UNL1       -0.1660
@<TRIPOS>BOND
     1    22    21    1
     2    22    18    1
     3    21    20    1
     4    18    16    1
     5    20    17    1
     6    16    17    2
     7    16    15    1
     8    17    19    1
     9    15    14    2
    10    19    13    2
    11    14    13    1
    12    13    12    1
    13     2     3    1
    14     2     1    2
    15    12    11    1
    16     3     4    2
    17    10     7    1
    18     7     1    1
    19     7     8   am
    20    11     8    1
    21     1     6    1
    22     8     9    2
    23     4     5    1
    24     6     5    2
    25     5    23    1
    26    23    24    2
    27    23    25   am
    28    26    25    1
    29    25    27    1
    30    27    32    2
    31    27    28    1
    32    32    31    1
    33    35    33    1
    34    28    29    2
    35    31    33    1
    36    31    30    2
    37    33    36    1
    38    33    34    1
    39    29    30    1
