@<TRIPOS>MOLECULE
2697_out_ligand_01.pdbqt
 34 37 0 0 0
SMALL
GASTEIGER

@<TRIPOS>ATOM
      1  C         20.4160  -23.1690   -7.7710 C.2     1  UNL1        0.0350
      2  C         21.2190  -22.0320   -7.6130 C.2     1  UNL1        0.0310
      3  C         22.3950  -21.8850   -8.3530 C.2     1  UNL1        0.0270
      4  C         22.7710  -22.8840   -9.2550 C.2     1  UNL1        0.0750
      5  C         21.9970  -24.0340   -9.4030 C.2     1  UNL1        0.0270
      6  C         20.8190  -24.1710   -8.6630 C.2     1  UNL1        0.0310
      7  N         19.2300  -23.2280   -7.0120 N.am    1  UNL1       -0.3230
      8  C         18.6850  -22.2190   -6.2340 C.2     1  UNL1        0.2570
      9  O         19.1020  -21.0820   -6.0770 O.2     1  UNL1       -0.2670
     10  H         18.6890  -24.0840   -7.0830 H       1  UNL1        0.1690
     11  C         17.4590  -22.6320   -5.5160 C.2     1  UNL1        0.0490
     12  C         17.3750  -22.2730   -4.1590 C.2     1  UNL1        0.0180
     13  C         16.2200  -22.5440   -3.4300 C.2     1  UNL1        0.0010
     14  C         15.1410  -23.1580   -4.0580 C.2     1  UNL1        0.0010
     15  C         15.2250  -23.5130   -5.4070 C.2     1  UNL1        0.0190
     16  C         16.3920  -23.2810   -6.1560 C.2     1  UNL1        0.0160
     17  S         16.3460  -23.8170   -7.8640 S.3     1  UNL1       -0.1260
     18  C         16.2750  -22.2340   -8.7960 C.3     1  UNL1        0.1110
     19  C         16.7100  -22.2640  -10.2640 C.3     1  UNL1        0.1310
     20  C         18.0140  -22.9940  -10.5540 C.3     1  UNL1        0.0350
     21  C         18.9780  -21.8910  -10.9450 C.3     1  UNL1        0.0290
     22  C         18.0570  -20.8590  -11.5550 C.3     1  UNL1        0.1680
     23  O         16.8280  -20.9260  -10.8080 O.3     1  UNL1       -0.3850
     24  S         24.2570  -22.6800  -10.2090 S.O2    1  UNL1        0.2480
     25  O         24.5130  -21.2580  -10.3040 O.2     1  UNL1       -0.2050
     26  O         25.2420  -23.5980   -9.6780 O.2     1  UNL1       -0.2050
     27  N         23.7580  -23.3390  -11.6760 N.pl3   1  UNL1       -0.1480
     28  H         24.3890  -24.1180  -11.8590 H       1  UNL1        0.1490
     29  C         23.9400  -22.4400  -12.7280 C.cat   1  UNL1        0.2150
     30  N         25.1250  -22.4400  -13.3420 N.2     1  UNL1       -0.2300
     31  C         25.2250  -21.6040  -14.3900 C.2     1  UNL1        0.1210
     32  C         24.1990  -20.7850  -14.8060 C.2     1  UNL1        0.0390
     33  C         23.0370  -20.8620  -14.0700 C.2     1  UNL1        0.1210
     34  N         22.8780  -21.6850  -13.0160 N.2     1  UNL1       -0.2300
@<TRIPOS>BOND
     1    32    31    2
     2    32    33    1
     3    31    30    1
     4    33    34    2
     5    30    29    2
     6    34    29    1
     7    29    27    1
     8    28    27    1
     9    27    24    1
    10    22    21    1
    11    22    23    1
    12    21    20    1
    13    23    19    1
    14    20    19    1
    15    25    24    2
    16    19    18    1
    17    24    26    2
    18    24     4    1
    19     5     4    2
    20     5     6    1
    21     4     3    1
    22    18    17    1
    23     6     1    2
    24     3     2    2
    25    17    16    1
    26     1     2    1
    27     1     7    1
    28    10     7    1
    29     7     8   am
    30     8     9    2
    31     8    11    1
    32    16    11    2
    33    16    15    1
    34    11    12    1
    35    15    14    2
    36    12    13    2
    37    14    13    1
