@<TRIPOS>MOLECULE
26989_out_ligand_01.pdbqt
 39 42 0 0 0
SMALL
GASTEIGER

@<TRIPOS>ATOM
      1  C         20.2690  -21.8760  -11.2920 C.2     1  UNL1        0.0320
      2  C         20.8120  -22.7340  -10.3270 C.2     1  UNL1        0.0190
      3  C         22.1480  -23.1360  -10.4200 C.2     1  UNL1        0.0310
      4  C         22.9390  -22.6860  -11.4770 C.2     1  UNL1        0.0420
      5  C         22.4010  -21.8470  -12.4520 C.2     1  UNL1        0.0310
      6  C         21.0670  -21.4440  -12.3610 C.2     1  UNL1        0.0190
      7  N         24.2820  -23.1290  -11.6020 N.pl3   1  UNL1       -0.2810
      8  H         24.5230  -23.6730  -12.4300 H       1  UNL1        0.1790
      9  S         25.5150  -22.0290  -11.2380 S.O2    1  UNL1        0.2630
     10  O         24.9160  -21.0320  -10.3750 O.2     1  UNL1       -0.2000
     11  O         26.7020  -22.7480  -10.8350 O.2     1  UNL1       -0.2000
     12  C         25.8180  -21.2560  -12.8100 C.2     1  UNL1        0.0820
     13  C         25.7130  -22.0350  -13.9890 C.2     1  UNL1        0.0280
     14  C         25.9320  -21.4580  -15.2450 C.2     1  UNL1        0.0330
     15  C         26.2400  -20.1170  -15.2620 C.ar    1  UNL1        0.0630
     16  N         26.5080  -19.2820  -16.3400 N.ar    1  UNL1       -0.3070
     17  C         26.3300  -19.3550  -14.0960 C.ar    1  UNL1        0.0640
     18  C         26.7660  -17.9910  -15.8580 C.ar    1  UNL1        0.3250
     19  H         26.5170  -19.5250  -17.3170 H       1  UNL1        0.1700
     20  O         27.0360  -17.0080  -16.5250 O.2     1  UNL1       -0.2470
     21  N         26.6530  -18.0530  -14.4620 N.ar    1  UNL1       -0.3060
     22  H         26.7900  -17.2610  -13.8550 H       1  UNL1        0.1700
     23  C         26.1190  -19.8880  -12.8500 C.2     1  UNL1        0.0570
     24  C         18.8490  -21.4280  -11.2460 C.2     1  UNL1        0.2510
     25  N         18.0130  -22.1140  -10.3890 N.am    1  UNL1       -0.3570
     26  H         18.4050  -22.7580   -9.7170 H       1  UNL1        0.1620
     27  O         18.4860  -20.4720  -11.9220 O.2     1  UNL1       -0.2680
     28  C         16.6260  -21.7200  -10.2210 C.3     1  UNL1        0.1270
     29  C         15.7870  -22.8160   -9.5590 C.3     1  UNL1        0.0580
     30  C         16.2930  -23.1480   -8.1780 C.2     1  UNL1       -0.0540
     31  C         16.2150  -24.4590   -7.6990 C.2     1  UNL1        0.0100
     32  C         16.7010  -24.7810   -6.4300 C.2     1  UNL1        0.0400
     33  C         17.2730  -23.7960   -5.6190 C.2     1  UNL1        0.1010
     34  C         17.3580  -22.4710   -6.0920 C.2     1  UNL1        0.1020
     35  C         16.8710  -22.1590   -7.3680 C.2     1  UNL1        0.0460
     36  O         17.7760  -24.0210   -4.3610 O.2     1  UNL1       -0.3530
     37  C         16.8800  -23.9110   -3.2650 C.3     1  UNL1        0.2100
     38  O         17.9360  -21.5630   -5.2390 O.2     1  UNL1       -0.3530
     39  C         19.1900  -21.0130   -5.6120 C.3     1  UNL1        0.2100
@<TRIPOS>BOND
     1    19    16    1
     2    20    18    2
     3    16    18   ar
     4    16    15   ar
     5    18    21   ar
     6    15    14    2
     7    15    17   ar
     8    14    13    1
     9    21    17   ar
    10    21    22    1
    11    17    23    2
    12    13    12    2
    13    23    12    1
    14    12     9    1
    15     5     6    1
    16     5     4    2
    17     8     7    1
    18     6     1    2
    19    27    24    2
    20     7     4    1
    21     7     9    1
    22     4     3    1
    23     1    24    1
    24     1     2    1
    25    24    25   am
    26     9    11    2
    27     9    10    2
    28     3     2    2
    29    25    28    1
    30    25    26    1
    31    28    29    1
    32    29    30    1
    33    30    31    2
    34    30    35    1
    35    31    32    1
    36    35    34    2
    37    32    33    2
    38    34    33    1
    39    34    38    1
    40    33    36    1
    41    39    38    1
    42    36    37    1
