@<TRIPOS>MOLECULE
26994_out_ligand_01.pdbqt
 36 39 0 0 0
SMALL
GASTEIGER

@<TRIPOS>ATOM
      1  C         19.9960  -21.9020  -11.1470 C.2     1  UNL1        0.0320
      2  C         20.5870  -22.7900  -10.2390 C.2     1  UNL1        0.0190
      3  C         21.9200  -23.1750  -10.3940 C.2     1  UNL1        0.0310
      4  C         22.6650  -22.6730  -11.4600 C.2     1  UNL1        0.0420
      5  C         22.0820  -21.8010  -12.3800 C.2     1  UNL1        0.0310
      6  C         20.7470  -21.4160  -12.2260 C.2     1  UNL1        0.0190
      7  N         24.0060  -23.1040  -11.6380 N.pl3   1  UNL1       -0.2810
      8  H         24.2560  -24.0280  -11.2830 H       1  UNL1        0.1790
      9  S         25.2430  -21.9940  -11.3200 S.O2    1  UNL1        0.2630
     10  O         26.4350  -22.7820  -11.0910 O.2     1  UNL1       -0.2000
     11  O         24.7870  -21.0310  -10.3420 O.2     1  UNL1       -0.2000
     12  C         25.4390  -21.1760  -12.8840 C.2     1  UNL1        0.0820
     13  C         25.0760  -21.8640  -14.0690 C.2     1  UNL1        0.0280
     14  C         25.2280  -21.2560  -15.3210 C.2     1  UNL1        0.0330
     15  C         25.7460  -19.9820  -15.3270 C.ar    1  UNL1        0.0630
     16  N         26.0070  -19.1370  -16.4000 N.ar    1  UNL1       -0.3070
     17  C         26.1110  -19.3150  -14.1570 C.ar    1  UNL1        0.0640
     18  C         26.5390  -17.9360  -15.9080 C.ar    1  UNL1        0.3250
     19  H         25.8600  -19.3230  -17.3780 H       1  UNL1        0.1700
     20  O         26.8840  -16.9710  -16.5680 O.2     1  UNL1       -0.2470
     21  N         26.5950  -18.0610  -14.5130 N.ar    1  UNL1       -0.3060
     22  H         26.9400  -17.3400  -13.9000 H       1  UNL1        0.1700
     23  C         25.9790  -19.8820  -12.9140 C.2     1  UNL1        0.0570
     24  C         18.5670  -21.5320  -10.9470 C.2     1  UNL1        0.2510
     25  O         18.0910  -20.5790  -11.5530 O.2     1  UNL1       -0.2680
     26  N         17.8370  -22.3340  -10.0910 N.am    1  UNL1       -0.3570
     27  H         18.2060  -23.2550   -9.8890 H       1  UNL1        0.1620
     28  C         16.4020  -22.1480   -9.9570 C.3     1  UNL1        0.1270
     29  C         15.7580  -23.2900   -9.1720 C.3     1  UNL1        0.0580
     30  C         16.2730  -23.3660   -7.7570 C.2     1  UNL1       -0.0570
     31  C         15.8540  -22.4330   -6.7960 C.2     1  UNL1        0.0100
     32  C         16.3460  -22.4970   -5.4910 C.2     1  UNL1        0.0430
     33  C         17.2570  -23.4890   -5.1490 C.2     1  UNL1        0.1160
     34  F         17.7270  -23.5480   -3.8970 F       1  UNL1       -0.2060
     35  C         17.6890  -24.4170   -6.0880 C.2     1  UNL1        0.0430
     36  C         17.1990  -24.3560   -7.3940 C.2     1  UNL1        0.0100
@<TRIPOS>BOND
     1    19    16    1
     2    20    18    2
     3    16    18   ar
     4    16    15   ar
     5    18    21   ar
     6    15    14    2
     7    15    17   ar
     8    14    13    1
     9    21    17   ar
    10    21    22    1
    11    17    23    2
    12    13    12    2
    13    23    12    1
    14    12     9    1
    15     5     6    1
    16     5     4    2
    17     6     1    2
    18     7     4    1
    19     7     9    1
    20     7     8    1
    21    25    24    2
    22     4     3    1
    23     9    10    2
    24     9    11    2
    25     1    24    1
    26     1     2    1
    27    24    26   am
    28     3     2    2
    29    26    28    1
    30    26    27    1
    31    28    29    1
    32    29    30    1
    33    30    36    2
    34    30    31    1
    35    36    35    1
    36    31    32    2
    37    35    33    2
    38    32    33    1
    39    33    34    1
