@<TRIPOS>MOLECULE
26997_out_ligand_01.pdbqt
 32 35 0 0 0
SMALL
GASTEIGER

@<TRIPOS>ATOM
      1  C         19.2400  -22.3150  -10.4840 C.2     1  UNL1        0.0320
      2  C         19.8300  -23.1890   -9.5580 C.2     1  UNL1        0.0180
      3  C         19.0560  -23.8060   -8.5730 C.2     1  UNL1        0.0260
      4  C         17.6850  -23.5440   -8.5170 C.2     1  UNL1        0.0800
      5  C         17.0870  -22.6550   -9.4170 C.2     1  UNL1        0.0260
      6  C         17.8670  -22.0370  -10.3990 C.2     1  UNL1        0.0180
      7  C         20.1130  -21.6760  -11.5120 C.2     1  UNL1        0.2560
      8  N         21.3730  -22.2250  -11.6290 N.am    1  UNL1       -0.3210
      9  H         21.6610  -22.9370  -10.9680 H       1  UNL1        0.1690
     10  O         19.6720  -20.7180  -12.1340 O.2     1  UNL1       -0.2670
     11  C         22.4020  -21.8700  -12.5320 C.2     1  UNL1        0.0680
     12  C         22.2220  -20.9900  -13.6000 C.2     1  UNL1        0.0320
     13  C         23.2850  -20.6970  -14.4550 C.2     1  UNL1        0.0020
     14  C         24.5310  -21.2830  -14.2490 C.2     1  UNL1        0.0030
     15  C         24.7230  -22.1660  -13.1840 C.2     1  UNL1        0.0390
     16  C         23.6680  -22.4620  -12.3180 C.2     1  UNL1        0.0950
     17  O         23.7370  -23.3200  -11.2440 O.2     1  UNL1       -0.3490
     18  C         24.3800  -22.8780  -10.0490 C.3     1  UNL1        0.1710
     19  C         23.3780  -22.7560   -8.9140 C.3     1  UNL1        0.0340
     20  S         16.6710  -24.3130   -7.2670 S.O2    1  UNL1        0.2650
     21  O         17.5860  -25.0810   -6.4480 O.2     1  UNL1       -0.2000
     22  O         15.5560  -24.9500   -7.9390 O.2     1  UNL1       -0.2000
     23  N         16.0760  -22.9400   -6.4000 N.pl3   1  UNL1       -0.2710
     24  C         14.7370  -23.1180   -5.7690 C.3     1  UNL1        0.1420
     25  C         14.8630  -23.6780   -4.3610 C.3     1  UNL1        0.0260
     26  C         15.6670  -22.7290   -3.4860 C.3     1  UNL1        0.0420
     27  C         16.8950  -22.1980   -4.1740 C.2     1  UNL1       -0.0310
     28  C         17.8680  -21.5450   -3.3970 C.2     1  UNL1        0.0090
     29  C         17.0570  -22.2670   -5.5680 C.2     1  UNL1        0.0510
     30  C         18.9870  -20.9680   -3.9960 C.2     1  UNL1        0.0010
     31  C         19.1350  -21.0200   -5.3780 C.2     1  UNL1        0.0020
     32  C         18.1710  -21.6600   -6.1590 C.2     1  UNL1        0.0310
@<TRIPOS>BOND
     1    13    14    2
     2    13    12    1
     3    14    15    1
     4    12    11    2
     5    15    16    2
     6    11    16    1
     7    11     8    1
     8    16    17    1
     9    10     7    2
    10     8     7   am
    11     8     9    1
    12     7     1    1
    13    17    18    1
    14     1     6    2
    15     1     2    1
    16     6     5    1
    17    18    19    1
    18     2     3    2
    19     5     4    2
    20     3     4    1
    21     4    20    1
    22    22    20    2
    23    20    21    2
    24    20    23    1
    25    23    24    1
    26    23    29    1
    27    32    29    1
    28    32    31    2
    29    24    25    1
    30    29    27    2
    31    31    30    1
    32    25    26    1
    33    27    26    1
    34    27    28    1
    35    30    28    2
