@<TRIPOS>MOLECULE
26991_out_ligand_01.pdbqt
 31 34 0 0 0
SMALL
GASTEIGER

@<TRIPOS>ATOM
      1  C         18.9800  -22.1090  -10.5380 C.2     1  UNL1        0.0320
      2  C         17.5910  -21.9440  -10.4100 C.2     1  UNL1        0.0180
      3  C         16.8860  -22.6240   -9.4160 C.2     1  UNL1        0.0260
      4  C         17.5780  -23.4610   -8.5380 C.2     1  UNL1        0.0800
      5  C         18.9620  -23.6320   -8.6490 C.2     1  UNL1        0.0260
      6  C         19.6640  -22.9480   -9.6460 C.2     1  UNL1        0.0180
      7  S         16.7040  -24.3380   -7.2520 S.O2    1  UNL1        0.2650
      8  O         17.7280  -25.0450   -6.5110 O.2     1  UNL1       -0.2000
      9  O         15.6080  -25.0500   -7.8780 O.2     1  UNL1       -0.2000
     10  N         16.0530  -23.0410   -6.3130 N.pl3   1  UNL1       -0.2710
     11  C         14.7370  -23.3190   -5.6650 C.3     1  UNL1        0.1420
     12  C         14.9190  -23.9350   -4.2880 C.3     1  UNL1        0.0260
     13  C         15.6890  -22.9870   -3.3840 C.3     1  UNL1        0.0420
     14  C         16.8760  -22.3590   -4.0670 C.2     1  UNL1       -0.0310
     15  C         17.8290  -21.6930   -3.2770 C.2     1  UNL1        0.0090
     16  C         17.0130  -22.3550   -5.4660 C.2     1  UNL1        0.0510
     17  C         18.9050  -21.0310   -3.8680 C.2     1  UNL1        0.0010
     18  C         19.0300  -21.0110   -5.2520 C.2     1  UNL1        0.0020
     19  C         18.0830  -21.6620   -6.0470 C.2     1  UNL1        0.0310
     20  C         19.6810  -21.3510  -11.6140 C.2     1  UNL1        0.2510
     21  O         19.0960  -20.4530  -12.2080 O.2     1  UNL1       -0.2680
     22  N         20.9720  -21.7400  -11.8990 N.am    1  UNL1       -0.3530
     23  H         21.3000  -22.6290  -11.5540 H       1  UNL1        0.1630
     24  C         21.7020  -21.1730  -13.0110 C.3     1  UNL1        0.1610
     25  C         23.0800  -21.7760  -13.1020 C.2     1  UNL1       -0.0400
     26  C         23.5740  -22.5950  -12.0740 C.2     1  UNL1        0.0120
     27  C         24.8400  -23.1730  -12.1820 C.2     1  UNL1        0.0430
     28  C         25.6080  -22.9410  -13.3180 C.2     1  UNL1        0.1160
     29  F         26.8180  -23.5060  -13.4190 F       1  UNL1       -0.2060
     30  C         25.1380  -22.1350  -14.3470 C.2     1  UNL1        0.0430
     31  C         23.8740  -21.5540  -14.2410 C.2     1  UNL1        0.0120
@<TRIPOS>BOND
     1    30    31    1
     2    30    28    2
     3    31    25    2
     4    29    28    1
     5    28    27    1
     6    25    24    1
     7    25    26    1
     8    24    22    1
     9    21    20    2
    10    27    26    2
    11    22    20   am
    12    22    23    1
    13    20     1    1
    14     1     2    2
    15     1     6    1
    16     2     3    1
    17     6     5    2
    18     3     4    2
    19     5     4    1
    20     4     7    1
    21     9     7    2
    22     7     8    2
    23     7    10    1
    24    10    11    1
    25    10    16    1
    26    19    16    1
    27    19    18    2
    28    11    12    1
    29    16    14    2
    30    18    17    1
    31    12    13    1
    32    14    13    1
    33    14    15    1
    34    17    15    2
