@<TRIPOS>MOLECULE
269_out_ligand_01.pdbqt
 38 41 0 0 0
SMALL
GASTEIGER

@<TRIPOS>ATOM
      1  C         21.6960  -23.3910   -9.3000 C.2     1  UNL1        0.0320
      2  C         22.4090  -22.4790   -8.5100 C.2     1  UNL1        0.0190
      3  C         23.3840  -21.6630   -9.0920 C.2     1  UNL1        0.0250
      4  C         23.6470  -21.7580  -10.4580 C.2     1  UNL1        0.0220
      5  C         22.9090  -22.6280  -11.2600 C.2     1  UNL1        0.0250
      6  C         21.9360  -23.4460  -10.6790 C.2     1  UNL1        0.0190
      7  C         20.6530  -24.2830   -8.7220 C.2     1  UNL1        0.2510
      8  N         19.6460  -23.6590   -8.0220 N.am    1  UNL1       -0.3540
      9  H         19.7230  -22.6800   -7.7860 H       1  UNL1        0.1620
     10  O         20.7310  -25.4980   -8.8720 O.2     1  UNL1       -0.2680
     11  C         18.5530  -24.3910   -7.3930 C.3     1  UNL1        0.1640
     12  C         17.3420  -23.4900   -6.9860 C.3     1  UNL1        0.2760
     13  C         17.7380  -22.6720   -5.7470 C.2     1  UNL1        0.0100
     14  C         18.5700  -21.5400   -5.8660 C.2     1  UNL1        0.0120
     15  C         18.9790  -20.8240   -4.7410 C.2     1  UNL1        0.0010
     16  C         18.5740  -21.2350   -3.4760 C.2     1  UNL1        0.0030
     17  C         17.7450  -22.3510   -3.3350 C.2     1  UNL1        0.0370
     18  C         17.3190  -23.0650   -4.4610 C.2     1  UNL1        0.0760
     19  O         16.5400  -24.1900   -4.3800 O.2     1  UNL1       -0.3550
     20  C         15.1440  -23.9500   -4.2110 C.3     1  UNL1        0.2100
     21  N         16.8160  -22.6260   -8.0810 N.3     1  UNL1        0.0990
     22  C         17.7350  -22.4970   -9.2170 C.3     1  UNL1        0.2730
     23  C         16.8490  -21.9500  -10.3280 C.3     1  UNL1        0.0320
     24  C         15.4340  -22.3710   -9.9560 C.3     1  UNL1        0.0320
     25  C         15.5900  -23.1760   -8.6740 C.3     1  UNL1        0.2730
     26  N         24.6330  -20.8970  -11.0390 N.pl3   1  UNL1       -0.1810
     27  H         24.9170  -20.1730  -10.3730 H       1  UNL1        0.1460
     28  S         26.0670  -21.6860  -11.5230 S.O2    1  UNL1        0.2450
     29  O         26.2820  -22.8830  -10.7420 O.2     1  UNL1       -0.2060
     30  O         27.0690  -20.6500  -11.6530 O.2     1  UNL1       -0.2060
     31  C         25.5920  -22.2080  -13.1550 C.2     1  UNL1        0.0750
     32  C         25.1450  -21.2700  -14.0930 C.2     1  UNL1        0.0280
     33  C         24.7550  -21.7110  -15.3590 C.2     1  UNL1        0.0440
     34  C         24.8240  -23.0670  -15.6730 C.2     1  UNL1        0.1220
     35  F         24.4270  -23.4700  -16.8900 F       1  UNL1       -0.2060
     36  C         25.2920  -24.0100  -14.7510 C.2     1  UNL1       -0.0220
     37  C         25.3300  -25.4650  -15.1060 C.3     1  UNL1        0.0510
     38  C         25.6740  -23.5700  -13.4770 C.2     1  UNL1        0.0340
@<TRIPOS>BOND
     1    35    34    1
     2    34    33    2
     3    34    36    1
     4    33    32    1
     5    37    36    1
     6    36    38    2
     7    32    31    2
     8    38    31    1
     9    31    28    1
    10    30    28    2
    11    28    26    1
    12    28    29    2
    13     5     6    1
    14     5     4    2
    15    26     4    1
    16    26    27    1
    17     6     1    2
    18     4     3    1
    19    23    24    1
    20    23    22    1
    21    24    25    1
    22     1     7    1
    23     1     2    1
    24    22    21    1
    25     3     2    2
    26    10     7    2
    27     7     8   am
    28    25    21    1
    29    21    12    1
    30     8     9    1
    31     8    11    1
    32    11    12    1
    33    12    13    1
    34    14    13    2
    35    14    15    1
    36    13    18    1
    37    15    16    2
    38    18    19    1
    39    18    17    2
    40    19    20    1
    41    16    17    1
