@<TRIPOS>MOLECULE
2700_out_ligand_01.pdbqt
 34 37 0 0 0
SMALL
GASTEIGER

@<TRIPOS>ATOM
      1  C         17.2130  -22.5690   -9.4340 C.2     1  UNL1        0.0770
      2  C         16.4360  -21.7130  -10.2160 C.2     1  UNL1        0.0250
      3  C         17.0310  -21.0470  -11.2830 C.2     1  UNL1        0.0040
      4  C         18.3900  -21.2280  -11.5570 C.2     1  UNL1        0.0290
      5  C         19.1750  -22.0700  -10.7640 C.2     1  UNL1        0.0360
      6  C         18.5780  -22.7390   -9.6910 C.2     1  UNL1        0.0540
      7  N         20.5570  -22.2750  -10.9570 N.am    1  UNL1       -0.3230
      8  C         21.5320  -22.3830   -9.9810 C.2     1  UNL1        0.2560
      9  O         21.3890  -22.2010   -8.7780 O.2     1  UNL1       -0.2670
     10  H         20.8690  -22.3020  -11.9210 H       1  UNL1        0.1690
     11  C         22.8950  -22.7150  -10.4880 C.2     1  UNL1        0.0340
     12  C         23.9240  -23.0960   -9.6210 C.2     1  UNL1        0.0170
     13  C         25.1850  -23.3830  -10.1360 C.2     1  UNL1        0.0030
     14  C         25.4260  -23.2920  -11.5100 C.2     1  UNL1        0.0300
     15  C         24.4080  -22.8940  -12.3910 C.2     1  UNL1        0.0390
     16  C         23.1410  -22.5980  -11.8660 C.2     1  UNL1        0.0470
     17  N         24.6590  -22.7830  -13.7970 N.pl3   1  UNL1       -0.3330
     18  C         24.2980  -21.7320  -14.6220 C.2     1  UNL1        0.0960
     19  C         24.7190  -21.9910  -15.9090 C.2     1  UNL1        0.0190
     20  C         25.3600  -23.2430  -15.8920 C.2     1  UNL1        0.0190
     21  C         25.3090  -23.7090  -14.5950 C.2     1  UNL1        0.0960
     22  S         16.4730  -23.4130   -8.0530 S.O2    1  UNL1        0.2460
     23  O         16.0010  -24.6950   -8.5350 O.2     1  UNL1       -0.2060
     24  O         15.5720  -22.4830   -7.4030 O.2     1  UNL1       -0.2060
     25  N         17.7810  -23.7340   -7.0330 N.pl3   1  UNL1       -0.1790
     26  H         18.6120  -23.9650   -7.5840 H       1  UNL1        0.1460
     27  C         18.0500  -22.8070   -5.9740 C.2     1  UNL1        0.0560
     28  C         18.8770  -21.7050   -6.2010 C.2     1  UNL1        0.0270
     29  C         19.1710  -20.8320   -5.1550 C.2     1  UNL1        0.0020
     30  C         18.6350  -21.0600   -3.8880 C.2     1  UNL1        0.0030
     31  C         17.8100  -22.1670   -3.6560 C.2     1  UNL1        0.0380
     32  C         17.5220  -23.0560   -4.6940 C.2     1  UNL1        0.0900
     33  O         16.7350  -24.1770   -4.5810 O.2     1  UNL1       -0.3540
     34  C         15.3960  -23.9580   -4.1510 C.3     1  UNL1        0.2100
@<TRIPOS>BOND
     1    19    20    1
     2    19    18    2
     3    20    21    2
     4    18    17    1
     5    21    17    1
     6    17    15    1
     7    15    16    1
     8    15    14    2
     9    10     7    1
    10    16    11    2
    11     4     3    2
    12     4     5    1
    13    14    13    1
    14     3     2    1
    15     7     5    1
    16     7     8   am
    17     5     6    2
    18    11     8    1
    19    11    12    1
    20     2     1    2
    21    13    12    2
    22     8     9    2
    23     6     1    1
    24     1    22    1
    25    23    22    2
    26    22    24    2
    27    22    25    1
    28    26    25    1
    29    25    27    1
    30    28    27    2
    31    28    29    1
    32    27    32    1
    33    29    30    2
    34    32    33    1
    35    32    31    2
    36    33    34    1
    37    30    31    1
