@<TRIPOS>MOLECULE
27003_out_ligand_01.pdbqt
 38 43 0 0 0
SMALL
GASTEIGER

@<TRIPOS>ATOM
      1  O         23.8450  -23.7440   -8.9440 O.2     1  UNL1       -0.2670
      2  C         23.6380  -23.0990   -9.9640 C.2     1  UNL1        0.2560
      3  N         22.4230  -22.5870  -10.3860 N.am    1  UNL1       -0.3230
      4  H         22.4400  -21.9260  -11.1520 H       1  UNL1        0.1690
      5  C         24.7990  -22.7750  -10.8410 C.2     1  UNL1        0.0330
      6  C         26.0420  -23.4060  -10.6800 C.2     1  UNL1        0.0170
      7  C         27.1210  -23.0580  -11.4980 C.2     1  UNL1        0.0030
      8  C         26.9680  -22.0740  -12.4740 C.2     1  UNL1        0.0250
      9  C         25.7300  -21.4410  -12.6270 C.2     1  UNL1        0.0760
     10  C         24.6470  -21.7780  -11.8100 C.2     1  UNL1        0.0410
     11  S         25.5250  -20.1480  -13.8350 S.O2    1  UNL1        0.2480
     12  O         24.1040  -20.0580  -14.0950 O.2     1  UNL1       -0.2050
     13  O         26.2800  -18.9960  -13.3800 O.2     1  UNL1       -0.2050
     14  N         26.3320  -20.8140  -15.1890 N.pl3   1  UNL1       -0.1710
     15  C         26.8180  -19.8150  -16.2060 C.3     1  UNL1        0.1180
     16  C         25.9830  -20.0270  -17.4800 C.3     1  UNL1        0.0560
     17  C         25.3910  -21.3760  -17.2510 C.2     1  UNL1       -0.0350
     18  C         24.6900  -22.1660  -18.1460 C.2     1  UNL1        0.0090
     19  C         25.5630  -21.7740  -15.9280 C.2     1  UNL1        0.0310
     20  C         24.1800  -23.3860  -17.6950 C.2     1  UNL1        0.0010
     21  C         24.3730  -23.7930  -16.3660 C.2     1  UNL1        0.0020
     22  C         25.0730  -22.9840  -15.4690 C.2     1  UNL1        0.0250
     23  C         21.1570  -22.8220   -9.8090 C.2     1  UNL1        0.0350
     24  C         21.0530  -23.8800   -8.8990 C.2     1  UNL1        0.0300
     25  C         19.8340  -24.1620   -8.2710 C.2     1  UNL1        0.0170
     26  C         18.6990  -23.3920   -8.5440 C.2     1  UNL1        0.0120
     27  C         18.8110  -22.3210   -9.4360 C.2     1  UNL1        0.0170
     28  C         20.0290  -22.0430  -10.0700 C.2     1  UNL1        0.0300
     29  C         17.4480  -23.6830   -7.8550 C.ar    1  UNL1        0.1630
     30  N         16.4140  -24.2940   -8.3980 N.ar    1  UNL1       -0.1290
     31  N         15.4190  -24.3830   -7.4630 N.ar    1  UNL1       -0.1340
     32  C         15.8370  -23.8020   -6.3590 C.ar    1  UNL1        0.1300
     33  N         17.1130  -23.3310   -6.5620 N.ar    1  UNL1       -0.3160
     34  C         15.0370  -23.6850   -5.1060 C.3     1  UNL1        0.0810
     35  C         17.9010  -22.5160   -5.6590 C.3     1  UNL1        0.1320
     36  C         17.7250  -22.8480   -4.1810 C.3     1  UNL1        0.0200
     37  C         16.4670  -22.2460   -3.5580 C.3     1  UNL1        0.0020
     38  C         15.1960  -22.3440   -4.4030 C.3     1  UNL1        0.0080
@<TRIPOS>BOND
     1    18    20    1
     2    18    17    2
     3    20    21    2
     4    16    17    1
     5    16    15    1
     6    17    19    1
     7    21    22    1
     8    15    14    1
     9    19    22    2
    10    19    14    1
    11    14    11    1
    12    12    11    2
    13    11    13    2
    14    11     9    1
    15     9     8    2
    16     9    10    1
    17     8     7    1
    18    10     5    2
    19     7     6    2
    20     4     3    1
    21     5     6    1
    22     5     2    1
    23     3     2   am
    24     3    23    1
    25    28    23    2
    26    28    27    1
    27     2     1    2
    28    23    24    1
    29    27    26    2
    30    24    25    2
    31    26    25    1
    32    26    29    1
    33    30    29   ar
    34    30    31   ar
    35    29    33   ar
    36    31    32   ar
    37    33    32   ar
    38    33    35    1
    39    32    34    1
    40    35    36    1
    41    34    38    1
    42    38    37    1
    43    36    37    1
