@<TRIPOS>MOLECULE
27024_out_ligand_01.pdbqt
 35 37 0 0 0
SMALL
GASTEIGER

@<TRIPOS>ATOM
      1  C         19.7630  -21.8500  -11.4300 C.2     1  UNL1        0.0320
      2  C         20.4260  -21.1260  -12.4260 C.2     1  UNL1        0.0190
      3  C         21.8030  -21.2940  -12.6210 C.2     1  UNL1        0.0300
      4  C         22.5330  -22.1790  -11.8260 C.2     1  UNL1        0.0340
      5  C         21.8640  -22.8980  -10.8260 C.2     1  UNL1        0.0300
      6  C         20.4890  -22.7300  -10.6250 C.2     1  UNL1        0.0190
      7  C         18.3050  -21.6830  -11.1740 C.2     1  UNL1        0.2520
      8  N         17.6690  -22.7350  -10.5470 N.am    1  UNL1       -0.3480
      9  H         18.2440  -23.3560   -9.9890 H       1  UNL1        0.1630
     10  O         17.7310  -20.6470  -11.4920 O.2     1  UNL1       -0.2680
     11  C         16.3000  -22.5820  -10.0930 C.3     1  UNL1        0.2260
     12  C         16.1600  -23.1030   -8.6570 C.2     1  UNL1        0.2390
     13  N         16.4000  -22.1230   -7.7070 N.am    1  UNL1       -0.3250
     14  H         16.7680  -21.2490   -8.0640 H       1  UNL1        0.1690
     15  O         15.8240  -24.2680   -8.4490 O.2     1  UNL1       -0.2710
     16  C         16.2700  -22.2120   -6.2990 C.2     1  UNL1        0.0410
     17  C         15.0350  -22.4530   -5.6870 C.2     1  UNL1        0.0300
     18  C         14.9230  -22.5170   -4.3000 C.2     1  UNL1        0.0030
     19  C         16.0460  -22.3380   -3.5010 C.2     1  UNL1        0.0070
     20  C         17.3010  -22.0930   -4.0760 C.2     1  UNL1       -0.0540
     21  C         18.4750  -21.8980   -3.1530 C.3     1  UNL1        0.0490
     22  C         17.4240  -22.0330   -5.4880 C.2     1  UNL1       -0.0290
     23  C         18.7700  -21.7760   -6.1250 C.3     1  UNL1        0.0510
     24  N         23.9190  -22.3960  -11.9500 N.am    1  UNL1       -0.3270
     25  C         24.9410  -21.8280  -11.2160 C.2     1  UNL1        0.2310
     26  O         24.7940  -21.0280  -10.2910 O.2     1  UNL1       -0.2720
     27  H         24.2090  -23.0160  -12.6960 H       1  UNL1        0.1690
     28  C         26.3500  -22.3050  -11.5540 C.3     1  UNL1        0.1850
     29  S         26.8840  -22.0550  -13.2750 S.3     1  UNL1       -0.0800
     30  C         26.2230  -23.4610  -14.0250 C.ar    1  UNL1        0.1980
     31  N         25.6210  -24.4610  -13.4300 N.ar    1  UNL1       -0.1350
     32  N         25.2850  -25.3420  -14.4320 N.ar    1  UNL1        0.0180
     33  N         25.6700  -24.8880  -15.6180 N.ar    1  UNL1       -0.0030
     34  N         26.2590  -23.7060  -15.3660 N.ar    1  UNL1       -0.2590
     35  C         26.7840  -22.9050  -16.4350 C.3     1  UNL1        0.1770
@<TRIPOS>BOND
     1    35    34    1
     2    33    34   ar
     3    33    32   ar
     4    34    30   ar
     5    32    31   ar
     6    30    31   ar
     7    30    29    1
     8    29    28    1
     9    27    24    1
    10     3     2    1
    11     3     4    2
    12     2     1    2
    13    24     4    1
    14    24    25   am
    15     4     5    1
    16    28    25    1
    17    10     7    2
    18     1     7    1
    19     1     6    1
    20    25    26    2
    21     7     8   am
    22     5     6    2
    23     8    11    1
    24     8     9    1
    25    11    12    1
    26    12    15    2
    27    12    13   am
    28    14    13    1
    29    13    16    1
    30    16    17    2
    31    16    22    1
    32    23    22    1
    33    17    18    1
    34    22    20    2
    35    18    19    2
    36    20    19    1
    37    20    21    1
