@<TRIPOS>MOLECULE
27029_out_ligand_01.pdbqt
 35 37 0 0 0
SMALL
GASTEIGER

@<TRIPOS>ATOM
      1  C         21.9990  -22.5400  -10.5190 C.3     1  UNL1        0.1260
      2  C         22.1760  -22.5980   -8.9970 C.3     1  UNL1        0.1330
      3  C         21.0140  -23.3250   -8.3550 C.2     1  UNL1        0.2240
      4  N         20.1490  -22.4730   -7.6940 N.am    1  UNL1       -0.3270
      5  H         20.4260  -21.4880   -7.6850 H       1  UNL1        0.1690
      6  O         20.9290  -24.5480   -8.4240 O.2     1  UNL1       -0.2730
      7  C         19.0180  -22.8060   -6.9290 C.2     1  UNL1        0.0340
      8  C         18.6920  -21.9460   -5.8720 C.2     1  UNL1        0.0310
      9  C         17.5860  -22.2020   -5.0570 C.2     1  UNL1        0.0270
     10  C         16.7990  -23.3240   -5.3060 C.2     1  UNL1        0.0740
     11  C         17.1170  -24.1990   -6.3460 C.2     1  UNL1        0.0270
     12  C         18.2240  -23.9340   -7.1590 C.2     1  UNL1        0.0310
     13  S         15.3930  -23.6620   -4.2800 S.O2    1  UNL1        0.2390
     14  O         14.2890  -24.0430   -5.1300 O.2     1  UNL1       -0.2060
     15  O         15.8230  -24.4630   -3.1570 O.2     1  UNL1       -0.2060
     16  N         15.0230  -22.1240   -3.7030 N.3     1  UNL1       -0.2250
     17  H         15.7800  -21.7030   -3.1650 H       1  UNL1        0.1360
     18  H         14.7360  -21.5330   -4.4860 H       1  UNL1        0.1360
     19  N         22.9970  -21.7860  -11.2820 N.am    1  UNL1       -0.3480
     20  C         24.2820  -22.1990  -11.5450 C.2     1  UNL1        0.2530
     21  O         24.7090  -23.3350  -11.3790 O.2     1  UNL1       -0.2680
     22  H         22.8140  -20.7930  -11.3540 H       1  UNL1        0.1630
     23  C         25.1500  -21.1690  -12.1450 C.2     1  UNL1        0.0530
     24  C         26.0690  -20.5140  -11.3120 C.2     1  UNL1        0.0190
     25  C         26.8880  -19.5150  -11.8370 C.2     1  UNL1        0.0010
     26  C         26.7900  -19.1710  -13.1860 C.2     1  UNL1        0.0020
     27  C         25.8740  -19.8250  -14.0140 C.2     1  UNL1        0.0250
     28  C         25.0470  -20.8270  -13.4970 C.2     1  UNL1        0.0490
     29 CL         23.9630  -21.6230  -14.5770 Cl      1  UNL1       -0.0830
     30  C         20.6060  -22.0730  -10.9100 C.2     1  UNL1       -0.0350
     31  C         20.4060  -20.7560  -11.3530 C.2     1  UNL1        0.0090
     32  C         19.1290  -20.3070  -11.6940 C.2     1  UNL1        0.0010
     33  C         18.0360  -21.1640  -11.5940 C.2     1  UNL1        0.0000
     34  C         18.2180  -22.4720  -11.1570 C.2     1  UNL1        0.0010
     35  C         19.4930  -22.9250  -10.8170 C.2     1  UNL1        0.0090
@<TRIPOS>BOND
     1    29    28    1
     2    27    28    1
     3    27    26    2
     4    28    23    2
     5    26    25    1
     6    23    20    1
     7    23    24    1
     8    25    24    2
     9    32    33    2
    10    32    31    1
    11    33    34    1
    12    20    21    2
    13    20    19   am
    14    22    19    1
    15    31    30    2
    16    19     1    1
    17    34    35    2
    18    30    35    1
    19    30     1    1
    20     1     2    1
    21     2     3    1
    22     6     3    2
    23     3     4   am
    24     4     5    1
    25     4     7    1
    26    12     7    2
    27    12    11    1
    28     7     8    1
    29    11    10    2
    30     8     9    2
    31    10     9    1
    32    10    13    1
    33    14    13    2
    34    18    16    1
    35    13    16    1
    36    13    15    2
    37    16    17    1
