@<TRIPOS>MOLECULE
27039_out_ligand_01.pdbqt
 38 42 0 0 0
SMALL
GASTEIGER

@<TRIPOS>ATOM
      1  O         22.0430  -24.4180   -8.9270 O.2     1  UNL1       -0.2660
      2  C         21.4650  -23.5120   -9.5000 C.2     1  UNL1        0.2770
      3  N         21.9560  -22.6170  -10.4280 N.am    1  UNL1       -0.3220
      4  H         21.2460  -22.0480  -10.8780 H       1  UNL1        0.1690
      5  C         19.9800  -23.2750   -9.2290 C.ar    1  UNL1        0.1560
      6  N         19.5010  -23.8900   -8.1860 N.ar    1  UNL1       -0.1630
      7  N         18.1700  -23.7280   -7.8700 N.ar    1  UNL1       -0.2290
      8  C         17.2780  -22.9610   -8.6140 C.ar    1  UNL1        0.2750
      9  O         16.0890  -22.8190   -8.3340 O.2     1  UNL1       -0.2660
     10  C         17.8220  -22.2990   -9.8150 C.ar    1  UNL1        0.0460
     11  C         16.9810  -21.5280  -10.6290 C.2     1  UNL1        0.0180
     12  C         19.1700  -22.4400  -10.1320 C.ar    1  UNL1        0.0160
     13  C         17.4930  -20.8970  -11.7620 C.2     1  UNL1        0.0010
     14  C         18.8400  -21.0430  -12.0850 C.2     1  UNL1        0.0010
     15  C         19.6790  -21.8180  -11.2790 C.2     1  UNL1        0.0150
     16  C         17.7290  -24.3060   -6.6030 C.3     1  UNL1        0.1930
     17  C         17.8940  -23.3360   -5.4540 C.2     1  UNL1       -0.0380
     18  C         18.5820  -22.1290   -5.6360 C.2     1  UNL1        0.0090
     19  C         18.7040  -21.2190   -4.5860 C.2     1  UNL1        0.0010
     20  C         18.1410  -21.5070   -3.3450 C.2     1  UNL1        0.0000
     21  C         17.4480  -22.6990   -3.1540 C.2     1  UNL1        0.0010
     22  C         17.3210  -23.6090   -4.2040 C.2     1  UNL1        0.0090
     23  C         23.2790  -22.4830  -10.8800 C.2     1  UNL1        0.0360
     24  C         24.0490  -21.4610  -10.3040 C.2     1  UNL1        0.0290
     25  C         25.3760  -21.2570  -10.6890 C.2     1  UNL1        0.0040
     26  C         25.9530  -22.0800  -11.6510 C.2     1  UNL1        0.0250
     27  C         25.1960  -23.1120  -12.2120 C.2     1  UNL1        0.0820
     28  C         23.8580  -23.3070  -11.8440 C.2     1  UNL1        0.0540
     29  S         25.9210  -24.1330  -13.4670 S.O2    1  UNL1        0.2640
     30  O         24.8520  -24.9390  -14.0320 O.2     1  UNL1       -0.2000
     31  O         27.1180  -24.7630  -12.9600 O.2     1  UNL1       -0.2000
     32  N         26.3220  -23.0610  -14.6750 N.3     1  UNL1       -0.2680
     33  H         27.1370  -22.5060  -14.4320 H       1  UNL1        0.1800
     34  C         25.6280  -22.8340  -15.8560 C.3     1  UNL1        0.1080
     35  N         25.4670  -23.7110  -16.7870 N.3     1  UNL1       -0.2760
     36  C         24.6650  -23.0330  -17.8220 C.3     1  UNL1        0.1510
     37  C         24.8520  -21.5460  -17.5750 C.3     1  UNL1        0.0290
     38  C         25.0300  -21.4830  -16.0780 C.3     1  UNL1        0.0800
@<TRIPOS>BOND
     1    36    37    1
     2    36    35    1
     3    37    38    1
     4    35    34    1
     5    38    34    1
     6    34    32    1
     7    32    33    1
     8    32    29    1
     9    30    29    2
    10    29    31    2
    11    29    27    1
    12    27    28    1
    13    27    26    2
    14    14    13    2
    15    14    15    1
    16    28    23    2
    17    13    11    1
    18    26    25    1
    19    15    12    2
    20    23     3    1
    21    23    24    1
    22     4     3    1
    23    25    24    2
    24    11    10    2
    25     3     2   am
    26    12    10   ar
    27    12     5   ar
    28    10     8   ar
    29     2     5    1
    30     2     1    2
    31     5     6   ar
    32     8     9    2
    33     8     7   ar
    34     6     7   ar
    35     7    16    1
    36    16    17    1
    37    18    17    2
    38    18    19    1
    39    17    22    1
    40    19    20    2
    41    22    21    2
    42    20    21    1
