@<TRIPOS>MOLECULE
27047_out_ligand_01.pdbqt
 36 39 0 0 0
SMALL
GASTEIGER

@<TRIPOS>ATOM
      1  N         19.3730  -22.1990   -8.8110 N.am    1  UNL1       -0.3160
      2  C         20.1380  -23.2570   -9.2710 C.2     1  UNL1        0.2560
      3  O         19.9620  -24.4420   -9.0090 O.2     1  UNL1       -0.2670
      4  H         19.3420  -21.3520   -9.3620 H       1  UNL1        0.1690
      5  C         21.1720  -22.8930  -10.2850 C.2     1  UNL1        0.0320
      6  C         20.7790  -22.1020  -11.3790 C.2     1  UNL1        0.0180
      7  C         21.7170  -21.6810  -12.3230 C.2     1  UNL1        0.0260
      8  C         23.0560  -22.0530  -12.1690 C.2     1  UNL1        0.0750
      9  C         23.4560  -22.8770  -11.1090 C.2     1  UNL1        0.0260
     10  C         22.5110  -23.2990  -10.1690 C.2     1  UNL1        0.0180
     11  S         24.2820  -21.4790  -13.3280 S.O2    1  UNL1        0.2470
     12  O         25.3860  -20.9320  -12.5680 O.2     1  UNL1       -0.2050
     13  O         23.5780  -20.6840  -14.3140 O.2     1  UNL1       -0.2050
     14  N         24.7980  -22.9520  -14.0450 N.pl3   1  UNL1       -0.1760
     15  C         25.8160  -23.7060  -13.2750 C.3     1  UNL1        0.1360
     16  C         25.0920  -22.8520  -15.4520 C.2     1  UNL1        0.0250
     17  C         24.1830  -23.2520  -16.4370 C.2     1  UNL1        0.0240
     18  C         24.4860  -23.0520  -17.7870 C.2     1  UNL1        0.0020
     19  C         25.6850  -22.4370  -18.1520 C.2     1  UNL1        0.0000
     20  C         26.5800  -22.0140  -17.1690 C.2     1  UNL1        0.0020
     21  C         26.2780  -22.2130  -15.8210 C.2     1  UNL1        0.0240
     22  C         18.3140  -22.3740   -7.9440 C.ar    1  UNL1        0.0930
     23  S         18.8150  -22.4290   -6.3180 S.2     1  UNL1       -0.0750
     24  C         17.2130  -22.3960   -5.7690 C.ar    1  UNL1       -0.0080
     25  C         16.2960  -22.4420   -6.8050 C.ar    1  UNL1       -0.0260
     26  C         16.8940  -22.2810   -4.3100 C.3     1  UNL1        0.0510
     27  C         14.8200  -22.4850   -6.5320 C.3     1  UNL1        0.0410
     28  C         16.9480  -22.4980   -8.0980 C.ar    1  UNL1        0.0730
     29  C         14.4950  -21.9510   -5.1270 C.3     1  UNL1        0.0090
     30  C         15.3960  -22.5430   -4.0250 C.3     1  UNL1       -0.0140
     31  C         15.1060  -24.0310   -3.7970 C.3     1  UNL1        0.0100
     32  C         16.2960  -22.7020   -9.3870 C.2     1  UNL1        0.2520
     33  N         16.5020  -21.7060  -10.3020 N.am    1  UNL1       -0.3660
     34  H         16.2830  -21.9900  -11.2480 H       1  UNL1        0.1590
     35  H         17.3440  -21.1530  -10.1970 H       1  UNL1        0.1590
     36  O         15.6220  -23.6900   -9.6590 O.2     1  UNL1       -0.2680
@<TRIPOS>BOND
     1    19    18    2
     2    19    20    1
     3    18    17    1
     4    20    21    2
     5    17    16    2
     6    21    16    1
     7    16    14    1
     8    13    11    2
     9    14    11    1
    10    14    15    1
    11    11    12    2
    12    11     8    1
    13     7     8    2
    14     7     6    1
    15     8     9    1
    16     6     5    2
    17    34    33    1
    18     9    10    2
    19    33    35    1
    20    33    32   am
    21     5    10    1
    22     5     2    1
    23    36    32    2
    24    32    28    1
    25     4     1    1
    26     2     3    2
    27     2     1   am
    28     1    22    1
    29    28    22   ar
    30    28    25   ar
    31    22    23   ar
    32    25    27    1
    33    25    24   ar
    34    27    29    1
    35    23    24   ar
    36    24    26    1
    37    29    30    1
    38    26    30    1
    39    30    31    1
