@<TRIPOS>MOLECULE
27042_out_ligand_01.pdbqt
 35 39 0 0 0
SMALL
GASTEIGER

@<TRIPOS>ATOM
      1  C         19.4410  -22.1180  -10.4890 C.2     1  UNL1        0.0320
      2  C         20.0160  -23.0150   -9.5750 C.2     1  UNL1        0.0180
      3  C         19.2220  -23.6580   -8.6230 C.2     1  UNL1        0.0260
      4  C         17.8470  -23.4130   -8.6030 C.2     1  UNL1        0.0800
      5  C         17.2590  -22.5280   -9.5150 C.2     1  UNL1        0.0260
      6  C         18.0580  -21.8840  -10.4630 C.2     1  UNL1        0.0180
      7  C         20.3290  -21.4600  -11.4890 C.2     1  UNL1        0.2570
      8  O         19.9920  -20.3650  -11.9200 O.2     1  UNL1       -0.2670
      9  N         21.4340  -22.1950  -11.8470 N.am    1  UNL1       -0.3000
     10  H         21.5380  -23.1470  -11.5240 H       1  UNL1        0.1710
     11  C         22.4280  -21.8150  -12.7130 C.ar    1  UNL1        0.1960
     12  N         22.1790  -21.0910  -13.7820 N.ar    1  UNL1       -0.1230
     13  N         23.3190  -20.8370  -14.5170 N.ar    1  UNL1       -0.1450
     14  C         24.3860  -21.3930  -13.9790 C.ar    1  UNL1        0.1050
     15  S         24.0630  -22.2500  -12.5250 S.2     1  UNL1       -0.0330
     16  C         25.7700  -21.3000  -14.5350 C.3     1  UNL1        0.1070
     17  C         26.0130  -20.0270  -15.3130 C.2     1  UNL1       -0.0520
     18  C         25.9270  -20.0260  -16.7140 C.2     1  UNL1        0.0070
     19  C         26.1630  -18.8550  -17.4360 C.2     1  UNL1        0.0010
     20  C         26.4920  -17.6770  -16.7680 C.2     1  UNL1        0.0000
     21  C         26.5860  -17.6680  -15.3780 C.2     1  UNL1        0.0010
     22  C         26.3500  -18.8370  -14.6520 C.2     1  UNL1        0.0070
     23  S         16.8050  -24.2230   -7.3990 S.O2    1  UNL1        0.2650
     24  O         17.7120  -24.9850   -6.5660 O.2     1  UNL1       -0.2000
     25  O         15.7290  -24.8710   -8.1200 O.2     1  UNL1       -0.2000
     26  N         16.1550  -22.8770   -6.5310 N.pl3   1  UNL1       -0.2710
     27  C         14.7620  -23.0560   -6.0290 C.3     1  UNL1        0.1420
     28  C         14.7520  -23.6760   -4.6420 C.3     1  UNL1        0.0260
     29  C         15.4860  -22.7790   -3.6590 C.3     1  UNL1        0.0420
     30  C         16.7820  -22.2450   -4.2100 C.2     1  UNL1       -0.0310
     31  C         17.6890  -21.6430   -3.3210 C.2     1  UNL1        0.0090
     32  C         17.0670  -22.2580   -5.5860 C.2     1  UNL1        0.0510
     33  C         18.8660  -21.0640   -3.7920 C.2     1  UNL1        0.0010
     34  C         19.1380  -21.0610   -5.1550 C.2     1  UNL1        0.0020
     35  C         18.2390  -21.6490   -6.0470 C.2     1  UNL1        0.0310
@<TRIPOS>BOND
     1    19    20    2
     2    19    18    1
     3    20    21    1
     4    18    17    2
     5    21    22    2
     6    17    22    1
     7    17    16    1
     8    16    14    1
     9    13    14   ar
    10    13    12   ar
    11    14    15   ar
    12    12    11   ar
    13    11    15   ar
    14    11     9    1
    15     8     7    2
    16     9    10    1
    17     9     7   am
    18     7     1    1
    19     1     6    2
    20     1     2    1
    21     6     5    1
    22     2     3    2
    23     5     4    2
    24     3     4    1
    25     4    23    1
    26    25    23    2
    27    23    24    2
    28    23    26    1
    29    26    27    1
    30    26    32    1
    31    35    32    1
    32    35    34    2
    33    27    28    1
    34    32    30    2
    35    34    33    1
    36    28    29    1
    37    30    29    1
    38    30    31    1
    39    33    31    2
