@<TRIPOS>MOLECULE
27043_out_ligand_01.pdbqt
 33 37 0 0 0
SMALL
GASTEIGER

@<TRIPOS>ATOM
      1  N         23.6780  -21.8390  -13.4800 N.am    1  UNL1       -0.2430
      2  C         22.5480  -21.0560  -13.5740 C.2     1  UNL1        0.2660
      3  O         22.2370  -20.1580  -14.3350 O.2     1  UNL1       -0.2670
      4  C         21.6920  -21.4040  -12.4440 C.2     1  UNL1        0.0480
      5  C         20.4350  -20.9420  -12.1010 C.2     1  UNL1        0.0190
      6  C         19.8560  -21.4520  -10.9330 C.2     1  UNL1        0.0180
      7  C         20.5510  -22.3950  -10.1370 C.2     1  UNL1        0.0330
      8  C         21.8220  -22.8530  -10.5170 C.2     1  UNL1        0.0350
      9  C         22.3640  -22.3300  -11.6760 C.2     1  UNL1        0.0490
     10  C         23.6500  -22.5860  -12.3180 C.2     1  UNL1        0.2660
     11  O         24.4620  -23.3510  -11.8280 O.2     1  UNL1       -0.2670
     12  C         19.9430  -22.9590   -8.8990 C.2     1  UNL1        0.2560
     13  O         20.6640  -23.6110   -8.1550 O.2     1  UNL1       -0.2670
     14  N         18.6100  -22.6460   -8.7090 N.am    1  UNL1       -0.3230
     15  H         18.1910  -21.9860   -9.3530 H       1  UNL1        0.1690
     16  C         17.7730  -23.0720   -7.6550 C.2     1  UNL1        0.0370
     17  C         16.7260  -23.9850   -7.8110 C.2     1  UNL1        0.0320
     18  C         15.9400  -24.3600   -6.7150 C.2     1  UNL1        0.0420
     19  C         16.1970  -23.8250   -5.4570 C.2     1  UNL1        0.1020
     20  C         17.2200  -22.8890   -5.2980 C.2     1  UNL1        0.1040
     21  O         15.4020  -24.2530   -4.4260 O.2     1  UNL1       -0.3460
     22  C         18.0130  -22.5260   -6.3880 C.2     1  UNL1        0.0690
     23  O         17.5120  -22.2890   -4.0980 O.2     1  UNL1       -0.3460
     24  C         16.4500  -22.4710   -3.1530 C.3     1  UNL1        0.2020
     25  C         15.9680  -23.9120   -3.1560 C.3     1  UNL1        0.2020
     26  C         24.7950  -21.7740  -14.3640 C.2     1  UNL1        0.0520
     27  C         26.0480  -21.2390  -13.9950 C.2     1  UNL1       -0.0350
     28  C         27.1210  -21.3030  -14.9090 C.2     1  UNL1        0.0090
     29  C         26.3300  -20.5400  -12.6910 C.3     1  UNL1        0.0500
     30  C         26.9550  -21.8290  -16.1880 C.2     1  UNL1        0.0070
     31  C         25.7080  -22.2930  -16.5920 C.2     1  UNL1       -0.0600
     32  C         25.5130  -22.8750  -17.9620 C.3     1  UNL1        0.0480
     33  C         24.6460  -22.2710  -15.6760 C.2     1  UNL1        0.0370
@<TRIPOS>BOND
     1    32    31    1
     2    31    30    2
     3    31    33    1
     4    30    28    1
     5    33    26    2
     6    28    27    2
     7    26    27    1
     8    26     1    1
     9     3     2    2
    10    27    29    1
    11     2     1   am
    12     2     4    1
    13     1    10   am
    14     4     5    2
    15     4     9    1
    16    10    11    2
    17    10     9    1
    18     5     6    1
    19     9     8    2
    20     6     7    2
    21     8     7    1
    22     7    12    1
    23    15    14    1
    24    12    14   am
    25    12    13    2
    26    14    16    1
    27    17    16    2
    28    17    18    1
    29    16    22    1
    30    18    19    2
    31    22    20    2
    32    19    20    1
    33    19    21    1
    34    20    23    1
    35    21    25    1
    36    23    24    1
    37    25    24    1
