@<TRIPOS>MOLECULE
27060_out_ligand_01.pdbqt
 37 41 0 0 0
SMALL
GASTEIGER

@<TRIPOS>ATOM
      1  C         20.2890  -22.2470  -10.6990 C.2     1  UNL1        0.0320
      2  C         21.0610  -22.9880   -9.7940 C.2     1  UNL1        0.0190
      3  C         22.4000  -23.2720  -10.0760 C.2     1  UNL1        0.0310
      4  C         22.9670  -22.8200  -11.2660 C.2     1  UNL1        0.0420
      5  C         22.1990  -22.1040  -12.1840 C.2     1  UNL1        0.0310
      6  C         20.8590  -21.8160  -11.9030 C.2     1  UNL1        0.0190
      7  N         24.3170  -23.1310  -11.5780 N.pl3   1  UNL1       -0.2810
      8  H         24.4960  -23.5740  -12.4800 H       1  UNL1        0.1790
      9  S         25.4940  -21.9570  -11.2610 S.O2    1  UNL1        0.2630
     10  O         24.8970  -21.0380  -10.3150 O.2     1  UNL1       -0.2000
     11  O         26.7580  -22.6010  -10.9820 O.2     1  UNL1       -0.2000
     12  C         25.6130  -21.1050  -12.8150 C.2     1  UNL1        0.0820
     13  C         25.1480  -21.7410  -13.9940 C.2     1  UNL1        0.0280
     14  C         25.2330  -21.0940  -15.2330 C.2     1  UNL1        0.0330
     15  C         25.7890  -19.8360  -15.2340 C.ar    1  UNL1        0.0630
     16  N         26.0020  -18.9610  -16.2930 N.ar    1  UNL1       -0.3070
     17  C         26.2550  -19.2220  -14.0700 C.ar    1  UNL1        0.0640
     18  C         26.6060  -17.7950  -15.8010 C.ar    1  UNL1        0.3250
     19  H         25.7850  -19.1110  -17.2640 H       1  UNL1        0.1700
     20  O         26.9360  -16.8190  -16.4490 O.2     1  UNL1       -0.2470
     21  N         26.7550  -17.9720  -14.4180 N.ar    1  UNL1       -0.3060
     22  H         27.1740  -17.2870  -13.8100 H       1  UNL1        0.1700
     23  C         26.1900  -19.8280  -12.8400 C.2     1  UNL1        0.0570
     24  C         18.8680  -21.9680  -10.3520 C.2     1  UNL1        0.2510
     25  O         18.2270  -21.1520  -11.0060 O.2     1  UNL1       -0.2680
     26  N         18.3400  -22.6960   -9.3070 N.am    1  UNL1       -0.3530
     27  H         18.8410  -23.5080   -8.9770 H       1  UNL1        0.1630
     28  C         16.9320  -22.6300   -8.9840 C.3     1  UNL1        0.1610
     29  C         16.7330  -22.5700   -7.4900 C.2     1  UNL1       -0.0380
     30  C         15.4680  -22.8510   -6.9220 C.2     1  UNL1        0.0120
     31  C         15.2680  -22.7740   -5.5400 C.2     1  UNL1        0.0400
     32  C         16.3400  -22.4100   -4.7550 C.2     1  UNL1        0.1050
     33  C         17.5710  -22.1290   -5.2980 C.2     1  UNL1        0.1050
     34  O         16.3270  -22.2830   -3.4020 O.2     1  UNL1       -0.3230
     35  C         17.8000  -22.1970   -6.6550 C.2     1  UNL1        0.0480
     36  O         18.4880  -21.7860   -4.3540 O.2     1  UNL1       -0.3230
     37  C         17.6950  -21.8960   -3.1530 C.3     1  UNL1        0.3520
@<TRIPOS>BOND
     1    19    16    1
     2    20    18    2
     3    16    18   ar
     4    16    15   ar
     5    18    21   ar
     6    15    14    2
     7    15    17   ar
     8    14    13    1
     9    21    17   ar
    10    21    22    1
    11    17    23    2
    12    13    12    2
    13    23    12    1
    14    12     9    1
    15     8     7    1
    16     5     6    1
    17     5     4    2
    18     6     1    2
    19     7     4    1
    20     7     9    1
    21     4     3    1
    22     9    11    2
    23     9    10    2
    24    25    24    2
    25     1    24    1
    26     1     2    1
    27    24    26   am
    28     3     2    2
    29    26    28    1
    30    26    27    1
    31    28    29    1
    32    29    30    2
    33    29    35    1
    34    30    31    1
    35    35    33    2
    36    31    32    2
    37    33    32    1
    38    33    36    1
    39    32    34    1
    40    36    37    1
    41    34    37    1
