@<TRIPOS>MOLECULE
27068_out_ligand_01.pdbqt
 38 41 0 0 0
SMALL
GASTEIGER

@<TRIPOS>ATOM
      1  C         17.6690  -23.3740   -8.4470 C.2     1  UNL1        0.0750
      2  C         17.1330  -22.5090   -9.4080 C.2     1  UNL1        0.0260
      3  C         17.9700  -21.9450  -10.3750 C.2     1  UNL1        0.0180
      4  C         19.3440  -22.2330  -10.3700 C.2     1  UNL1        0.0320
      5  C         19.8660  -23.1040   -9.3990 C.2     1  UNL1        0.0180
      6  C         19.0340  -23.6700   -8.4320 C.2     1  UNL1        0.0260
      7  C         20.2840  -21.6680  -11.3860 C.2     1  UNL1        0.2560
      8  O         19.8480  -20.8050  -12.1390 O.2     1  UNL1       -0.2670
      9  N         21.5570  -22.2030  -11.3620 N.am    1  UNL1       -0.3160
     10  H         21.7460  -22.9810  -10.7330 H       1  UNL1        0.1690
     11  C         22.6260  -21.8910  -12.1940 C.ar    1  UNL1        0.0930
     12  S         22.3950  -21.4820  -13.8200 S.2     1  UNL1       -0.0750
     13  C         24.0620  -21.3970  -14.1060 C.ar    1  UNL1       -0.0080
     14  C         24.8180  -21.6070  -12.9650 C.ar    1  UNL1       -0.0260
     15  C         24.5990  -21.1200  -15.4780 C.3     1  UNL1        0.0510
     16  C         23.9670  -21.8720  -11.8170 C.ar    1  UNL1        0.0730
     17  C         26.3220  -21.6400  -13.0380 C.3     1  UNL1        0.0410
     18  C         26.8670  -21.0770  -14.3620 C.3     1  UNL1        0.0090
     19  C         26.0680  -21.5750  -15.5800 C.3     1  UNL1       -0.0140
     20  C         26.6940  -21.0770  -16.8810 C.3     1  UNL1        0.0100
     21  C         24.3500  -22.1420  -10.4290 C.2     1  UNL1        0.2520
     22  N         25.2570  -23.1400  -10.2200 N.am    1  UNL1       -0.3660
     23  H         25.8870  -23.3950  -10.9640 H       1  UNL1        0.1590
     24  H         25.6310  -23.1840   -9.2810 H       1  UNL1        0.1590
     25  O         23.9640  -21.4610   -9.4820 O.2     1  UNL1       -0.2680
     26  S         16.5820  -24.0840   -7.2250 S.O2    1  UNL1        0.2470
     27  O         15.5120  -24.7590   -7.9320 O.2     1  UNL1       -0.2050
     28  O         17.4320  -24.8040   -6.2980 O.2     1  UNL1       -0.2050
     29  N         15.9580  -22.6800   -6.4570 N.pl3   1  UNL1       -0.1740
     30  C         14.5290  -22.7520   -6.0740 C.3     1  UNL1        0.1360
     31  C         16.8480  -22.1540   -5.4440 C.2     1  UNL1        0.0580
     32  C         17.9920  -21.4840   -5.8920 C.2     1  UNL1        0.0270
     33  C         18.9250  -20.9880   -4.9800 C.2     1  UNL1        0.0020
     34  C         18.7240  -21.1620   -3.6120 C.2     1  UNL1        0.0030
     35  C         17.5980  -21.8470   -3.1530 C.2     1  UNL1        0.0380
     36  C         16.6720  -22.3670   -4.0660 C.2     1  UNL1        0.0900
     37  O         15.5520  -23.0200   -3.6210 O.2     1  UNL1       -0.3540
     38  C         15.8460  -24.3390   -3.1610 C.3     1  UNL1        0.2100
@<TRIPOS>BOND
     1    20    19    1
     2    19    15    1
     3    19    18    1
     4    15    13    1
     5    18    17    1
     6    13    12   ar
     7    13    14   ar
     8    12    11   ar
     9    17    14    1
    10    14    16   ar
    11    11    16   ar
    12    11     9    1
    13     8     7    2
    14    16    21    1
    15     7     9   am
    16     7     4    1
    17     9    10    1
    18    23    22    1
    19    21    22   am
    20    21    25    2
    21     3     4    2
    22     3     2    1
    23     4     5    1
    24    22    24    1
    25     2     1    2
    26     5     6    2
    27     1     6    1
    28     1    26    1
    29    27    26    2
    30    26    29    1
    31    26    28    2
    32    29    30    1
    33    29    31    1
    34    32    31    2
    35    32    33    1
    36    31    36    1
    37    33    34    2
    38    36    37    1
    39    36    35    2
    40    37    38    1
    41    34    35    1
