@<TRIPOS>MOLECULE
27077_out_ligand_01.pdbqt
 33 37 0 0 0
SMALL
GASTEIGER

@<TRIPOS>ATOM
      1  C         21.6630  -23.2480   -9.4430 C.2     1  UNL1        0.0320
      2  C         21.6780  -22.6110  -10.6920 C.2     1  UNL1        0.0180
      3  C         22.8960  -22.3020  -11.3030 C.2     1  UNL1        0.0260
      4  C         24.0960  -22.6530  -10.6740 C.2     1  UNL1        0.0790
      5  C         24.0890  -23.2780   -9.4220 C.2     1  UNL1        0.0260
      6  C         22.8700  -23.5890   -8.8160 C.2     1  UNL1        0.0180
      7  C         20.3860  -23.6050   -8.7630 C.2     1  UNL1        0.2560
      8  O         20.1550  -24.7900   -8.5600 O.2     1  UNL1       -0.2670
      9  N         19.6020  -22.5260   -8.4020 N.am    1  UNL1       -0.3230
     10  H         20.0020  -21.6040   -8.5240 H       1  UNL1        0.1690
     11  C         18.3320  -22.5580   -7.7880 C.2     1  UNL1        0.0370
     12  C         17.1250  -22.6040   -8.4930 C.2     1  UNL1        0.0320
     13  C         15.9020  -22.6210   -7.8110 C.2     1  UNL1        0.0420
     14  C         15.8790  -22.5860   -6.4210 C.2     1  UNL1        0.1020
     15  C         17.0800  -22.5640   -5.7080 C.2     1  UNL1        0.1040
     16  O         14.6460  -22.5820   -5.8210 O.2     1  UNL1       -0.3460
     17  C         18.2980  -22.5350   -6.3870 C.2     1  UNL1        0.0690
     18  O         17.1390  -22.5620   -4.3370 O.2     1  UNL1       -0.3460
     19  C         15.8820  -22.9390   -3.7610 C.3     1  UNL1        0.2020
     20  C         14.7380  -22.2060   -4.4430 C.3     1  UNL1        0.2020
     21  S         25.6490  -22.2230  -11.4390 S.O2    1  UNL1        0.2610
     22  O         26.6370  -23.1680  -10.9650 O.2     1  UNL1       -0.2000
     23  O         25.8300  -20.7980  -11.2520 O.2     1  UNL1       -0.2000
     24  N         25.3790  -22.5130  -13.0820 N.3     1  UNL1       -0.3020
     25  C         25.9580  -23.7410  -13.6680 C.3     1  UNL1        0.1400
     26  C         25.1650  -24.1230  -14.9180 C.3     1  UNL1        0.0600
     27  C         25.0810  -22.9770  -15.8950 C.2     1  UNL1       -0.0490
     28  C         24.8250  -23.2280  -17.2500 C.2     1  UNL1        0.0080
     29  C         25.2020  -21.6520  -15.4390 C.2     1  UNL1       -0.0330
     30  C         24.7180  -22.1710  -18.1530 C.2     1  UNL1        0.0010
     31  C         24.8560  -20.8580  -17.7100 C.2     1  UNL1        0.0010
     32  C         25.0970  -20.5980  -16.3610 C.2     1  UNL1        0.0090
     33  C         25.4800  -21.3400  -13.9820 C.3     1  UNL1        0.1740
@<TRIPOS>BOND
     1    30    31    2
     2    30    28    1
     3    31    32    1
     4    28    27    2
     5    32    29    2
     6    27    29    1
     7    27    26    1
     8    29    33    1
     9    26    25    1
    10    33    24    1
    11    25    24    1
    12    24    21    1
    13    21    23    2
    14    21    22    2
    15    21     4    1
    16     3     2    1
    17     3     4    2
    18     2     1    2
    19     4     5    1
    20     1     6    1
    21     1     7    1
    22     5     6    2
    23     7     8    2
    24     7     9   am
    25    10     9    1
    26    12    13    1
    27    12    11    2
    28     9    11    1
    29    13    14    2
    30    11    17    1
    31    14    16    1
    32    14    15    1
    33    17    15    2
    34    16    20    1
    35    15    18    1
    36    20    19    1
    37    18    19    1
