@<TRIPOS>MOLECULE
27084_out_ligand_01.pdbqt
 29 31 0 0 0
SMALL
GASTEIGER

@<TRIPOS>ATOM
      1  N         20.0120  -22.9740   -9.4290 N.am    1  UNL1       -0.3260
      2  C         20.0900  -22.7450   -8.0610 C.2     1  UNL1        0.2350
      3  O         21.0260  -22.1810   -7.4930 O.2     1  UNL1       -0.2720
      4  H         19.1950  -23.4760   -9.7560 H       1  UNL1        0.1690
      5  C         18.8560  -23.2100   -7.2490 C.3     1  UNL1        0.1440
      6  C         18.7050  -22.4830   -5.9110 C.2     1  UNL1       -0.0410
      7  C         19.1090  -21.1520   -5.7200 C.2     1  UNL1        0.0080
      8  C         18.9260  -20.5230   -4.4860 C.2     1  UNL1        0.0010
      9  C         18.3340  -21.2100   -3.4290 C.2     1  UNL1        0.0000
     10  C         17.9230  -22.5280   -3.6020 C.2     1  UNL1        0.0010
     11  C         18.1050  -23.1610   -4.8330 C.2     1  UNL1        0.0080
     12  C         17.5740  -23.2860   -8.0850 C.2     1  UNL1       -0.0410
     13  C         16.7030  -24.3750   -7.8980 C.2     1  UNL1        0.0080
     14  C         15.5470  -24.5070   -8.6670 C.2     1  UNL1        0.0010
     15  C         15.2420  -23.5560   -9.6370 C.2     1  UNL1        0.0000
     16  C         16.0940  -22.4710   -9.8390 C.2     1  UNL1        0.0010
     17  C         17.2530  -22.3380   -9.0720 C.2     1  UNL1        0.0080
     18  C         20.9530  -22.6330  -10.4210 C.2     1  UNL1        0.0340
     19  C         20.5280  -21.7420  -11.4170 C.2     1  UNL1        0.0310
     20  C         21.3950  -21.3440  -12.4400 C.2     1  UNL1        0.0270
     21  C         22.6990  -21.8360  -12.4620 C.2     1  UNL1        0.0740
     22  C         23.1340  -22.7330  -11.4850 C.2     1  UNL1        0.0270
     23  C         22.2600  -23.1240  -10.4650 C.2     1  UNL1        0.0310
     24  S         23.7970  -21.3670  -13.7680 S.O2    1  UNL1        0.2390
     25  O         23.9100  -22.4570  -14.7090 O.2     1  UNL1       -0.2060
     26  O         24.9500  -20.7050  -13.2050 O.2     1  UNL1       -0.2060
     27  N         22.9130  -20.1750  -14.5520 N.3     1  UNL1       -0.2250
     28  H         23.5410  -19.4490  -14.8990 H       1  UNL1        0.1360
     29  H         22.1800  -19.8250  -13.9340 H       1  UNL1        0.1360
@<TRIPOS>BOND
     1    28    27    1
     2    25    24    2
     3    27    29    1
     4    27    24    1
     5    24    26    2
     6    24    21    1
     7    21    20    2
     8    21    22    1
     9    20    19    1
    10    22    23    2
    11    19    18    2
    12    23    18    1
    13    18     1    1
    14    16    15    2
    15    16    17    1
    16     4     1    1
    17    15    14    1
    18     1     2   am
    19    17    12    2
    20    14    13    2
    21    12    13    1
    22    12     5    1
    23     2     3    2
    24     2     5    1
    25     5     6    1
    26     6     7    2
    27     6    11    1
    28     7     8    1
    29    11    10    2
    30     8     9    2
    31    10     9    1
