@<TRIPOS>MOLECULE
27082_out_ligand_01.pdbqt
 32 35 0 0 0
SMALL
GASTEIGER

@<TRIPOS>ATOM
      1  C         22.7540  -21.9500  -11.2260 C.2     1  UNL1        0.0760
      2  C         22.4580  -21.5240  -12.5250 C.2     1  UNL1        0.0250
      3  C         21.1280  -21.3840  -12.9150 C.2     1  UNL1        0.0030
      4  C         20.1030  -21.6550  -12.0040 C.2     1  UNL1        0.0170
      5  C         20.4040  -22.0510  -10.6930 C.2     1  UNL1        0.0330
      6  C         21.7380  -22.2110  -10.3020 C.2     1  UNL1        0.0410
      7  C         19.2770  -22.3310   -9.7590 C.2     1  UNL1        0.2560
      8  O         18.1350  -22.2380  -10.1930 O.2     1  UNL1       -0.2670
      9  N         19.6560  -22.6450   -8.4660 N.am    1  UNL1       -0.3230
     10  H         20.6370  -22.5520   -8.2370 H       1  UNL1        0.1690
     11  C         18.8140  -22.9980   -7.3900 C.2     1  UNL1        0.0370
     12  C         18.1820  -24.2480   -7.4610 C.2     1  UNL1        0.0320
     13  C         17.3300  -24.6780   -6.4400 C.2     1  UNL1        0.0420
     14  C         17.1050  -23.8610   -5.3380 C.2     1  UNL1        0.1020
     15  C         17.7050  -22.6020   -5.2720 C.2     1  UNL1        0.1040
     16  O         16.2760  -24.3550   -4.3630 O.2     1  UNL1       -0.3460
     17  C         18.5670  -22.1770   -6.2870 C.2     1  UNL1        0.0690
     18  O         17.4990  -21.7280   -4.2330 O.2     1  UNL1       -0.3460
     19  C         16.3610  -22.1060   -3.4500 C.3     1  UNL1        0.2020
     20  C         16.3880  -23.5950   -3.1530 C.3     1  UNL1        0.2020
     21  S         24.4600  -22.1320  -10.7490 S.O2    1  UNL1        0.2470
     22  O         24.8920  -20.8310  -10.2840 O.2     1  UNL1       -0.2050
     23  O         24.5460  -23.3000   -9.8950 O.2     1  UNL1       -0.2050
     24  N         25.2150  -22.4960  -12.2440 N.pl3   1  UNL1       -0.1760
     25  C         26.1680  -23.6320  -12.2110 C.3     1  UNL1        0.1360
     26  C         25.7190  -21.3410  -12.9470 C.2     1  UNL1        0.0250
     27  C         25.2300  -20.9570  -14.1970 C.2     1  UNL1        0.0250
     28  C         25.6960  -19.7850  -14.8000 C.2     1  UNL1        0.0080
     29  C         26.6440  -18.9820  -14.1530 C.2     1  UNL1       -0.0620
     30  C         27.1210  -17.7090  -14.7880 C.3     1  UNL1        0.0480
     31  C         27.0960  -19.3520  -12.8810 C.2     1  UNL1        0.0080
     32  C         26.6310  -20.5240  -12.2790 C.2     1  UNL1        0.0250
@<TRIPOS>BOND
     1    28    27    1
     2    28    29    2
     3    30    29    1
     4    27    26    2
     5    29    31    1
     6    26    32    1
     7    26    24    1
     8     3     2    1
     9     3     4    2
    10    31    32    2
    11     2     1    2
    12    24    25    1
    13    24    21    1
    14     4     5    1
    15     1    21    1
    16     1     6    1
    17    21    22    2
    18    21    23    2
    19     5     6    2
    20     5     7    1
    21     8     7    2
    22     7     9   am
    23     9    10    1
    24     9    11    1
    25    12    11    2
    26    12    13    1
    27    11    17    1
    28    13    14    2
    29    17    15    2
    30    14    15    1
    31    14    16    1
    32    15    18    1
    33    16    20    1
    34    18    19    1
    35    19    20    1
