@<TRIPOS>MOLECULE
27089_out_ligand_01.pdbqt
 29 32 0 0 0
SMALL
GASTEIGER

@<TRIPOS>ATOM
      1  C         19.0680  -22.1570  -10.5110 C.2     1  UNL1        0.0320
      2  C         19.7010  -23.0780   -9.6600 C.2     1  UNL1        0.0180
      3  C         18.9610  -23.7500   -8.6840 C.2     1  UNL1        0.0260
      4  C         17.5890  -23.5050   -8.5630 C.2     1  UNL1        0.0750
      5  C         16.9420  -22.6120   -9.4200 C.2     1  UNL1        0.0260
      6  C         17.6870  -21.9410  -10.3940 C.2     1  UNL1        0.0180
      7  S         16.6660  -24.3860   -7.3150 S.O2    1  UNL1        0.2480
      8  O         17.6390  -25.2270   -6.6500 O.2     1  UNL1       -0.2050
      9  O         15.4980  -24.9580   -7.9560 O.2     1  UNL1       -0.2050
     10  N         16.1270  -23.0960   -6.2710 N.pl3   1  UNL1       -0.1720
     11  C         14.9910  -23.5420   -5.3960 C.3     1  UNL1        0.1140
     12  C         14.6370  -22.4880   -4.3660 C.3     1  UNL1        0.0200
     13  C         15.8270  -22.2860   -3.4490 C.3     1  UNL1        0.0420
     14  C         17.0510  -21.9420   -4.2530 C.2     1  UNL1       -0.0360
     15  C         18.0710  -21.2080   -3.6170 C.2     1  UNL1        0.0090
     16  C         17.1960  -22.3510   -5.5940 C.2     1  UNL1        0.0310
     17  C         19.2030  -20.8130   -4.3220 C.2     1  UNL1        0.0010
     18  C         19.3130  -21.1300   -5.6680 C.2     1  UNL1        0.0020
     19  C         18.3100  -21.8740   -6.2990 C.2     1  UNL1        0.0250
     20  C         19.8050  -21.4150  -11.5750 C.2     1  UNL1        0.2510
     21  O         19.2620  -20.4870  -12.1630 O.2     1  UNL1       -0.2680
     22  N         21.0960  -21.8100  -11.8290 N.am    1  UNL1       -0.3510
     23  H         21.5210  -22.5920  -11.3500 H       1  UNL1        0.1630
     24  C         21.8500  -21.2310  -12.9160 C.3     1  UNL1        0.1870
     25  C         23.2080  -21.8310  -12.9350 C.2     1  UNL1        0.0700
     26  C         23.8250  -22.7980  -12.1680 C.2     1  UNL1        0.0360
     27  C         25.1390  -22.9350  -12.6780 C.2     1  UNL1        0.0270
     28  C         25.2410  -22.0430  -13.7190 C.2     1  UNL1        0.1420
     29  O         24.0750  -21.3710  -13.8870 O.2     1  UNL1       -0.3250
@<TRIPOS>BOND
     1    29    28    1
     2    29    25    1
     3    28    27    2
     4    25    24    1
     5    25    26    2
     6    24    22    1
     7    27    26    1
     8    21    20    2
     9    22    20   am
    10    22    23    1
    11    20     1    1
    12     1     6    2
    13     1     2    1
    14     6     5    1
    15     2     3    2
    16     5     4    2
    17     3     4    1
    18     4     7    1
    19     9     7    2
    20     7     8    2
    21     7    10    1
    22    19    18    2
    23    19    16    1
    24    10    16    1
    25    10    11    1
    26    18    17    1
    27    16    14    2
    28    11    12    1
    29    12    13    1
    30    17    15    2
    31    14    15    1
    32    14    13    1
