@<TRIPOS>MOLECULE
27086_out_ligand_01.pdbqt
 32 36 0 0 0
SMALL
GASTEIGER

@<TRIPOS>ATOM
      1  C         20.6340  -22.6710  -10.4740 C.2     1  UNL1        0.0330
      2  C         19.9420  -21.8110  -11.3640 C.2     1  UNL1        0.0180
      3  C         20.6070  -21.2040  -12.4370 C.2     1  UNL1        0.0190
      4  C         21.9490  -21.4890  -12.5910 C.2     1  UNL1        0.0480
      5  C         22.6240  -22.3400  -11.7330 C.2     1  UNL1        0.0490
      6  C         21.9960  -22.9520  -10.6670 C.2     1  UNL1        0.0350
      7  C         24.0090  -22.4230  -12.1930 C.2     1  UNL1        0.2620
      8  O         24.8720  -23.0800  -11.6460 O.2     1  UNL1       -0.2670
      9  N         24.0950  -21.6290  -13.3030 N.am    1  UNL1       -0.2760
     10  C         22.9030  -21.0320  -13.6020 C.2     1  UNL1        0.2620
     11  O         22.6230  -20.2610  -14.4990 O.2     1  UNL1       -0.2670
     12  C         19.9350  -23.3390   -9.3400 C.2     1  UNL1        0.2560
     13  O         20.3230  -24.4500   -9.0070 O.2     1  UNL1       -0.2670
     14  N         18.9240  -22.5970   -8.7580 N.am    1  UNL1       -0.3230
     15  H         18.8140  -21.6410   -9.0670 H       1  UNL1        0.1690
     16  C         18.0740  -22.9940   -7.7020 C.2     1  UNL1        0.0370
     17  C         16.9170  -23.7090   -8.0510 C.2     1  UNL1        0.0320
     18  C         16.0200  -24.1390   -7.0700 C.2     1  UNL1        0.0420
     19  C         16.2710  -23.8580   -5.7310 C.2     1  UNL1        0.1020
     20  C         17.4350  -23.1750   -5.3720 C.2     1  UNL1        0.1040
     21  O         15.3380  -24.2910   -4.8240 O.2     1  UNL1       -0.3460
     22  C         18.3260  -22.7320   -6.3540 C.2     1  UNL1        0.0690
     23  O         17.7660  -22.8960   -4.0690 O.2     1  UNL1       -0.3460
     24  C         16.9890  -23.6750   -3.1530 C.3     1  UNL1        0.2020
     25  C         15.5220  -23.6610   -3.5500 C.3     1  UNL1        0.2020
     26  C         25.2930  -21.4850  -14.1000 C.3     1  UNL1        0.1740
     27  C         25.0650  -21.9450  -15.5210 C.2     1  UNL1       -0.0400
     28  C         24.5730  -23.2330  -15.7790 C.2     1  UNL1        0.0090
     29  C         24.3310  -23.6460  -17.0900 C.2     1  UNL1        0.0010
     30  C         24.5710  -22.7770  -18.1530 C.2     1  UNL1        0.0000
     31  C         25.0490  -21.4920  -17.9060 C.2     1  UNL1        0.0010
     32  C         25.2930  -21.0750  -16.5970 C.2     1  UNL1        0.0090
@<TRIPOS>BOND
     1    30    31    2
     2    30    29    1
     3    31    32    1
     4    29    28    2
     5    32    27    2
     6    28    27    1
     7    27    26    1
     8    11    10    2
     9    26     9    1
    10    10     9   am
    11    10     4    1
    12     9     7   am
    13     4     3    2
    14     4     5    1
    15     3     2    1
    16     7     5    1
    17     7     8    2
    18     5     6    2
    19     2     1    2
    20     6     1    1
    21     1    12    1
    22    12    13    2
    23    12    14   am
    24    15    14    1
    25    14    16    1
    26    17    16    2
    27    17    18    1
    28    16    22    1
    29    18    19    2
    30    22    20    2
    31    19    20    1
    32    19    21    1
    33    20    23    1
    34    21    25    1
    35    23    24    1
    36    25    24    1
