@<TRIPOS>MOLECULE
27097_out_ligand_01.pdbqt
 31 34 0 0 0
SMALL
GASTEIGER

@<TRIPOS>ATOM
      1  N         21.9350  -22.4240  -10.4130 N.am    1  UNL1       -0.3260
      2  C         22.3190  -21.8620   -9.2080 C.2     1  UNL1        0.2360
      3  O         23.1770  -20.9960   -9.0590 O.2     1  UNL1       -0.2720
      4  H         21.1710  -23.1040  -10.3760 H       1  UNL1        0.1690
      5  C         21.5860  -22.4410   -7.9990 C.3     1  UNL1        0.2170
      6  N         20.1140  -22.2820   -8.0440 N.pl3   1  UNL1       -0.1630
      7  C         19.4000  -21.9960   -6.8200 C.2     1  UNL1        0.0380
      8  C         19.7610  -21.0620   -5.8610 C.2     1  UNL1        0.0250
      9  C         18.2220  -22.7120   -6.6700 C.2     1  UNL1        0.0190
     10  C         18.9390  -20.9010   -4.7340 C.2     1  UNL1        0.0030
     11  C         17.7590  -21.6560   -4.5820 C.2     1  UNL1        0.0120
     12  C         17.3750  -22.5850   -5.5670 C.2     1  UNL1       -0.0230
     13  C         16.2220  -23.4050   -5.5490 C.2     1  UNL1        0.0120
     14  C         15.9560  -24.3000   -6.6120 C.2     1  UNL1        0.0020
     15  C         16.8290  -24.4000   -7.7020 C.2     1  UNL1        0.0260
     16  C         17.9510  -23.5900   -7.6930 C.2     1  UNL1        0.0870
     17  S         19.2270  -23.5040   -8.8820 S.O2    1  UNL1        0.2490
     18  O         18.6960  -22.9500  -10.1050 O.2     1  UNL1       -0.2050
     19  O         19.9820  -24.7400   -8.8350 O.2     1  UNL1       -0.2050
     20  C         22.5530  -22.2770  -11.6710 C.2     1  UNL1        0.0340
     21  C         22.0580  -21.4660  -12.6960 C.2     1  UNL1        0.0310
     22  C         22.7680  -21.3270  -13.8940 C.2     1  UNL1        0.0270
     23  C         23.9740  -22.0080  -14.0670 C.2     1  UNL1        0.0740
     24  C         24.4770  -22.8290  -13.0580 C.2     1  UNL1        0.0270
     25  C         23.7610  -22.9610  -11.8630 C.2     1  UNL1        0.0310
     26  S         24.8900  -21.7730  -15.5660 S.O2    1  UNL1        0.2390
     27  O         24.0960  -22.2680  -16.6680 O.2     1  UNL1       -0.2060
     28  O         26.2530  -22.1870  -15.3410 O.2     1  UNL1       -0.2060
     29  N         24.8650  -20.0990  -15.7270 N.3     1  UNL1       -0.2250
     30  H         24.2720  -19.7700  -16.4890 H       1  UNL1        0.1360
     31  H         25.8270  -19.7760  -15.8410 H       1  UNL1        0.1360
@<TRIPOS>BOND
     1    27    26    2
     2    30    29    1
     3    31    29    1
     4    29    26    1
     5    26    28    2
     6    26    23    1
     7    23    22    2
     8    23    24    1
     9    22    21    1
    10    24    25    2
    11    21    20    2
    12    25    20    1
    13    20     1    1
    14     1     4    1
    15     1     2   am
    16    18    17    2
    17     2     3    2
    18     2     5    1
    19    17    19    2
    20    17     6    1
    21    17    16    1
    22     6     5    1
    23     6     7    1
    24    15    16    2
    25    15    14    1
    26    16     9    1
    27     7     9    2
    28     7     8    1
    29     9    12    1
    30    14    13    2
    31     8    10    2
    32    12    13    1
    33    12    11    2
    34    10    11    1
