@<TRIPOS>MOLECULE
27109_out_ligand_01.pdbqt
 30 33 0 0 0
SMALL
GASTEIGER

@<TRIPOS>ATOM
      1  C         18.8500  -22.0390  -10.5350 C.2     1  UNL1        0.0320
      2  C         19.5770  -22.8860   -9.6840 C.2     1  UNL1        0.0180
      3  C         18.9290  -23.5890   -8.6680 C.2     1  UNL1        0.0260
      4  C         17.5470  -23.4550   -8.5170 C.2     1  UNL1        0.0800
      5  C         16.8090  -22.6180   -9.3620 C.2     1  UNL1        0.0260
      6  C         17.4630  -21.9130  -10.3760 C.2     1  UNL1        0.0180
      7  S         16.6900  -24.3460   -7.2290 S.O2    1  UNL1        0.2650
      8  O         15.5910  -25.0570   -7.8490 O.2     1  UNL1       -0.2000
      9  O         17.7230  -25.0540   -6.5030 O.2     1  UNL1       -0.2000
     10  N         16.0420  -23.0580   -6.2760 N.pl3   1  UNL1       -0.2710
     11  C         14.7330  -23.3450   -5.6210 C.3     1  UNL1        0.1420
     12  C         14.9300  -23.9700   -4.2500 C.3     1  UNL1        0.0260
     13  C         15.7020  -23.0220   -3.3460 C.3     1  UNL1        0.0420
     14  C         16.8800  -22.3850   -4.0340 C.2     1  UNL1       -0.0310
     15  C         17.8340  -21.7180   -3.2470 C.2     1  UNL1        0.0090
     16  C         17.0050  -22.3720   -5.4340 C.2     1  UNL1        0.0510
     17  C         18.9020  -21.0470   -3.8420 C.2     1  UNL1        0.0010
     18  C         19.0140  -21.0190   -5.2270 C.2     1  UNL1        0.0020
     19  C         18.0670  -21.6720   -6.0180 C.2     1  UNL1        0.0310
     20  C         19.5860  -21.3150  -11.6080 C.2     1  UNL1        0.2510
     21  O         19.0240  -20.4310  -12.2430 O.2     1  UNL1       -0.2680
     22  N         20.8820  -21.7240  -11.8370 N.am    1  UNL1       -0.3530
     23  H         21.1850  -22.6090  -11.4560 H       1  UNL1        0.1630
     24  C         21.6460  -21.2110  -12.9520 C.3     1  UNL1        0.1610
     25  C         23.0260  -21.8150  -12.9760 C.2     1  UNL1       -0.0410
     26  C         23.4820  -22.6080  -11.9130 C.2     1  UNL1        0.0090
     27  C         24.7540  -23.1820  -11.9550 C.2     1  UNL1        0.0010
     28  C         25.5780  -22.9760  -13.0590 C.2     1  UNL1        0.0000
     29  C         25.1330  -22.1960  -14.1250 C.2     1  UNL1        0.0010
     30  C         23.8620  -21.6210  -14.0850 C.2     1  UNL1        0.0090
@<TRIPOS>BOND
     1    29    30    1
     2    29    28    2
     3    30    25    2
     4    28    27    1
     5    25    24    1
     6    25    26    1
     7    24    22    1
     8    21    20    2
     9    27    26    2
    10    22    20   am
    11    22    23    1
    12    20     1    1
    13     1     6    2
    14     1     2    1
    15     6     5    1
    16     2     3    2
    17     5     4    2
    18     3     4    1
    19     4     7    1
    20     8     7    2
    21     7     9    2
    22     7    10    1
    23    10    11    1
    24    10    16    1
    25    19    16    1
    26    19    18    2
    27    11    12    1
    28    16    14    2
    29    18    17    1
    30    12    13    1
    31    14    13    1
    32    14    15    1
    33    17    15    2
