@<TRIPOS>MOLECULE
27111_out_ligand_01.pdbqt
 37 41 0 0 0
SMALL
GASTEIGER

@<TRIPOS>ATOM
      1  O         23.6540  -20.9630  -10.1370 O.2     1  UNL1       -0.2730
      2  C         23.3690  -22.1550  -10.0420 C.2     1  UNL1        0.2280
      3  N         23.5010  -23.1050  -11.0370 N.am    1  UNL1       -0.3270
      4  H         23.1660  -24.0400  -10.8370 H       1  UNL1        0.1690
      5  C         23.9840  -22.9180  -12.3500 C.2     1  UNL1        0.0340
      6  C         23.3930  -21.8900  -13.1020 C.2     1  UNL1        0.0310
      7  C         23.8100  -21.6320  -14.4100 C.2     1  UNL1        0.0270
      8  C         24.8320  -22.3990  -14.9700 C.2     1  UNL1        0.0800
      9  C         25.4150  -23.4370  -14.2410 C.2     1  UNL1        0.0270
     10  C         24.9930  -23.6900  -12.9310 C.2     1  UNL1        0.0310
     11  S         25.3550  -22.1050  -16.6420 S.O2    1  UNL1        0.2760
     12  O         25.6100  -23.4080  -17.2260 O.2     1  UNL1       -0.2000
     13  O         24.4260  -21.1970  -17.2800 O.2     1  UNL1       -0.2000
     14  N         26.8400  -21.3850  -16.4700 N.pl3   1  UNL1       -0.1090
     15  H         27.5460  -21.7520  -17.0960 H       1  UNL1        0.1980
     16  C         26.8710  -20.0010  -16.3560 C.cat   1  UNL1        0.7350
     17  N         26.7250  -19.5720  -15.0980 N.2     1  UNL1       -0.0740
     18  C         26.6120  -18.2380  -14.9530 C.2     1  UNL1        0.1380
     19  C         26.6020  -17.3580  -16.0100 C.2     1  UNL1        0.0400
     20  C         26.7050  -17.9280  -17.2580 C.2     1  UNL1        0.1380
     21  N         26.8180  -19.2520  -17.4600 N.2     1  UNL1       -0.0740
     22  C         22.8420  -22.6870   -8.7110 C.3     1  UNL1        0.1050
     23  C         22.6390  -24.1960   -8.7320 C.3     1  UNL1        0.1190
     24  C         21.1570  -24.3620   -8.9900 C.2     1  UNL1        0.2250
     25  O         20.6300  -25.4480   -9.1680 O.2     1  UNL1       -0.2730
     26  N         20.5640  -23.0910   -8.9390 N.am    1  UNL1       -0.3160
     27  C         21.4790  -22.1390   -8.3480 C.3     1  UNL1        0.1470
     28  C         19.1680  -22.8300   -9.0750 C.2     1  UNL1        0.0480
     29  C         18.7180  -22.2880  -10.2930 C.2     1  UNL1        0.0300
     30  C         17.3770  -21.9730  -10.4930 C.2     1  UNL1        0.0030
     31  C         16.4540  -22.2180   -9.4850 C.2     1  UNL1        0.0120
     32  C         16.8480  -22.8040   -8.2770 C.2     1  UNL1       -0.0240
     33  C         15.8700  -23.0800   -7.3060 C.2     1  UNL1        0.0120
     34  C         18.2120  -23.1360   -8.0490 C.2     1  UNL1        0.0010
     35  C         16.1990  -23.7120   -6.1110 C.2     1  UNL1        0.0010
     36  C         17.5120  -24.0840   -5.8770 C.2     1  UNL1        0.0010
     37  C         18.4970  -23.8070   -6.8310 C.2     1  UNL1        0.0140
@<TRIPOS>BOND
     1    21    20    2
     2    21    16    1
     3    13    11    2
     4    20    19    1
     5    12    11    2
     6    15    14    1
     7    11    14    1
     8    11     8    1
     9    14    16    1
    10    16    17    2
    11    19    18    2
    12    17    18    1
    13     8     7    2
    14     8     9    1
    15     7     6    1
    16     9    10    2
    17     6     5    2
    18    10     5    1
    19     5     3    1
    20     3     4    1
    21     3     2   am
    22    30    29    1
    23    30    31    2
    24    29    28    2
    25     1     2    2
    26     2    22    1
    27    31    32    1
    28    25    24    2
    29    28    26    1
    30    28    34    1
    31    24    26   am
    32    24    23    1
    33    26    27    1
    34    23    22    1
    35    22    27    1
    36    32    34    2
    37    32    33    1
    38    34    37    1
    39    33    35    2
    40    37    36    2
    41    35    36    1
