@<TRIPOS>MOLECULE
27114_out_ligand_01.pdbqt
 42 46 0 0 0
SMALL
GASTEIGER

@<TRIPOS>ATOM
      1  C         20.9750  -22.5490  -10.8020 C.2     1  UNL1        0.0330
      2  C         20.4280  -21.6650  -11.7440 C.2     1  UNL1        0.0170
      3  C         21.2230  -21.1560  -12.7750 C.2     1  UNL1        0.0030
      4  C         22.5570  -21.5470  -12.8870 C.2     1  UNL1        0.0250
      5  C         23.0910  -22.4500  -11.9620 C.2     1  UNL1        0.0760
      6  C         22.3170  -22.9330  -10.9060 C.2     1  UNL1        0.0410
      7  C         20.1560  -23.1570   -9.7150 C.2     1  UNL1        0.2560
      8  N         19.2270  -22.3080   -9.1480 N.am    1  UNL1       -0.3160
      9  H         19.2140  -21.3350   -9.4490 H       1  UNL1        0.1690
     10  O         20.3880  -24.3260   -9.4260 O.2     1  UNL1       -0.2670
     11  C         18.3760  -22.5770   -8.0840 C.ar    1  UNL1        0.0930
     12  C         18.6300  -22.2870   -6.7500 C.ar    1  UNL1        0.0730
     13  C         17.5950  -22.8510   -5.8910 C.ar    1  UNL1       -0.0260
     14  C         16.5500  -23.3770   -6.6390 C.ar    1  UNL1       -0.0080
     15  C         17.6250  -22.9230   -4.3920 C.3     1  UNL1        0.0410
     16  S         16.8680  -23.2990   -8.3140 S.2     1  UNL1       -0.0750
     17  C         15.2380  -23.9780   -6.2030 C.3     1  UNL1        0.0460
     18  C         14.8580  -23.7830   -4.7300 C.3     1  UNL1        0.0050
     19  C         15.0950  -22.3660   -4.2070 C.3     1  UNL1        0.0010
     20  C         16.5270  -22.1040   -3.7160 C.3     1  UNL1        0.0050
     21  C         19.8320  -21.5430   -6.3680 C.2     1  UNL1        0.2520
     22  N         19.6680  -20.5640   -5.4320 N.am    1  UNL1       -0.3660
     23  H         20.4550  -19.9460   -5.2940 H       1  UNL1        0.1590
     24  H         18.7470  -20.2050   -5.2250 H       1  UNL1        0.1590
     25  O         20.9210  -21.6980   -6.9150 O.2     1  UNL1       -0.2680
     26  S         24.7850  -22.9600  -12.1240 S.O2    1  UNL1        0.2480
     27  O         24.7980  -24.2820  -12.7180 O.2     1  UNL1       -0.2050
     28  O         25.4080  -22.7250  -10.8360 O.2     1  UNL1       -0.2050
     29  N         25.4230  -21.8480  -13.2670 N.pl3   1  UNL1       -0.1680
     30  C         26.2590  -22.4480  -14.3510 C.3     1  UNL1        0.1520
     31  C         25.5500  -22.5080  -15.6860 C.2     1  UNL1       -0.0440
     32  C         24.8990  -23.6790  -16.1040 C.2     1  UNL1        0.0080
     33  C         24.2360  -23.7230  -17.3320 C.2     1  UNL1        0.0010
     34  C         24.2090  -22.5980  -18.1530 C.2     1  UNL1        0.0000
     35  C         24.8390  -21.4240  -17.7430 C.2     1  UNL1        0.0010
     36  C         25.4980  -21.3750  -16.5130 C.2     1  UNL1        0.0080
     37  C         26.0060  -20.6890  -12.6370 C.2     1  UNL1        0.0250
     38  C         26.4270  -19.6400  -13.4560 C.2     1  UNL1        0.0240
     39  C         26.9870  -18.4940  -12.8890 C.2     1  UNL1        0.0020
     40  C         27.1210  -18.3950  -11.5040 C.2     1  UNL1        0.0000
     41  C         26.6900  -19.4390  -10.6830 C.2     1  UNL1        0.0020
     42  C         26.1300  -20.5850  -11.2490 C.2     1  UNL1        0.0240
@<TRIPOS>BOND
     1    34    35    2
     2    34    33    1
     3    35    36    1
     4    33    32    2
     5    36    31    2
     6    32    31    1
     7    31    30    1
     8    30    29    1
     9    38    39    1
    10    38    37    2
    11    29    37    1
    12    29    26    1
    13    39    40    2
    14     4     3    2
    15     4     5    1
    16     3     2    1
    17    27    26    2
    18    37    42    1
    19    26     5    1
    20    26    28    2
    21     5     6    2
    22     2     1    2
    23    40    41    1
    24    42    41    2
    25     6     1    1
    26     1     7    1
    27     7    10    2
    28     7     8   am
    29     9     8    1
    30     8    11    1
    31    16    11   ar
    32    16    14   ar
    33    11    12   ar
    34    25    21    2
    35    12    21    1
    36    12    13   ar
    37    14    17    1
    38    14    13   ar
    39    21    22   am
    40    17    18    1
    41    13    15    1
    42    22    23    1
    43    22    24    1
    44    18    19    1
    45    15    20    1
    46    19    20    1
