@<TRIPOS>MOLECULE
27117_out_ligand_01.pdbqt
 34 38 0 0 0
SMALL
GASTEIGER

@<TRIPOS>ATOM
      1  C         19.4780  -22.6910   -9.7960 C.2     1  UNL1        0.0480
      2  C         18.4970  -22.5060  -10.7810 C.2     1  UNL1        0.0180
      3  C         18.7580  -21.6780  -11.8710 C.2     1  UNL1        0.0010
      4  C         19.9930  -21.0380  -11.9730 C.2     1  UNL1        0.0010
      5  C         20.9670  -21.2210  -10.9860 C.2     1  UNL1        0.0190
      6  C         20.7280  -22.0590   -9.8870 C.2     1  UNL1        0.0160
      7  S         22.0070  -22.1850   -8.6450 S.3     1  UNL1       -0.1200
      8  C         23.1780  -23.3000   -9.4890 C.3     1  UNL1        0.1820
      9  C         23.9490  -22.5580  -10.5680 C.2     1  UNL1        0.2270
     10  O         24.3540  -21.4090  -10.4090 O.2     1  UNL1       -0.2730
     11  N         24.1390  -23.2890  -11.7260 N.am    1  UNL1       -0.3510
     12  H         23.6320  -24.1650  -11.8090 H       1  UNL1        0.1630
     13  C         24.8270  -22.7940  -12.9230 C.3     1  UNL1        0.0340
     14  C         23.8860  -21.7960  -13.6530 C.3     1  UNL1        0.0350
     15  C         24.5480  -21.2390  -14.9230 C.3     1  UNL1       -0.0120
     16  C         24.8730  -22.4030  -15.8730 C.3     1  UNL1        0.0090
     17  C         25.8500  -20.5160  -14.5410 C.3     1  UNL1        0.0090
     18  C         25.8230  -23.3950  -15.1830 C.3     1  UNL1       -0.0120
     19  C         27.1210  -22.6670  -14.7910 C.3     1  UNL1        0.0090
     20  C         25.1510  -23.9430  -13.9110 C.3     1  UNL1        0.0350
     21  C         26.8070  -21.4960  -13.8430 C.3     1  UNL1       -0.0120
     22  C         26.1350  -22.0410  -12.5700 C.3     1  UNL1        0.0350
     23  C         19.1380  -23.5810   -8.6710 C.2     1  UNL1        0.2530
     24  N         18.0240  -23.2050   -7.9650 N.am    1  UNL1       -0.3490
     25  H         17.5510  -22.3390   -8.2030 H       1  UNL1        0.1630
     26  O         19.8160  -24.5770   -8.4590 O.2     1  UNL1       -0.2680
     27  C         17.5750  -23.9240   -6.7850 C.3     1  UNL1        0.1140
     28  C         16.0970  -24.3150   -6.9000 C.3     1  UNL1        0.0370
     29  C         17.8900  -23.0930   -5.5530 C.2     1  UNL1       -0.0360
     30  C         18.5210  -21.8450   -5.7090 C.2     1  UNL1        0.0090
     31  C         18.7880  -21.0340   -4.6030 C.2     1  UNL1        0.0010
     32  C         18.4160  -21.4520   -3.3280 C.2     1  UNL1        0.0000
     33  C         17.7800  -22.6810   -3.1560 C.2     1  UNL1        0.0010
     34  C         17.5140  -23.4940   -4.2610 C.2     1  UNL1        0.0090
@<TRIPOS>BOND
     1    16    18    1
     2    16    15    1
     3    18    19    1
     4    18    20    1
     5    15    17    1
     6    15    14    1
     7    19    21    1
     8    17    21    1
     9    20    13    1
    10    21    22    1
    11    14    13    1
    12    13    22    1
    13    13    11    1
    14     4     3    2
    15     4     5    1
    16     3     2    1
    17    12    11    1
    18    11     9   am
    19     5     6    2
    20     2     1    2
    21     9    10    2
    22     9     8    1
    23     6     1    1
    24     6     7    1
    25     1    23    1
    26     8     7    1
    27    23    26    2
    28    23    24   am
    29    25    24    1
    30    24    27    1
    31    28    27    1
    32    27    29    1
    33    30    29    2
    34    30    31    1
    35    29    34    1
    36    31    32    2
    37    34    33    2
    38    32    33    1
