@<TRIPOS>MOLECULE
27118_out_ligand_01.pdbqt
 30 33 0 0 0
SMALL
GASTEIGER

@<TRIPOS>ATOM
      1  C         19.2570  -22.1960  -10.1920 C.2     1  UNL1        0.0330
      2  C         18.3410  -21.4530  -10.9560 C.2     1  UNL1        0.0170
      3  C         16.9730  -21.5250  -10.6820 C.2     1  UNL1        0.0030
      4  C         16.5120  -22.3300   -9.6420 C.2     1  UNL1        0.0250
      5  C         17.4280  -23.0590   -8.8730 C.2     1  UNL1        0.0810
      6  C         18.7990  -22.9880   -9.1320 C.2     1  UNL1        0.0420
      7  S         16.8130  -24.0590   -7.5300 S.O2    1  UNL1        0.2650
      8  O         15.7490  -24.8900   -8.0530 O.2     1  UNL1       -0.2000
      9  O         17.9900  -24.6440   -6.9210 O.2     1  UNL1       -0.2000
     10  N         16.1160  -22.8630   -6.4940 N.pl3   1  UNL1       -0.2710
     11  C         14.7640  -23.1950   -5.9610 C.3     1  UNL1        0.1420
     12  C         14.8610  -23.9580   -4.6510 C.3     1  UNL1        0.0260
     13  C         15.5780  -23.1210   -3.6040 C.3     1  UNL1        0.0420
     14  C         16.8060  -22.4370   -4.1430 C.2     1  UNL1       -0.0310
     15  C         17.7100  -21.8710   -3.2300 C.2     1  UNL1        0.0090
     16  C         17.0280  -22.2850   -5.5230 C.2     1  UNL1        0.0510
     17  C         18.8230  -21.1600   -3.6800 C.2     1  UNL1        0.0010
     18  C         19.0310  -20.9920   -5.0440 C.2     1  UNL1        0.0020
     19  C         18.1330  -21.5450   -5.9590 C.2     1  UNL1        0.0310
     20  C         20.7240  -22.1410  -10.4560 C.2     1  UNL1        0.2560
     21  O         21.4800  -22.1140   -9.4940 O.2     1  UNL1       -0.2670
     22  N         21.0790  -22.1690  -11.7930 N.am    1  UNL1       -0.3230
     23  H         20.3390  -22.3250  -12.4640 H       1  UNL1        0.1690
     24  C         22.3810  -22.0940  -12.3320 C.2     1  UNL1        0.0350
     25  C         22.5680  -21.2550  -13.4390 C.2     1  UNL1        0.0310
     26  C         23.8270  -21.1200  -14.0300 C.2     1  UNL1        0.0210
     27  C         24.9100  -21.8260  -13.5120 C.2     1  UNL1        0.0110
     28 BR         26.6150  -21.6470  -14.3080 Br      1  UNL1       -0.0510
     29  C         24.7420  -22.6590  -12.4120 C.2     1  UNL1        0.0210
     30  C         23.4790  -22.7910  -11.8220 C.2     1  UNL1        0.0310
@<TRIPOS>BOND
     1    28    27    1
     2    26    27    2
     3    26    25    1
     4    27    29    1
     5    25    24    2
     6    23    22    1
     7    29    30    2
     8    24    30    1
     9    24    22    1
    10    22    20   am
    11     2     3    1
    12     2     1    2
    13     3     4    2
    14    20     1    1
    15    20    21    2
    16     1     6    1
    17     4     5    1
    18     6     5    2
    19     5     7    1
    20     8     7    2
    21     7     9    2
    22     7    10    1
    23    10    11    1
    24    10    16    1
    25    11    12    1
    26    19    16    1
    27    19    18    2
    28    16    14    2
    29    18    17    1
    30    12    13    1
    31    14    13    1
    32    14    15    1
    33    17    15    2
