@<TRIPOS>MOLECULE
27113_out_ligand_01.pdbqt
 37 40 0 0 0
SMALL
GASTEIGER

@<TRIPOS>ATOM
      1  C         17.6690  -22.8850  -10.1140 C.2     1  UNL1        0.2280
      2  O         17.6330  -22.3900  -11.2390 O.2     1  UNL1       -0.2730
      3  N         18.8130  -23.2550   -9.4320 N.am    1  UNL1       -0.3270
      4  H         18.7110  -23.7440   -8.5500 H       1  UNL1        0.1690
      5  C         20.1530  -23.0570   -9.8290 C.2     1  UNL1        0.0340
      6  C         21.1300  -23.8120   -9.1620 C.2     1  UNL1        0.0310
      7  C         22.4840  -23.6640   -9.4710 C.2     1  UNL1        0.0270
      8  C         22.8700  -22.7540  -10.4560 C.2     1  UNL1        0.0750
      9  C         21.9120  -21.9820  -11.1140 C.2     1  UNL1        0.0270
     10  C         20.5560  -22.1420  -10.8070 C.2     1  UNL1        0.0310
     11  S         24.5980  -22.5130  -10.7960 S.O2    1  UNL1        0.2480
     12  O         25.3110  -23.4970  -10.0030 O.2     1  UNL1       -0.2050
     13  O         24.9190  -21.1070  -10.6600 O.2     1  UNL1       -0.2050
     14  N         24.7650  -23.0050  -12.3740 N.pl3   1  UNL1       -0.1480
     15  H         25.3390  -23.8340  -12.4760 H       1  UNL1        0.1490
     16  C         25.0650  -22.0250  -13.3120 C.cat   1  UNL1        0.2150
     17  N         24.0720  -21.4310  -13.9750 N.2     1  UNL1       -0.2300
     18  C         24.4510  -20.5790  -14.9470 C.2     1  UNL1        0.1210
     19  C         25.7650  -20.3500  -15.2840 C.2     1  UNL1        0.0390
     20  C         26.6940  -21.0650  -14.5640 C.2     1  UNL1        0.1210
     21  N         26.3700  -21.9290  -13.5820 N.2     1  UNL1       -0.2300
     22  C         16.3590  -23.0740   -9.3470 C.3     1  UNL1        0.1050
     23  C         16.2480  -22.0860   -8.2030 C.3     1  UNL1        0.1470
     24  N         16.6110  -22.8430   -7.0250 N.am    1  UNL1       -0.3170
     25  C         16.7020  -24.2120   -7.2930 C.2     1  UNL1        0.2250
     26  C         16.2050  -24.4430   -8.6990 C.3     1  UNL1        0.1190
     27  O         17.1650  -25.0940   -6.5890 O.2     1  UNL1       -0.2730
     28  C         17.2340  -22.2470   -5.9070 C.2     1  UNL1        0.0430
     29  C         18.5370  -21.7380   -6.0810 C.2     1  UNL1        0.0300
     30  C         19.2480  -21.1870   -5.0180 C.2     1  UNL1        0.0020
     31  C         18.6650  -21.1320   -3.7620 C.2     1  UNL1        0.0010
     32  C         17.3670  -21.6080   -3.5800 C.2     1  UNL1        0.0100
     33  C         16.6120  -22.1580   -4.6450 C.2     1  UNL1       -0.0270
     34  C         15.1610  -22.5160   -4.3050 C.3     1  UNL1        0.0160
     35  C         14.0800  -21.8610   -5.1720 C.3     1  UNL1        0.0150
     36  C         14.9730  -24.0390   -4.1650 C.3     1  UNL1        0.0040
     37  C         13.9110  -24.6040   -5.1010 C.3     1  UNL1        0.0060
@<TRIPOS>BOND
     1    19    18    2
     2    19    20    1
     3    18    17    1
     4    20    21    2
     5    17    16    2
     6    21    16    1
     7    16    14    1
     8    15    14    1
     9    14    11    1
    10     2     1    2
    11     9    10    1
    12     9     8    2
    13    10     5    2
    14    11    13    2
    15    11     8    1
    16    11    12    2
    17     8     7    1
    18     1     3   am
    19     1    22    1
    20     5     3    1
    21     5     6    1
    22     7     6    2
    23     3     4    1
    24    22    26    1
    25    22    23    1
    26    26    25    1
    27    23    24    1
    28    25    24   am
    29    25    27    2
    30    24    28    1
    31    29    28    2
    32    29    30    1
    33    28    33    1
    34    35    34    1
    35    37    36    1
    36    30    31    2
    37    33    34    1
    38    33    32    2
    39    34    36    1
    40    31    32    1
