@<TRIPOS>MOLECULE
27122_out_ligand_01.pdbqt
 34 37 0 0 0
SMALL
GASTEIGER

@<TRIPOS>ATOM
      1  N         13.0640  -21.2180   -6.1500 N.1     1  UNL1       -0.1910
      2  C         14.0120  -21.7520   -5.7450 C.1     1  UNL1        0.0990
      3  C         15.1880  -22.4080   -5.2550 C.2     1  UNL1        0.0460
      4  C         15.1420  -23.1270   -4.0590 C.2     1  UNL1        0.0230
      5  C         16.2910  -23.7620   -3.5900 C.2     1  UNL1        0.0040
      6  C         17.4840  -23.6840   -4.3150 C.2     1  UNL1        0.0290
      7  C         17.5430  -22.9710   -5.5140 C.2     1  UNL1        0.0360
      8  C         16.3860  -22.3310   -5.9780 C.2     1  UNL1        0.0520
      9  N         18.7040  -22.8460   -6.3000 N.am    1  UNL1       -0.3260
     10  C         19.5960  -21.7840   -6.3430 C.2     1  UNL1        0.2310
     11  O         19.5050  -20.7410   -5.7000 O.2     1  UNL1       -0.2720
     12  H         18.9700  -23.6530   -6.8550 H       1  UNL1        0.1690
     13  C         20.7250  -21.9880   -7.3460 C.3     1  UNL1        0.1820
     14  S         20.3430  -23.3470   -8.5100 S.3     1  UNL1       -0.1200
     15  C         19.8030  -22.3670   -9.9090 C.2     1  UNL1        0.0160
     16  C         18.4230  -22.1990  -10.0970 C.2     1  UNL1        0.0190
     17  C         17.9360  -21.4140  -11.1460 C.2     1  UNL1        0.0010
     18  C         18.8190  -20.7780  -12.0150 C.2     1  UNL1        0.0010
     19  C         20.1930  -20.9260  -11.8370 C.2     1  UNL1        0.0180
     20  C         20.6840  -21.7150  -10.7860 C.2     1  UNL1        0.0480
     21  C         22.1530  -21.8390  -10.6490 C.2     1  UNL1        0.2530
     22  O         22.7760  -21.0760   -9.9230 O.2     1  UNL1       -0.2680
     23  N         22.7110  -22.8560  -11.3900 N.am    1  UNL1       -0.3530
     24  H         22.1380  -23.3150  -12.0850 H       1  UNL1        0.1630
     25  C         24.1440  -22.9880  -11.5210 C.3     1  UNL1        0.1610
     26  C         24.5350  -23.1070  -12.9730 C.2     1  UNL1       -0.0380
     27  C         25.3740  -24.1660  -13.3930 C.2     1  UNL1        0.0120
     28  C         25.7780  -24.2820  -14.7270 C.2     1  UNL1        0.0400
     29  C         25.3340  -23.3270  -15.6130 C.2     1  UNL1        0.1050
     30  C         24.5250  -22.2880  -15.2150 C.2     1  UNL1        0.1050
     31  O         25.6250  -23.2770  -16.9410 O.2     1  UNL1       -0.3230
     32  C         24.1110  -22.1480  -13.9070 C.2     1  UNL1        0.0480
     33  O         24.2070  -21.4540  -16.2420 O.2     1  UNL1       -0.3230
     34  C         24.9050  -22.0910  -17.3320 C.3     1  UNL1        0.3520
@<TRIPOS>BOND
     1    34    31    1
     2    34    33    1
     3    31    29    1
     4    33    30    1
     5    29    30    2
     6    29    28    1
     7    30    32    1
     8    28    27    2
     9    32    26    2
    10    27    26    1
    11    26    25    1
    12    24    23    1
    13    18    19    2
    14    18    17    1
    15    19    20    1
    16    25    23    1
    17    23    21   am
    18    17    16    2
    19    20    21    1
    20    20    15    2
    21    21    22    2
    22    16    15    1
    23    15    14    1
    24    14    13    1
    25    13    10    1
    26    12     9    1
    27    10     9   am
    28    10    11    2
    29     9     7    1
    30     1     2    3
    31     8     7    1
    32     8     3    2
    33     2     3    1
    34     7     6    2
    35     3     4    1
    36     6     5    1
    37     4     5    2
