@<TRIPOS>MOLECULE
27137_out_ligand_01.pdbqt
 32 35 0 0 0
SMALL
GASTEIGER

@<TRIPOS>ATOM
      1  C         19.8020  -22.3760  -10.2540 C.2     1  UNL1        0.0330
      2  C         19.7070  -21.3770  -11.2340 C.2     1  UNL1        0.0170
      3  C         18.4550  -20.9040  -11.6360 C.2     1  UNL1        0.0030
      4  C         17.2960  -21.4130  -11.0520 C.2     1  UNL1        0.0250
      5  C         17.3950  -22.3890  -10.0560 C.2     1  UNL1        0.0800
      6  C         18.6410  -22.8820   -9.6590 C.2     1  UNL1        0.0420
      7  S         15.9170  -23.0370   -9.3160 S.O2    1  UNL1        0.2590
      8  O         16.0740  -24.4620   -9.1420 O.2     1  UNL1       -0.2010
      9  O         14.7930  -22.4790  -10.0350 O.2     1  UNL1       -0.2010
     10  N         15.9300  -22.3030   -7.8230 N.3     1  UNL1       -0.3060
     11  H         15.3920  -21.4430   -7.7410 H       1  UNL1        0.1730
     12  C         16.2220  -23.0730   -6.6100 C.3     1  UNL1        0.1260
     13  C         14.8860  -23.4090   -5.9280 C.3     1  UNL1        0.0310
     14  C         15.1160  -23.9710   -4.5320 C.3     1  UNL1        0.0070
     15  C         15.7720  -22.9170   -3.6470 C.3     1  UNL1        0.0390
     16  C         16.9670  -22.2670   -4.2980 C.2     1  UNL1       -0.0500
     17  C         17.8750  -21.5670   -3.4860 C.2     1  UNL1        0.0070
     18  C         17.1680  -22.3100   -5.6930 C.2     1  UNL1       -0.0290
     19  C         18.9910  -20.9420   -4.0400 C.2     1  UNL1        0.0010
     20  C         19.2120  -21.0080   -5.4110 C.2     1  UNL1        0.0010
     21  C         18.3120  -21.6900   -6.2300 C.2     1  UNL1        0.0100
     22  C         21.1160  -22.9020   -9.7930 C.2     1  UNL1        0.2510
     23  O         21.2010  -24.0580   -9.3960 O.2     1  UNL1       -0.2680
     24  N         22.1820  -22.0340   -9.8790 N.am    1  UNL1       -0.3530
     25  H         22.0860  -21.2010  -10.4420 H       1  UNL1        0.1630
     26  C         23.5340  -22.4780   -9.6180 C.3     1  UNL1        0.1610
     27  C         24.3850  -22.3480  -10.8550 C.2     1  UNL1       -0.0410
     28  C         24.1060  -23.1020  -12.0030 C.2     1  UNL1        0.0090
     29  C         24.9140  -22.9890  -13.1370 C.2     1  UNL1        0.0010
     30  C         26.0090  -22.1290  -13.1310 C.2     1  UNL1        0.0000
     31  C         26.3020  -21.3800  -11.9920 C.2     1  UNL1        0.0010
     32  C         25.4950  -21.4900  -10.8590 C.2     1  UNL1        0.0090
@<TRIPOS>BOND
     1    29    30    2
     2    29    28    1
     3    30    31    1
     4    28    27    2
     5    31    32    2
     6     3     2    1
     7     3     4    2
     8     2     1    2
     9     4     5    1
    10    32    27    1
    11    27    26    1
    12    25    24    1
    13     1    22    1
    14     1     6    1
    15     5     6    2
    16     5     7    1
    17     9     7    2
    18    24    22   am
    19    24    26    1
    20    22    23    2
    21     7     8    2
    22     7    10    1
    23    10    11    1
    24    10    12    1
    25    12    13    1
    26    12    18    1
    27    21    18    1
    28    21    20    2
    29    13    14    1
    30    18    16    2
    31    20    19    1
    32    14    15    1
    33    16    15    1
    34    16    17    1
    35    19    17    2
