@<TRIPOS>MOLECULE
27136_out_ligand_01.pdbqt
 31 34 0 0 0
SMALL
GASTEIGER

@<TRIPOS>ATOM
      1  C         21.9190  -22.6770  -10.5380 C.2     1  UNL1        0.0320
      2  C         21.9110  -23.6300   -9.5070 C.2     1  UNL1        0.0180
      3  C         20.7370  -23.8930   -8.7970 C.2     1  UNL1        0.0260
      4  C         19.5700  -23.1980   -9.1260 C.2     1  UNL1        0.0750
      5  C         19.5570  -22.2660  -10.1680 C.2     1  UNL1        0.0260
      6  C         20.7330  -22.0070  -10.8780 C.2     1  UNL1        0.0180
      7  S         18.0510  -23.5200   -8.2420 S.O2    1  UNL1        0.2480
      8  O         18.2370  -24.7430   -7.4840 O.2     1  UNL1       -0.2050
      9  O         17.0040  -23.4090   -9.2350 O.2     1  UNL1       -0.2050
     10  N         17.9950  -22.1910   -7.1120 N.pl3   1  UNL1       -0.1720
     11  C         19.3710  -21.8150   -6.6450 C.3     1  UNL1        0.1140
     12  C         19.3250  -20.8490   -5.4770 C.3     1  UNL1        0.0200
     13  C         18.6330  -21.5280   -4.3120 C.3     1  UNL1        0.0420
     14  C         17.2640  -21.9900   -4.7280 C.2     1  UNL1       -0.0360
     15  C         16.2720  -22.1050   -3.7360 C.2     1  UNL1        0.0090
     16  C         16.9720  -22.3150   -6.0680 C.2     1  UNL1        0.0310
     17  C         14.9730  -22.4680   -4.0740 C.2     1  UNL1        0.0010
     18  C         14.6530  -22.7000   -5.4050 C.2     1  UNL1        0.0020
     19  C         15.6410  -22.6060   -6.3910 C.2     1  UNL1        0.0250
     20  C         23.1970  -22.4350  -11.2680 C.2     1  UNL1        0.2560
     21  N         23.0590  -21.8300  -12.5040 N.am    1  UNL1       -0.3230
     22  H         22.1360  -21.5110  -12.7640 H       1  UNL1        0.1690
     23  O         24.2440  -22.7480  -10.7160 O.2     1  UNL1       -0.2670
     24  C         24.0830  -21.5200  -13.4250 C.2     1  UNL1        0.0370
     25  C         25.2920  -20.9200  -13.0740 C.2     1  UNL1        0.0290
     26  C         26.2560  -20.6530  -14.0520 C.2     1  UNL1        0.0050
     27  C         26.0220  -20.9840  -15.3870 C.2     1  UNL1        0.0370
     28  C         24.8200  -21.5880  -15.7510 C.2     1  UNL1        0.0700
     29  C         23.8600  -21.8520  -14.7680 C.2     1  UNL1        0.0660
     30  O         24.4600  -21.9650  -17.0160 O.2     1  UNL1       -0.3560
     31  C         24.3140  -23.3600  -17.2530 C.3     1  UNL1        0.2100
@<TRIPOS>BOND
     1    31    30    1
     2    30    28    1
     3    28    27    2
     4    28    29    1
     5    27    26    1
     6    29    24    2
     7    26    25    2
     8    24    25    1
     9    24    21    1
    10    22    21    1
    11    21    20   am
    12    20    23    2
    13    20     1    1
    14     6     1    2
    15     6     5    1
    16     1     2    1
    17     5     4    2
    18     2     3    2
    19     9     7    2
    20     4     3    1
    21     4     7    1
    22     7     8    2
    23     7    10    1
    24    10    11    1
    25    10    16    1
    26    11    12    1
    27    19    16    1
    28    19    18    2
    29    16    14    2
    30    12    13    1
    31    18    17    1
    32    14    13    1
    33    14    15    1
    34    17    15    2
