@<TRIPOS>MOLECULE
27162_out_ligand_01.pdbqt
 35 37 0 0 0
SMALL
GASTEIGER

@<TRIPOS>ATOM
      1  N         22.1140  -22.1190  -10.2050 N.am    1  UNL1       -0.3260
      2  C         21.4980  -23.1190   -9.4680 C.2     1  UNL1        0.2400
      3  O         21.9780  -24.2290   -9.2460 O.2     1  UNL1       -0.2720
      4  H         21.5780  -21.2630  -10.3000 H       1  UNL1        0.1690
      5  C         20.1330  -22.7320   -8.8570 C.3     1  UNL1        0.1770
      6  S         19.3150  -24.1730   -8.0230 S.3     1  UNL1       -0.1110
      7  C         18.6860  -23.3600   -6.5660 C.2     1  UNL1        0.0040
      8  C         17.8010  -24.0400   -5.7180 C.2     1  UNL1        0.0220
      9  C         17.2990  -23.4130   -4.5740 C.2     1  UNL1        0.0470
     10  C         17.6910  -22.1130   -4.2780 C.2     1  UNL1        0.1540
     11  F         17.2080  -21.5130   -3.1830 F       1  UNL1       -0.2030
     12  C         18.5770  -21.4410   -5.1120 C.2     1  UNL1        0.1560
     13  F         18.9540  -20.1870   -4.8230 F       1  UNL1       -0.2030
     14  C         19.0820  -22.0560   -6.2540 C.2     1  UNL1        0.0640
     15  C         19.2120  -22.0860   -9.8800 C.2     1  UNL1       -0.0350
     16  C         17.8200  -22.2360   -9.7540 C.2     1  UNL1        0.0090
     17  C         16.9550  -21.6760  -10.6950 C.2     1  UNL1        0.0010
     18  C         17.4660  -20.9550  -11.7720 C.2     1  UNL1        0.0000
     19  C         18.8420  -20.7940  -11.9100 C.2     1  UNL1        0.0010
     20  C         19.7110  -21.3550  -10.9720 C.2     1  UNL1        0.0090
     21  C         23.3570  -22.1610  -10.8650 C.2     1  UNL1        0.0350
     22  C         24.4220  -21.4860  -10.2500 C.2     1  UNL1        0.0290
     23  C         25.6940  -21.4700  -10.8290 C.2     1  UNL1        0.0030
     24  C         25.9180  -22.1340  -12.0320 C.2     1  UNL1        0.0170
     25  C         24.8630  -22.8150  -12.6490 C.2     1  UNL1        0.0340
     26  C         23.5840  -22.8210  -12.0750 C.2     1  UNL1        0.0460
     27  C         25.0640  -23.5210  -13.9410 C.2     1  UNL1        0.2590
     28  N         24.5850  -22.8460  -15.0470 N.am    1  UNL1       -0.2800
     29  C         25.0830  -23.0330  -16.3080 C.2     1  UNL1        0.2980
     30  H         24.2570  -21.9060  -14.9030 H       1  UNL1        0.1730
     31  N         24.4620  -22.2230  -17.2190 N.am    1  UNL1       -0.2540
     32  O         25.9740  -23.7830  -16.6720 O.2     1  UNL1       -0.2540
     33  H         23.4550  -22.1830  -17.1520 H       1  UNL1        0.1280
     34  H         24.7800  -22.4300  -18.1600 H       1  UNL1        0.1280
     35  O         25.5420  -24.6460  -13.9260 O.2     1  UNL1       -0.2670
@<TRIPOS>BOND
     1    34    31    1
     2    31    33    1
     3    31    29   am
     4    32    29    2
     5    29    28   am
     6    28    30    1
     7    28    27   am
     8    27    35    2
     9    27    25    1
    10    25    26    1
    11    25    24    2
    12    26    21    2
    13    24    23    1
    14    19    18    2
    15    19    20    1
    16    18    17    1
    17    20    15    2
    18    21    22    1
    19    21     1    1
    20    23    22    2
    21    17    16    2
    22     4     1    1
    23     1     2   am
    24    15    16    1
    25    15     5    1
    26     2     3    2
    27     2     5    1
    28     5     6    1
    29     6     7    1
    30     7    14    2
    31     7     8    1
    32    14    12    1
    33     8     9    2
    34    12    13    1
    35    12    10    2
    36     9    10    1
    37    10    11    1
