@<TRIPOS>MOLECULE
271_out_ligand_01.pdbqt
 37 39 0 0 0
SMALL
GASTEIGER

@<TRIPOS>ATOM
      1  C         18.5180  -23.4440   -9.0140 C.2     1  UNL1        0.0790
      2  C         18.9960  -22.5170   -9.9470 C.2     1  UNL1        0.0260
      3  C         20.3650  -22.4550  -10.2220 C.2     1  UNL1        0.0180
      4  C         21.2530  -23.3120   -9.5530 C.2     1  UNL1        0.0320
      5  C         20.7680  -24.2070   -8.5910 C.2     1  UNL1        0.0180
      6  C         19.4000  -24.2760   -8.3180 C.2     1  UNL1        0.0260
      7  C         22.7160  -23.2810   -9.8200 C.2     1  UNL1        0.2520
      8  O         23.4970  -23.7990   -9.0320 O.2     1  UNL1       -0.2680
      9  N         23.0990  -22.6850  -10.9980 N.am    1  UNL1       -0.3490
     10  H         22.3980  -22.3980  -11.6670 H       1  UNL1        0.1630
     11  C         24.4900  -22.6500  -11.4220 C.3     1  UNL1        0.1140
     12  C         25.2360  -21.4730  -10.7860 C.3     1  UNL1        0.0370
     13  C         24.5480  -22.6340  -12.9410 C.2     1  UNL1       -0.0360
     14  C         23.9280  -21.6240  -13.6970 C.2     1  UNL1        0.0110
     15  C         23.9580  -21.6560  -15.0930 C.2     1  UNL1        0.0250
     16  C         24.6120  -22.7040  -15.7450 C.2     1  UNL1        0.0740
     17  C         25.2200  -23.7270  -15.0140 C.2     1  UNL1        0.0250
     18  C         25.1850  -23.6900  -13.6180 C.2     1  UNL1        0.0110
     19  S         24.6020  -22.7710  -17.5120 S.O2    1  UNL1        0.2390
     20  O         23.4300  -23.4940  -17.9480 O.2     1  UNL1       -0.2060
     21  O         25.9300  -23.0910  -17.9850 O.2     1  UNL1       -0.2060
     22  N         24.3420  -21.1640  -17.9210 N.3     1  UNL1       -0.2250
     23  H         24.9220  -20.5580  -17.3390 H       1  UNL1        0.1360
     24  H         23.3460  -20.9520  -17.8700 H       1  UNL1        0.1360
     25  S         16.7750  -23.5050   -8.6540 S.O2    1  UNL1        0.2630
     26  O         16.0550  -23.4130   -9.9070 O.2     1  UNL1       -0.2000
     27  O         16.5620  -24.6180   -7.7510 O.2     1  UNL1       -0.2000
     28  N         16.5130  -22.1130   -7.7420 N.pl3   1  UNL1       -0.2800
     29  H         15.9660  -21.4110   -8.2350 H       1  UNL1        0.1790
     30  C         16.4150  -22.1860   -6.3200 C.2     1  UNL1        0.0490
     31  C         15.1910  -22.5360   -5.7420 C.2     1  UNL1        0.0310
     32  C         15.0590  -22.6100   -4.3610 C.2     1  UNL1        0.0030
     33  C         16.1580  -22.3460   -3.5460 C.2     1  UNL1        0.0070
     34  C         17.4050  -22.0080   -4.1020 C.2     1  UNL1       -0.0540
     35  C         18.5550  -21.7450   -3.1680 C.3     1  UNL1        0.0490
     36  C         17.5380  -21.9050   -5.5080 C.2     1  UNL1       -0.0290
     37  C         18.8710  -21.5650   -6.1300 C.3     1  UNL1        0.0510
@<TRIPOS>BOND
     1    21    19    2
     2    20    19    2
     3    22    24    1
     4    22    19    1
     5    22    23    1
     6    19    16    1
     7    16    15    2
     8    16    17    1
     9    15    14    1
    10    17    18    2
    11    14    13    2
    12    18    13    1
    13    13    11    1
    14    10     9    1
    15    11     9    1
    16    11    12    1
    17     9     7   am
    18     3     2    1
    19     3     4    2
    20     2     1    2
    21    26    25    2
    22     7     4    1
    23     7     8    2
    24     4     5    1
    25     1    25    1
    26     1     6    1
    27    25    27    2
    28    25    28    1
    29     5     6    2
    30    29    28    1
    31    28    30    1
    32    30    31    2
    33    30    36    1
    34    37    36    1
    35    31    32    1
    36    36    34    2
    37    32    33    2
    38    34    33    1
    39    34    35    1
