@<TRIPOS>MOLECULE
2720_out_ligand_01.pdbqt
 35 38 0 0 0
SMALL
GASTEIGER

@<TRIPOS>ATOM
      1  C         21.4720  -22.4190   -9.3760 C.2     1  UNL1        0.0320
      2  C         20.5110  -22.5740  -10.3860 C.2     1  UNL1        0.0180
      3  C         19.1800  -22.8420  -10.0610 C.2     1  UNL1        0.0260
      4  C         18.8120  -22.9500   -8.7160 C.2     1  UNL1        0.0790
      5  C         19.7670  -22.8350   -7.7010 C.2     1  UNL1        0.0260
      6  C         21.0980  -22.5700   -8.0330 C.2     1  UNL1        0.0180
      7  C         22.8730  -22.1140   -9.7790 C.2     1  UNL1        0.2510
      8  O         23.3700  -21.0280   -9.5000 O.2     1  UNL1       -0.2680
      9  N         23.5610  -23.1230  -10.4210 N.am    1  UNL1       -0.3530
     10  H         23.1770  -24.0560  -10.4170 H       1  UNL1        0.1630
     11  C         24.9760  -23.0060  -10.6960 C.3     1  UNL1        0.1610
     12  C         25.2000  -22.3500  -12.0340 C.2     1  UNL1       -0.0360
     13  C         25.8210  -21.0960  -12.1130 C.2     1  UNL1        0.0350
     14  C         26.0540  -20.4970  -13.3540 C.2     1  UNL1        0.0700
     15 CL         26.8030  -18.9380  -13.3740 Cl      1  UNL1       -0.0810
     16  C         25.6740  -21.1390  -14.5420 C.2     1  UNL1        0.1230
     17  C         25.1080  -22.4220  -14.4680 C.2     1  UNL1        0.1040
     18  O         25.9020  -20.4660  -15.7190 O.2     1  UNL1       -0.3460
     19  C         24.8520  -23.0060  -13.2210 C.2     1  UNL1        0.0480
     20  O         24.7480  -23.2040  -15.5380 O.2     1  UNL1       -0.3480
     21  C         25.5850  -23.0470  -16.6850 C.3     1  UNL1        0.1780
     22  C         25.1340  -21.8710  -17.5340 C.3     1  UNL1        0.0530
     23  C         24.8670  -20.6410  -16.6860 C.3     1  UNL1        0.1780
     24  S         17.1100  -23.2720   -8.3020 S.O2    1  UNL1        0.2630
     25  O         17.0650  -24.4880   -7.5190 O.2     1  UNL1       -0.2000
     26  O         16.3350  -23.1270   -9.5140 O.2     1  UNL1       -0.2000
     27  N         16.7040  -21.9630   -7.3110 N.pl3   1  UNL1       -0.2780
     28  H         17.2340  -21.1310   -7.5730 H       1  UNL1        0.1790
     29  C         16.5750  -22.1920   -5.9050 C.2     1  UNL1        0.0810
     30  C         17.6920  -22.2030   -5.0710 C.2     1  UNL1        0.0330
     31  C         17.5280  -22.3890   -3.6950 C.2     1  UNL1        0.0020
     32  C         16.2520  -22.5630   -3.1530 C.2     1  UNL1        0.0030
     33  C         15.1330  -22.5530   -3.9860 C.2     1  UNL1        0.0440
     34  C         15.3030  -22.3680   -5.3530 C.2     1  UNL1        0.1430
     35  F         14.2250  -22.3480   -6.1520 F       1  UNL1       -0.2040
@<TRIPOS>BOND
     1    22    23    1
     2    22    21    1
     3    23    18    1
     4    21    20    1
     5    18    16    1
     6    20    17    1
     7    16    17    2
     8    16    14    1
     9    17    19    1
    10    15    14    1
    11    14    13    2
    12    19    12    2
    13    13    12    1
    14    12    11    1
    15    11     9    1
    16     9    10    1
    17     9     7   am
    18     2     3    1
    19     2     1    2
    20     3     4    2
    21     7     8    2
    22     7     1    1
    23    26    24    2
    24     1     6    1
    25     4    24    1
    26     4     5    1
    27    24    25    2
    28    24    27    1
    29     6     5    2
    30    28    27    1
    31    27    29    1
    32    35    34    1
    33    29    34    2
    34    29    30    1
    35    34    33    1
    36    30    31    2
    37    33    32    2
    38    31    32    1
