@<TRIPOS>MOLECULE
27204_out_ligand_01.pdbqt
 28 31 0 0 0
SMALL
GASTEIGER

@<TRIPOS>ATOM
      1  C         22.7130  -22.7430  -10.7690 C.2     1  UNL1        0.0320
      2  C         21.3850  -22.4440  -11.0950 C.2     1  UNL1        0.0170
      3  C         20.3450  -22.9050  -10.2810 C.2     1  UNL1        0.0100
      4  C         20.6180  -23.6580   -9.1290 C.2     1  UNL1       -0.0300
      5  C         21.9510  -23.9420   -8.8020 C.2     1  UNL1        0.0100
      6  C         22.9920  -23.4830   -9.6140 C.2     1  UNL1        0.0170
      7  C         23.8560  -22.2760  -11.6010 C.2     1  UNL1        0.2520
      8  N         23.5440  -21.7780  -12.8480 N.am    1  UNL1       -0.3490
      9  H         22.6260  -21.9650  -13.2250 H       1  UNL1        0.1630
     10  O         25.0040  -22.3710  -11.1820 O.2     1  UNL1       -0.2680
     11  C         24.5900  -21.4680  -13.8080 C.3     1  UNL1        0.2110
     12  C         24.6650  -22.5100  -14.8650 C.ar    1  UNL1        0.1860
     13  N         25.2870  -23.6710  -14.8590 N.ar    1  UNL1       -0.1250
     14  N         25.0760  -24.2350  -16.0990 N.ar    1  UNL1       -0.1270
     15  C         24.3460  -23.3780  -16.7780 C.ar    1  UNL1        0.1650
     16  C         23.8250  -23.4660  -18.1520 C.3     1  UNL1        0.1020
     17  O         24.0520  -22.2440  -16.0680 O.2     1  UNL1       -0.2760
     18  C         19.4870  -24.1550   -8.2490 C.3     1  UNL1        0.3110
     19  N         18.2800  -23.3180   -8.3410 N.3     1  UNL1        0.0970
     20  C         17.0740  -24.0390   -7.8990 C.3     1  UNL1        0.2770
     21  C         17.0680  -24.4240   -6.4120 C.3     1  UNL1        0.0690
     22  C         17.5810  -23.3220   -5.5180 C.2     1  UNL1       -0.0490
     23  C         17.4360  -23.4240   -4.1290 C.2     1  UNL1        0.0070
     24  C         18.2640  -22.2230   -6.0710 C.2     1  UNL1       -0.0240
     25  C         17.9450  -22.4310   -3.2920 C.2     1  UNL1        0.0010
     26  C         18.6090  -21.3330   -3.8370 C.2     1  UNL1        0.0010
     27  C         18.7640  -21.2270   -5.2190 C.2     1  UNL1        0.0090
     28  C         18.4010  -22.0660   -7.5710 C.3     1  UNL1        0.3110
@<TRIPOS>BOND
     1    16    15    1
     2    15    14   ar
     3    15    17   ar
     4    14    13   ar
     5    17    12   ar
     6    12    13   ar
     7    12    11    1
     8    11     8    1
     9     9     8    1
    10     8     7   am
    11     7    10    2
    12     7     1    1
    13     2     1    2
    14     2     3    1
    15     1     6    1
    16     3     4    2
    17     6     5    2
    18     4     5    1
    19     4    18    1
    20    19    18    1
    21    19    20    1
    22    19    28    1
    23    20    21    1
    24    28    24    1
    25    21    22    1
    26    24    22    2
    27    24    27    1
    28    22    23    1
    29    27    26    2
    30    23    25    2
    31    26    25    1
