@<TRIPOS>MOLECULE
27229_out_ligand_01.pdbqt
 30 34 0 0 0
SMALL
GASTEIGER

@<TRIPOS>ATOM
      1  C         22.4430  -21.5760  -12.9190 C.2     1  UNL1        0.0910
      2  C         22.6310  -22.3250  -11.7380 C.2     1  UNL1        0.0600
      3  C         21.4590  -22.1860  -11.0240 C.2     1  UNL1        0.0600
      4  N         20.6440  -21.4080  -11.7980 N.pl3   1  UNL1       -0.2720
      5  N         21.2270  -21.0040  -12.9480 N.2     1  UNL1       -0.1740
      6  C         19.2670  -21.0230  -11.5710 C.3     1  UNL1        0.1530
      7  C         18.5390  -21.6750  -10.3990 C.3     1  UNL1        0.0520
      8  C         18.7360  -23.1920  -10.3360 C.3     1  UNL1        0.2750
      9  N         19.9890  -23.6830   -9.7400 N.3     1  UNL1        0.0980
     10  C         21.0870  -22.7130   -9.6840 C.3     1  UNL1        0.3310
     11  C         19.7390  -24.2840   -8.4150 C.3     1  UNL1        0.3130
     12  C         19.1680  -23.3140   -7.4000 C.2     1  UNL1       -0.0030
     13  C         19.9550  -22.2310   -6.9520 C.2     1  UNL1        0.0110
     14  C         19.4830  -21.3100   -6.0200 C.2     1  UNL1        0.0020
     15  C         18.1960  -21.4320   -5.4940 C.2     1  UNL1        0.0140
     16  C         17.3770  -22.4960   -5.9140 C.2     1  UNL1       -0.0080
     17  C         16.0530  -22.8990   -5.5870 C.2     1  UNL1        0.0300
     18  C         17.8730  -23.4090   -6.8490 C.2     1  UNL1        0.0500
     19  C         15.7670  -24.0300   -6.3150 C.2     1  UNL1        0.0890
     20  N         16.8680  -24.3280   -7.0710 N.pl3   1  UNL1       -0.3650
     21  H         16.9340  -25.1130   -7.7030 H       1  UNL1        0.1650
     22  C         23.4050  -21.3860  -14.0660 C.3     1  UNL1        0.2230
     23  C         24.8390  -21.3450  -13.6520 C.2     1  UNL1        0.0660
     24  C         25.6630  -20.3050  -13.2620 C.2     1  UNL1        0.0510
     25  C         26.9010  -20.9020  -12.9750 C.2     1  UNL1        0.1410
     26  N         26.8820  -22.2220  -13.1700 N.2     1  UNL1       -0.1850
     27  N         25.6350  -22.4630  -13.6220 N.pl3   1  UNL1       -0.2760
     28  C         25.2750  -23.8100  -14.0030 C.3     1  UNL1        0.1800
     29  O         23.1660  -20.1500  -14.7430 O.3     1  UNL1       -0.3830
     30  H         22.4440  -19.7480  -14.2180 H       1  UNL1        0.2110
@<TRIPOS>BOND
     1    29    30    1
     2    29    22    1
     3    22    23    1
     4    22     1    1
     5    28    27    1
     6    23    27    1
     7    23    24    2
     8    27    26    1
     9    24    25    1
    10    26    25    2
    11     5     1    2
    12     5     4    1
    13     1     2    1
    14     4     6    1
    15     4     3    1
    16     2     3    2
    17     6     7    1
    18     3    10    1
    19     7     8    1
    20     8     9    1
    21     9    10    1
    22     9    11    1
    23    11    12    1
    24    21    20    1
    25    12    13    2
    26    12    18    1
    27    20    18    1
    28    20    19    1
    29    13    14    1
    30    18    16    2
    31    19    17    2
    32    14    15    2
    33    16    17    1
    34    16    15    1
