@<TRIPOS>MOLECULE
2723_out_ligand_01.pdbqt
 33 36 0 0 0
SMALL
GASTEIGER

@<TRIPOS>ATOM
      1  C         19.3440  -22.5160  -10.3600 C.2     1  UNL1        0.0330
      2  C         18.8070  -21.5540  -11.2270 C.2     1  UNL1        0.0170
      3  C         17.4580  -21.2000  -11.1450 C.2     1  UNL1        0.0030
      4  C         16.6420  -21.7910  -10.1820 C.2     1  UNL1        0.0250
      5  C         17.1880  -22.7220   -9.2930 C.2     1  UNL1        0.0800
      6  C         18.5330  -23.1000   -9.3820 C.2     1  UNL1        0.0420
      7  C         20.7850  -22.8590  -10.4900 C.2     1  UNL1        0.2520
      8  O         21.3020  -23.6450   -9.7040 O.2     1  UNL1       -0.2680
      9  N         21.4760  -22.2270  -11.4970 N.am    1  UNL1       -0.3500
     10  H         21.0770  -21.3970  -11.9200 H       1  UNL1        0.1630
     11  C         22.9150  -22.3480  -11.6180 C.3     1  UNL1        0.2030
     12  C         23.3320  -21.7010  -12.8890 C.ar    1  UNL1        0.1480
     13  N         22.5220  -21.3980  -13.8860 N.ar    1  UNL1       -0.1330
     14  N         23.2540  -20.7670  -14.8590 N.ar    1  UNL1       -0.1350
     15  C         24.4990  -20.6860  -14.4440 C.ar    1  UNL1        0.1300
     16  N         24.5980  -21.2820  -13.2120 N.ar    1  UNL1       -0.3190
     17  C         25.6320  -20.0420  -15.1540 C.3     1  UNL1        0.0800
     18  C         25.8170  -21.3890  -12.4420 C.3     1  UNL1        0.1320
     19  C         26.3930  -20.0300  -12.0500 C.3     1  UNL1        0.0200
     20  C         27.1210  -19.3170  -13.1920 C.3     1  UNL1        0.0020
     21  C         26.2320  -18.8820  -14.3600 C.3     1  UNL1        0.0080
     22  S         16.1570  -23.4680   -8.0490 S.O2    1  UNL1        0.2630
     23  O         15.3040  -22.4390   -7.4960 O.2     1  UNL1       -0.2000
     24  O         15.6070  -24.6780   -8.6220 O.2     1  UNL1       -0.2000
     25  N         17.2700  -23.9660   -6.8840 N.pl3   1  UNL1       -0.2810
     26  H         17.9680  -24.6060   -7.2600 H       1  UNL1        0.1790
     27  C         17.6570  -23.0780   -5.8420 C.2     1  UNL1        0.0440
     28  C         17.1820  -23.3140   -4.5490 C.2     1  UNL1        0.0300
     29  C         17.5660  -22.4780   -3.4990 C.2     1  UNL1        0.0040
     30  C         18.4220  -21.4040   -3.7430 C.2     1  UNL1        0.0240
     31  C         18.8860  -21.1700   -5.0370 C.2     1  UNL1        0.0360
     32 CL         19.9420  -19.8430   -5.3330 Cl      1  UNL1       -0.0840
     33  C         18.5060  -22.0000   -6.0900 C.2     1  UNL1        0.0540
@<TRIPOS>BOND
     1    17    15    1
     2    17    21    1
     3    14    15   ar
     4    14    13   ar
     5    15    16   ar
     6    21    20    1
     7    13    12   ar
     8    16    12   ar
     9    16    18    1
    10    20    19    1
    11    12    11    1
    12    18    19    1
    13    10     9    1
    14    11     9    1
    15     9     7   am
    16     2     3    1
    17     2     1    2
    18     3     4    2
    19     7     1    1
    20     7     8    2
    21     1     6    1
    22     4     5    1
    23     6     5    2
    24     5    22    1
    25    24    22    2
    26    22    23    2
    27    22    25    1
    28    26    25    1
    29    25    27    1
    30    33    27    2
    31    33    31    1
    32    27    28    1
    33    32    31    1
    34    31    30    2
    35    28    29    2
    36    30    29    1
