@<TRIPOS>MOLECULE
27286_out_ligand_01.pdbqt
 26 28 0 0 0
SMALL
GASTEIGER

@<TRIPOS>ATOM
      1  C         22.0320  -22.1440  -10.7020 C.2     1  UNL1        0.0810
      2  C         21.6080  -21.6370  -11.9280 C.2     1  UNL1        0.0260
      3  C         20.2520  -21.3970  -12.1340 C.2     1  UNL1        0.0100
      4  C         19.3120  -21.6610  -11.1200 C.2     1  UNL1       -0.0350
      5  C         17.8600  -21.3770  -11.4080 C.3     1  UNL1        0.0500
      6  C         19.7490  -22.1740   -9.8780 C.2     1  UNL1        0.0420
      7  C         21.1120  -22.4280   -9.6890 C.2     1  UNL1        0.0550
      8  N         18.7900  -22.4200   -8.8700 N.am    1  UNL1       -0.3260
      9  C         18.6410  -23.5540   -8.0970 C.2     1  UNL1        0.2350
     10  O         19.3310  -24.5630   -8.1030 O.2     1  UNL1       -0.2720
     11  H         18.1310  -21.6810   -8.6740 H       1  UNL1        0.1690
     12  C         17.4800  -23.4520   -7.1290 C.3     1  UNL1        0.0680
     13  C         16.4130  -24.5450   -7.1930 C.3     1  UNL1        0.0260
     14  C         16.0970  -23.1850   -7.7240 C.3     1  UNL1        0.0260
     15  C         17.7910  -22.7940   -5.7880 C.2     1  UNL1       -0.0400
     16  C         18.4730  -21.5650   -5.7340 C.2     1  UNL1        0.0080
     17  C         18.7830  -20.9540   -4.5180 C.2     1  UNL1        0.0010
     18  C         18.4190  -21.5630   -3.3210 C.2     1  UNL1        0.0000
     19  C         17.7470  -22.7810   -3.3420 C.2     1  UNL1        0.0010
     20  C         17.4400  -23.3890   -4.5630 C.2     1  UNL1        0.0080
     21  S         23.7520  -22.5000  -10.4460 S.O2    1  UNL1        0.2580
     22  O         24.5000  -21.2650  -10.4710 O.2     1  UNL1       -0.2010
     23  O         23.8520  -23.4230   -9.3340 O.2     1  UNL1       -0.2010
     24  N         24.1390  -23.3970  -11.8130 N.3     1  UNL1       -0.3200
     25  C         25.0430  -22.8120  -12.7960 C.3     1  UNL1        0.1590
     26  H         24.2360  -24.3890  -11.6020 H       1  UNL1        0.1710
@<TRIPOS>BOND
     1    25    24    1
     2     3     2    1
     3     3     4    2
     4     2     1    2
     5    24    26    1
     6    24    21    1
     7     5     4    1
     8     4     6    1
     9     1    21    1
    10     1     7    1
    11    22    21    2
    12    21    23    2
    13     6     7    2
    14     6     8    1
    15     8    11    1
    16     8     9   am
    17    10     9    2
    18     9    12    1
    19    14    13    1
    20    14    12    1
    21    13    12    1
    22    12    15    1
    23    15    16    2
    24    15    20    1
    25    16    17    1
    26    20    19    2
    27    17    18    2
    28    19    18    1
