@<TRIPOS>MOLECULE
27290_out_ligand_01.pdbqt
 37 39 0 0 0
SMALL
GASTEIGER

@<TRIPOS>ATOM
      1  N         23.1910  -22.5620  -10.3530 N.3     1  UNL1       -0.1970
      2  C         23.0380  -23.6740   -9.3750 C.3     1  UNL1        0.2100
      3  C         21.7080  -23.7040   -8.6270 C.2     1  UNL1        0.2360
      4  N         21.3820  -22.4900   -8.0310 N.am    1  UNL1       -0.3260
      5  H         22.0480  -21.7380   -8.1420 H       1  UNL1        0.1690
      6  O         21.0300  -24.7290   -8.6090 O.2     1  UNL1       -0.2720
      7  C         20.2720  -22.2090   -7.1970 C.2     1  UNL1        0.0420
      8  C         20.3610  -21.1370   -6.2790 C.2     1  UNL1       -0.0350
      9  C         19.2860  -20.8720   -5.4080 C.2     1  UNL1        0.0100
     10  C         21.5780  -20.2540   -6.1830 C.3     1  UNL1        0.0500
     11  C         18.1330  -21.6520   -5.4370 C.2     1  UNL1        0.0260
     12  C         18.0520  -22.7010   -6.3470 C.2     1  UNL1        0.0810
     13  C         19.1020  -22.9720   -7.2310 C.2     1  UNL1        0.0550
     14  S         16.6120  -23.7400   -6.3910 S.O2    1  UNL1        0.2580
     15  O         16.4890  -24.3740   -5.0980 O.2     1  UNL1       -0.2010
     16  O         16.6460  -24.5050   -7.6180 O.2     1  UNL1       -0.2010
     17  N         15.3620  -22.6260   -6.5170 N.3     1  UNL1       -0.3200
     18  C         14.5360  -22.3410   -5.3510 C.3     1  UNL1        0.1590
     19  H         14.9260  -22.5940   -7.4400 H       1  UNL1        0.1710
     20  C         22.2190  -22.6490  -11.4900 C.3     1  UNL1        0.1120
     21  C         21.4520  -21.3280  -11.6070 C.3     1  UNL1        0.0540
     22  C         19.9740  -21.5050  -11.3580 C.2     1  UNL1       -0.0570
     23  C         19.4800  -22.7300  -10.8900 C.2     1  UNL1        0.0070
     24  C         18.1130  -22.8980  -10.6610 C.2     1  UNL1        0.0010
     25  C         17.2310  -21.8470  -10.8980 C.2     1  UNL1        0.0000
     26  C         17.7140  -20.6210  -11.3550 C.2     1  UNL1        0.0010
     27  C         19.0800  -20.4480  -11.5810 C.2     1  UNL1        0.0070
     28  S         24.7900  -22.1910  -10.8320 S.O2    1  UNL1        0.2440
     29  O         24.9920  -20.7680  -10.6710 O.2     1  UNL1       -0.2060
     30  O         25.6880  -23.1510  -10.2290 O.2     1  UNL1       -0.2060
     31  C         24.7460  -22.5430  -12.5730 C.2     1  UNL1        0.0740
     32  C         24.4300  -21.5110  -13.4620 C.2     1  UNL1        0.0250
     33  C         24.4290  -21.7630  -14.8340 C.2     1  UNL1        0.0080
     34  C         24.7270  -23.0440  -15.3180 C.2     1  UNL1       -0.0620
     35  C         24.7480  -23.3140  -16.7960 C.3     1  UNL1        0.0480
     36  C         25.0370  -24.0720  -14.4120 C.2     1  UNL1        0.0080
     37  C         25.0420  -23.8260  -13.0380 C.2     1  UNL1        0.0250
@<TRIPOS>BOND
     1    35    34    1
     2    34    33    2
     3    34    36    1
     4    33    32    1
     5    36    37    2
     6    32    31    2
     7    37    31    1
     8    31    28    1
     9    21    20    1
    10    21    22    1
    11    27    22    2
    12    27    26    1
    13    20     1    1
    14    22    23    1
    15    26    25    2
    16    25    24    1
    17    23    24    2
    18    28    29    2
    19    28     1    1
    20    28    30    2
    21     1     2    1
    22     2     3    1
    23     3     6    2
    24     3     4   am
    25     5     4    1
    26     4     7    1
    27    16    14    2
    28    19    17    1
    29    13     7    2
    30    13    12    1
    31     7     8    1
    32    17    14    1
    33    17    18    1
    34    14    12    1
    35    14    15    2
    36    12    11    2
    37     8    10    1
    38     8     9    2
    39    11     9    1
