@<TRIPOS>MOLECULE
27300_out_ligand_01.pdbqt
 34 37 0 0 0
SMALL
GASTEIGER

@<TRIPOS>ATOM
      1  N         25.0790  -22.8660  -14.0480 N.1     1  UNL1       -0.1960
      2  C         24.6770  -22.6570  -12.9790 C.1     1  UNL1        0.0740
      3  C         24.1940  -22.3760  -11.6350 C.3     1  UNL1        0.0760
      4  C         25.0520  -21.4080  -10.8150 C.3     1  UNL1        0.0320
      5  C         25.0840  -22.8670  -10.4920 C.3     1  UNL1        0.0320
      6  C         22.6830  -22.3390  -11.3780 C.2     1  UNL1       -0.0350
      7  C         22.1170  -22.9600  -10.2520 C.2     1  UNL1        0.0110
      8  C         20.7380  -22.9220  -10.0130 C.2     1  UNL1        0.0300
      9  C         19.8800  -22.2620  -10.8950 C.2     1  UNL1        0.0340
     10  C         20.4250  -21.6300  -12.0110 C.2     1  UNL1        0.0300
     11  C         21.8060  -21.6660  -12.2440 C.2     1  UNL1        0.0110
     12  N         18.5060  -22.2820  -10.5920 N.am    1  UNL1       -0.3250
     13  C         17.5160  -21.4460  -11.0750 C.2     1  UNL1        0.2460
     14  O         17.6610  -20.5020  -11.8460 O.2     1  UNL1       -0.2710
     15  H         18.1820  -23.0370   -9.9940 H       1  UNL1        0.1690
     16  C         16.1260  -21.7960  -10.5250 C.3     1  UNL1        0.2780
     17  O         15.9750  -23.1280  -10.0510 O.2     1  UNL1       -0.3420
     18  C         15.8440  -23.3250   -8.7030 C.2     1  UNL1        0.0690
     19  C         15.6220  -22.1550   -7.9680 C.2     1  UNL1        0.0380
     20  C         15.4980  -22.1980   -6.5780 C.2     1  UNL1        0.0280
     21  C         15.5950  -23.4250   -5.9220 C.2     1  UNL1        0.0800
     22  C         15.8320  -24.5990   -6.6430 C.2     1  UNL1        0.0280
     23  C         15.9520  -24.5470   -8.0350 C.2     1  UNL1        0.0380
     24  S         15.4710  -23.4930   -4.1530 S.O2    1  UNL1        0.2630
     25  O         14.9240  -24.7770   -3.7680 O.2     1  UNL1       -0.2000
     26  O         14.8470  -22.2600   -3.7180 O.2     1  UNL1       -0.2000
     27  N         17.0860  -23.3950   -3.6620 N.pl3   1  UNL1       -0.2810
     28  H         17.4330  -24.3190   -3.4030 H       1  UNL1        0.1790
     29  C         17.9610  -22.5670   -4.4170 C.2     1  UNL1        0.0420
     30  C         18.4920  -23.0220   -5.6240 C.2     1  UNL1        0.0300
     31  C         19.3310  -22.1900   -6.3680 C.2     1  UNL1        0.0020
     32  C         19.6310  -20.9080   -5.9070 C.2     1  UNL1        0.0000
     33  C         19.0890  -20.4530   -4.7030 C.2     1  UNL1        0.0020
     34  C         18.2500  -21.2820   -3.9580 C.2     1  UNL1        0.0300
@<TRIPOS>BOND
     1     1     2    3
     2     2     3    1
     3    11    10    1
     4    11     6    2
     5    10     9    2
     6    14    13    2
     7     3     6    1
     8     3     4    1
     9     3     5    1
    10     6     7    1
    11    13    12   am
    12    13    16    1
    13     9    12    1
    14     9     8    1
    15     4     5    1
    16    12    15    1
    17    16    17    1
    18     7     8    2
    19    17    18    1
    20    18    23    2
    21    18    19    1
    22    23    22    1
    23    19    20    2
    24    22    21    2
    25    20    21    1
    26    31    32    2
    27    31    30    1
    28    21    24    1
    29    32    33    1
    30    30    29    2
    31    33    34    2
    32    29    34    1
    33    29    27    1
    34    24    25    2
    35    24    26    2
    36    24    27    1
    37    27    28    1
