@<TRIPOS>MOLECULE
27317_out_ligand_01.pdbqt
 32 35 0 0 0
SMALL
GASTEIGER

@<TRIPOS>ATOM
      1  C         21.8260  -22.9030   -9.9880 C.2     1  UNL1        0.0800
      2  C         21.0330  -22.0690  -10.7800 C.2     1  UNL1        0.0280
      3  C         19.6410  -22.2030  -10.7510 C.2     1  UNL1        0.0380
      4  C         19.0440  -23.1530   -9.9200 C.2     1  UNL1        0.0690
      5  C         19.8510  -23.9820   -9.1320 C.2     1  UNL1        0.0380
      6  C         21.2410  -23.8570   -9.1550 C.2     1  UNL1        0.0280
      7  O         17.7040  -23.3850   -9.7960 O.2     1  UNL1       -0.3420
      8  C         16.9930  -22.6970   -8.7790 C.3     1  UNL1        0.2780
      9  C         16.3320  -23.5530   -7.6990 C.2     1  UNL1        0.2490
     10  O         15.6010  -24.4870   -8.0600 O.2     1  UNL1       -0.2710
     11  N         16.5480  -23.3050   -6.3570 N.am    1  UNL1       -0.3110
     12  C         17.4190  -22.4260   -5.6800 C.2     1  UNL1        0.0440
     13  C         15.7540  -24.0460   -5.3460 C.3     1  UNL1        0.0930
     14  C         18.2890  -21.4560   -6.1480 C.2     1  UNL1        0.0300
     15  C         17.3380  -22.6590   -4.3010 C.2     1  UNL1       -0.0290
     16  C         19.0480  -20.7150   -5.2310 C.2     1  UNL1        0.0020
     17  C         18.9470  -20.9510   -3.8560 C.2     1  UNL1        0.0010
     18  C         18.0900  -21.9380   -3.3800 C.2     1  UNL1        0.0090
     19  C         16.4290  -23.8050   -3.9880 C.3     1  UNL1        0.0660
     20  C         14.2980  -23.5640   -5.3250 C.3     1  UNL1        0.0330
     21  S         23.5910  -22.7250  -10.0060 S.O2    1  UNL1        0.2630
     22  O         24.1330  -23.6940   -9.0750 O.2     1  UNL1       -0.2000
     23  O         23.9260  -21.3230   -9.8910 O.2     1  UNL1       -0.2000
     24  N         24.0060  -23.2830  -11.5490 N.pl3   1  UNL1       -0.2810
     25  H         24.5050  -24.1690  -11.4850 H       1  UNL1        0.1790
     26  C         24.4870  -22.3330  -12.4900 C.2     1  UNL1        0.0420
     27  C         23.5980  -21.6810  -13.3430 C.2     1  UNL1        0.0300
     28  C         24.0820  -20.7760  -14.2900 C.2     1  UNL1        0.0090
     29  C         25.4570  -20.5300  -14.3990 C.2     1  UNL1       -0.0620
     30  C         25.9710  -19.5360  -15.3980 C.3     1  UNL1        0.0480
     31  C         26.3390  -21.1850  -13.5310 C.2     1  UNL1        0.0090
     32  C         25.8560  -22.0910  -12.5840 C.2     1  UNL1        0.0300
@<TRIPOS>BOND
     1    30    29    1
     2    29    28    2
     3    29    31    1
     4    28    27    1
     5    31    32    2
     6    27    26    2
     7    32    26    1
     8    26    24    1
     9    24    25    1
    10    24    21    1
    11     2     3    1
    12     2     1    2
    13     3     4    2
    14    21     1    1
    15    21    23    2
    16    21    22    2
    17     1     6    1
    18     4     7    1
    19     4     5    1
    20     7     8    1
    21     6     5    2
    22     8     9    1
    23    10     9    2
    24     9    11   am
    25    11    12    1
    26    11    13    1
    27    14    12    2
    28    14    16    1
    29    12    15    1
    30    13    20    1
    31    13    19    1
    32    16    17    2
    33    15    19    1
    34    15    18    2
    35    17    18    1
