@<TRIPOS>MOLECULE
2732_out_ligand_01.pdbqt
 32 35 0 0 0
SMALL
GASTEIGER

@<TRIPOS>ATOM
      1  C         17.6760  -22.6770   -9.7310 C.2     1  UNL1        0.0790
      2  C         18.7940  -23.5090   -9.5770 C.2     1  UNL1        0.0260
      3  C         19.9870  -23.1790  -10.2200 C.2     1  UNL1        0.0180
      4  C         20.0510  -22.0150  -10.9950 C.2     1  UNL1        0.0320
      5  C         18.9270  -21.2000  -11.1730 C.2     1  UNL1        0.0180
      6  C         17.7310  -21.5330  -10.5380 C.2     1  UNL1        0.0260
      7  C         21.3030  -21.6660  -11.6880 C.2     1  UNL1        0.2540
      8  O         21.2150  -20.9640  -12.6930 O.2     1  UNL1       -0.2670
      9  N         22.5030  -22.1270  -11.1400 N.am    1  UNL1       -0.3390
     10  C         23.7450  -21.5860  -11.6900 C.3     1  UNL1        0.1650
     11  C         24.2110  -22.3490  -12.9130 C.2     1  UNL1       -0.0400
     12  C         24.0820  -21.7870  -14.1930 C.2     1  UNL1        0.0120
     13  C         24.5330  -22.4780  -15.3190 C.2     1  UNL1        0.0430
     14  C         25.1140  -23.7290  -15.1650 C.2     1  UNL1        0.1160
     15  F         25.5540  -24.3910  -16.2430 F       1  UNL1       -0.2060
     16  C         25.2490  -24.3060  -13.9090 C.2     1  UNL1        0.0430
     17  C         24.8020  -23.6150  -12.7800 C.2     1  UNL1        0.0120
     18  C         22.5770  -22.8530   -9.8920 C.3     1  UNL1        0.0880
     19  C         23.8980  -23.1560   -9.2290 C.3     1  UNL1        0.0270
     20  C         22.9550  -22.1860   -8.5920 C.3     1  UNL1        0.0270
     21  S         16.1460  -23.0890   -8.9240 S.O2    1  UNL1        0.2630
     22  O         16.2350  -24.4410   -8.4180 O.2     1  UNL1       -0.2000
     23  O         15.0780  -22.6980   -9.8210 O.2     1  UNL1       -0.2000
     24  N         16.1020  -21.9980   -7.6360 N.pl3   1  UNL1       -0.2800
     25  H         15.4300  -21.2490   -7.8010 H       1  UNL1        0.1790
     26  C         16.2140  -22.5070   -6.3110 C.2     1  UNL1        0.0480
     27  C         15.0510  -22.9660   -5.6840 C.2     1  UNL1        0.0300
     28  C         15.1010  -23.4500   -4.3780 C.2     1  UNL1        0.0020
     29  C         16.3110  -23.4630   -3.6890 C.2     1  UNL1        0.0010
     30  C         17.4720  -22.9990   -4.3090 C.2     1  UNL1        0.0090
     31  C         17.4440  -22.5270   -5.6340 C.2     1  UNL1       -0.0350
     32  C         18.7150  -22.0020   -6.2420 C.3     1  UNL1        0.0500
@<TRIPOS>BOND
     1    15    14    1
     2    13    14    2
     3    13    12    1
     4    14    16    1
     5    12    11    2
     6    16    17    2
     7    11    17    1
     8    11    10    1
     9     8     7    2
    10    10     9    1
    11     7     9   am
    12     7     4    1
    13     5     4    2
    14     5     6    1
    15     9    18    1
    16     4     3    1
    17     6     1    2
    18     3     2    2
    19    18    19    1
    20    18    20    1
    21    23    21    2
    22     1     2    1
    23     1    21    1
    24    19    20    1
    25    21    22    2
    26    21    24    1
    27    25    24    1
    28    24    26    1
    29    26    27    2
    30    26    31    1
    31    32    31    1
    32    27    28    1
    33    31    30    2
    34    28    29    2
    35    30    29    1
