@<TRIPOS>MOLECULE
27330_out_ligand_01.pdbqt
 32 35 0 0 0
SMALL
GASTEIGER

@<TRIPOS>ATOM
      1  C         21.5850  -22.8060  -10.0320 C.2     1  UNL1        0.0800
      2  C         20.9250  -23.8540   -9.3930 C.2     1  UNL1        0.0280
      3  C         19.5310  -23.9100   -9.4370 C.2     1  UNL1        0.0380
      4  C         18.7960  -22.9270  -10.1080 C.2     1  UNL1        0.0690
      5  C         19.4660  -21.8650  -10.7210 C.2     1  UNL1        0.0380
      6  C         20.8630  -21.8020  -10.6830 C.2     1  UNL1        0.0280
      7  O         17.4410  -23.1180  -10.0790 O.2     1  UNL1       -0.3420
      8  C         16.7110  -22.5550   -8.9920 C.3     1  UNL1        0.2780
      9  C         16.2320  -23.5850   -7.9530 C.2     1  UNL1        0.2480
     10  O         15.6210  -24.5960   -8.3180 O.2     1  UNL1       -0.2710
     11  N         16.4020  -23.2980   -6.6010 N.am    1  UNL1       -0.3110
     12  C         15.5360  -23.9940   -5.6480 C.3     1  UNL1        0.1590
     13  C         17.3540  -22.4330   -5.9820 C.2     1  UNL1        0.0700
     14  C         14.9930  -22.9930   -4.6430 C.3     1  UNL1        0.1960
     15  O         16.0410  -22.3700   -3.8960 O.2     1  UNL1       -0.3470
     16  C         17.1300  -22.0120   -4.6550 C.2     1  UNL1        0.0950
     17  C         18.0510  -21.1930   -3.9940 C.2     1  UNL1        0.0390
     18  C         19.2150  -20.7880   -4.6390 C.2     1  UNL1        0.0030
     19  C         19.4690  -21.2240   -5.9350 C.2     1  UNL1        0.0020
     20  C         18.5530  -22.0510   -6.5960 C.2     1  UNL1        0.0330
     21  S         23.3570  -22.7230   -9.9950 S.O2    1  UNL1        0.2630
     22  O         23.8550  -23.6580   -9.0100 O.2     1  UNL1       -0.2000
     23  O         23.7210  -21.3220   -9.9370 O.2     1  UNL1       -0.2000
     24  N         23.7850  -23.2480  -11.5450 N.pl3   1  UNL1       -0.2810
     25  H         23.0800  -23.8860  -11.9120 H       1  UNL1        0.1790
     26  C         24.3190  -22.2870  -12.4470 C.2     1  UNL1        0.0420
     27  C         23.4770  -21.6160  -13.3300 C.2     1  UNL1        0.0300
     28  C         24.0000  -20.6450  -14.1870 C.2     1  UNL1        0.0090
     29  C         25.3680  -20.3440  -14.1670 C.2     1  UNL1       -0.0620
     30  C         25.9230  -19.2730  -15.0600 C.3     1  UNL1        0.0480
     31  C         26.1990  -21.0100  -13.2590 C.2     1  UNL1        0.0090
     32  C         25.6770  -21.9800  -12.4030 C.2     1  UNL1        0.0300
@<TRIPOS>BOND
     1    30    29    1
     2    28    29    2
     3    28    27    1
     4    29    31    1
     5    27    26    2
     6    31    32    2
     7    26    32    1
     8    26    24    1
     9    25    24    1
    10    24    21    1
    11     5     6    1
    12     5     4    2
    13     6     1    2
    14     4     7    1
    15     4     3    1
    16     7     8    1
    17     1    21    1
    18     1     2    1
    19    21    23    2
    20    21    22    2
    21     3     2    2
    22     8     9    1
    23    10     9    2
    24     9    11   am
    25    11    13    1
    26    11    12    1
    27    20    13    2
    28    20    19    1
    29    13    16    1
    30    19    18    2
    31    12    14    1
    32    16    17    2
    33    16    15    1
    34    14    15    1
    35    18    17    1
