@<TRIPOS>MOLECULE
27347_out_ligand_01.pdbqt
 33 36 0 0 0
SMALL
GASTEIGER

@<TRIPOS>ATOM
      1  C         21.6230  -22.7930   -9.9930 C.2     1  UNL1        0.0800
      2  C         20.8410  -21.8630  -10.6840 C.2     1  UNL1        0.0280
      3  C         19.4470  -21.9900  -10.6840 C.2     1  UNL1        0.0380
      4  C         18.8380  -23.0490  -10.0040 C.2     1  UNL1        0.0690
      5  C         19.6350  -23.9800   -9.3280 C.2     1  UNL1        0.0380
      6  C         21.0260  -23.8640   -9.3260 C.2     1  UNL1        0.0280
      7  O         17.4940  -23.2890   -9.9180 O.2     1  UNL1       -0.3420
      8  C         16.7730  -22.6860   -8.8480 C.3     1  UNL1        0.2780
      9  C         16.2740  -23.6770   -7.7820 C.2     1  UNL1        0.2480
     10  O         15.5740  -24.6390   -8.1190 O.2     1  UNL1       -0.2710
     11  N         16.5300  -23.4220   -6.4320 N.am    1  UNL1       -0.3110
     12  C         15.5540  -23.9980   -5.5010 C.3     1  UNL1        0.1590
     13  C         17.4810  -22.5180   -5.8640 C.2     1  UNL1        0.0700
     14  C         15.9570  -23.8490   -4.0460 C.3     1  UNL1        0.1960
     15  O         16.2500  -22.4820   -3.7500 O.2     1  UNL1       -0.3470
     16  C         17.2810  -22.0470   -4.5500 C.2     1  UNL1        0.0950
     17  C         18.1290  -21.0960   -3.9780 C.2     1  UNL1        0.0390
     18  C         19.2440  -20.6530   -4.6800 C.2     1  UNL1        0.0030
     19  C         19.5130  -21.1750   -5.9420 C.2     1  UNL1        0.0020
     20  C         18.6450  -22.1080   -6.5240 C.2     1  UNL1        0.0330
     21  S         23.3950  -22.6330  -10.0080 S.O2    1  UNL1        0.2630
     22  O         23.7230  -21.2280  -10.1030 O.2     1  UNL1       -0.2000
     23  O         23.9110  -23.4510   -8.9290 O.2     1  UNL1       -0.2000
     24  N         23.8380  -23.4200  -11.4370 N.pl3   1  UNL1       -0.2810
     25  H         23.2890  -24.2620  -11.5910 H       1  UNL1        0.1790
     26  C         24.1950  -22.6430  -12.5730 C.2     1  UNL1        0.0430
     27  C         23.3230  -21.6890  -13.0880 C.2     1  UNL1        0.0300
     28  C         23.6740  -20.9680  -14.2290 C.2     1  UNL1        0.0090
     29  C         24.9020  -21.1930  -14.8710 C.2     1  UNL1       -0.0560
     30  C         25.2420  -20.4000  -16.1030 C.3     1  UNL1        0.0490
     31  C         25.7870  -22.1580  -14.3480 C.2     1  UNL1       -0.0540
     32  C         25.4220  -22.8750  -13.1970 C.2     1  UNL1        0.0370
     33  C         27.1120  -22.4420  -15.0040 C.3     1  UNL1        0.0490
@<TRIPOS>BOND
     1    30    29    1
     2    33    31    1
     3    29    31    2
     4    29    28    1
     5    31    32    1
     6    28    27    2
     7    32    26    2
     8    27    26    1
     9    26    24    1
    10    25    24    1
    11    24    21    1
    12     2     3    1
    13     2     1    2
    14     3     4    2
    15    22    21    2
    16    21     1    1
    17    21    23    2
    18     4     7    1
    19     4     5    1
    20     1     6    1
    21     7     8    1
    22     5     6    2
    23     8     9    1
    24    10     9    2
    25     9    11   am
    26    20    19    1
    27    20    13    2
    28    11    13    1
    29    11    12    1
    30    19    18    2
    31    13    16    1
    32    12    14    1
    33    18    17    1
    34    16    17    2
    35    16    15    1
    36    14    15    1
