@<TRIPOS>MOLECULE
27354_out_ligand_01.pdbqt
 32 35 0 0 0
SMALL
GASTEIGER

@<TRIPOS>ATOM
      1  C         21.5550  -22.8630   -9.9210 C.2     1  UNL1        0.0800
      2  C         20.7580  -21.9660  -10.6340 C.2     1  UNL1        0.0280
      3  C         19.3700  -22.1230  -10.6140 C.2     1  UNL1        0.0380
      4  C         18.7770  -23.1530   -9.8760 C.2     1  UNL1        0.0690
      5  C         19.5860  -24.0410   -9.1610 C.2     1  UNL1        0.0380
      6  C         20.9760  -23.8930   -9.1770 C.2     1  UNL1        0.0280
      7  O         17.4110  -23.1860   -9.9490 O.2     1  UNL1       -0.3420
      8  C         16.6740  -22.6150   -8.8710 C.3     1  UNL1        0.2780
      9  C         16.2540  -23.6310   -7.7950 C.2     1  UNL1        0.2480
     10  O         15.6780  -24.6750   -8.1210 O.2     1  UNL1       -0.2710
     11  N         16.4330  -23.2960   -6.4560 N.am    1  UNL1       -0.3110
     12  C         15.5890  -23.9720   -5.4690 C.3     1  UNL1        0.1590
     13  C         17.3860  -22.4030   -5.8820 C.2     1  UNL1        0.0700
     14  C         15.0530  -22.9450   -4.4860 C.3     1  UNL1        0.1960
     15  O         16.1060  -22.2850   -3.7770 O.2     1  UNL1       -0.3470
     16  C         17.1800  -21.9410   -4.5650 C.2     1  UNL1        0.0950
     17  C         18.1050  -21.0950   -3.9480 C.2     1  UNL1        0.0390
     18  C         19.2550  -20.7020   -4.6260 C.2     1  UNL1        0.0030
     19  C         19.4920  -21.1780   -5.9110 C.2     1  UNL1        0.0020
     20  C         18.5710  -22.0330   -6.5290 C.2     1  UNL1        0.0330
     21  S         23.3200  -22.6720   -9.9200 S.O2    1  UNL1        0.2630
     22  O         23.6410  -21.2670   -9.8040 O.2     1  UNL1       -0.2000
     23  O         23.8510  -23.6370   -8.9790 O.2     1  UNL1       -0.2000
     24  N         23.7570  -23.2390  -11.4530 N.pl3   1  UNL1       -0.2800
     25  H         24.3010  -24.0960  -11.3780 H       1  UNL1        0.1790
     26  C         24.1620  -22.2870  -12.4330 C.2     1  UNL1        0.0480
     27  C         23.1870  -21.7380  -13.2700 C.2     1  UNL1        0.0300
     28  C         23.5340  -20.7710  -14.2140 C.2     1  UNL1        0.0020
     29  C         24.8560  -20.3480  -14.3160 C.2     1  UNL1        0.0010
     30  C         25.8320  -20.8920  -13.4790 C.2     1  UNL1        0.0090
     31  C         25.5000  -21.8700  -12.5290 C.2     1  UNL1       -0.0350
     32  C         26.5730  -22.4140  -11.6280 C.3     1  UNL1        0.0500
@<TRIPOS>BOND
     1    29    28    2
     2    29    30    1
     3    28    27    1
     4    30    31    2
     5    27    26    2
     6    31    26    1
     7    31    32    1
     8    26    24    1
     9    24    25    1
    10    24    21    1
    11     2     3    1
    12     2     1    2
    13     3     4    2
    14     7     4    1
    15     7     8    1
    16     1    21    1
    17     1     6    1
    18    21    22    2
    19    21    23    2
    20     4     5    1
    21     6     5    2
    22     8     9    1
    23    10     9    2
    24     9    11   am
    25    20    19    1
    26    20    13    2
    27    11    13    1
    28    11    12    1
    29    19    18    2
    30    13    16    1
    31    12    14    1
    32    18    17    1
    33    16    17    2
    34    16    15    1
    35    14    15    1
