@<TRIPOS>MOLECULE
27353_out_ligand_01.pdbqt
 33 36 0 0 0
SMALL
GASTEIGER

@<TRIPOS>ATOM
      1  C         18.2380  -23.3180   -8.8730 C.2     1  UNL1        0.0800
      2  C         18.7820  -22.6580   -9.9790 C.2     1  UNL1        0.0280
      3  C         20.1240  -22.8640  -10.3200 C.2     1  UNL1        0.0380
      4  C         20.9180  -23.7210   -9.5540 C.2     1  UNL1        0.0690
      5  C         20.3660  -24.3600   -8.4380 C.2     1  UNL1        0.0380
      6  C         19.0290  -24.1610   -8.0910 C.2     1  UNL1        0.0280
      7  O         22.2430  -23.9940   -9.7620 O.2     1  UNL1       -0.3420
      8  C         23.2030  -23.2410   -9.0260 C.3     1  UNL1        0.2780
      9  C         23.6670  -21.9470   -9.7070 C.2     1  UNL1        0.2460
     10  O         23.1300  -20.8760   -9.4420 O.2     1  UNL1       -0.2710
     11  N         24.6850  -22.1600  -10.6180 N.am    1  UNL1       -0.3250
     12  H         25.0290  -23.1160  -10.6610 H       1  UNL1        0.1690
     13  C         25.3380  -21.2130  -11.4300 C.2     1  UNL1        0.0350
     14  C         26.2610  -20.2860  -10.9510 C.2     1  UNL1        0.0310
     15  C         26.8790  -19.3650  -11.8070 C.2     1  UNL1        0.0230
     16  C         26.5480  -19.3930  -13.1690 C.2     1  UNL1        0.0350
     17  S         27.1210  -18.4110  -14.4610 S.3     1  UNL1        0.0110
     18  C         25.6280  -20.3050  -13.6870 C.2     1  UNL1        0.0030
     19  N         26.2200  -19.1280  -15.6520 N.2     1  UNL1       -0.2220
     20  C         25.4960  -20.0950  -15.0990 C.2     1  UNL1        0.1380
     21  C         25.0200  -21.2230  -12.7980 C.2     1  UNL1        0.0430
     22  S         16.5410  -23.0350   -8.4350 S.O2    1  UNL1        0.2630
     23  O         15.8810  -22.3760   -9.5400 O.2     1  UNL1       -0.2000
     24  O         16.0300  -24.2780   -7.8970 O.2     1  UNL1       -0.2000
     25  N         16.6660  -21.9780   -7.1220 N.pl3   1  UNL1       -0.2800
     26  H         17.4060  -21.2950   -7.2750 H       1  UNL1        0.1790
     27  C         16.5280  -22.5140   -5.8090 C.2     1  UNL1        0.0480
     28  C         17.6580  -23.0580   -5.1910 C.2     1  UNL1        0.0300
     29  C         17.5780  -23.5540   -3.8900 C.2     1  UNL1        0.0020
     30  C         16.3680  -23.5010   -3.2040 C.2     1  UNL1        0.0010
     31  C         15.2390  -22.9560   -3.8170 C.2     1  UNL1        0.0090
     32  C         15.3020  -22.4600   -5.1280 C.2     1  UNL1       -0.0350
     33  C         14.0710  -21.8580   -5.7470 C.3     1  UNL1        0.0500
@<TRIPOS>BOND
     1    19    20    2
     2    19    17    1
     3    20    18    1
     4    17    16    1
     5    18    16    2
     6    18    21    1
     7    16    15    1
     8    21    13    2
     9    15    14    2
    10    13    14    1
    11    13    11    1
    12    12    11    1
    13    11     9   am
    14     3     2    1
    15     3     4    2
    16     2     1    2
    17     7     4    1
    18     7     8    1
    19     9    10    2
    20     9     8    1
    21     4     5    1
    22    23    22    2
    23     1    22    1
    24     1     6    1
    25     5     6    2
    26    22    24    2
    27    22    25    1
    28    26    25    1
    29    25    27    1
    30    27    28    2
    31    27    32    1
    32    33    32    1
    33    28    29    1
    34    32    31    2
    35    29    30    2
    36    31    30    1
