@<TRIPOS>MOLECULE
27351_out_ligand_01.pdbqt
 36 39 0 0 0
SMALL
GASTEIGER

@<TRIPOS>ATOM
      1  C         24.9630  -22.9110  -11.6860 C.3     1  UNL1        0.0760
      2  C         25.3770  -23.6220  -12.8880 C.1     1  UNL1        0.0740
      3  N         25.7230  -24.1920  -13.8380 N.1     1  UNL1       -0.1960
      4  C         25.8610  -23.1040  -10.4610 C.3     1  UNL1        0.0320
      5  C         25.9140  -21.8110  -11.2080 C.3     1  UNL1        0.0320
      6  C         23.4690  -22.7030  -11.4190 C.2     1  UNL1       -0.0350
      7  C         22.6620  -21.9550  -12.2920 C.2     1  UNL1        0.0110
      8  C         21.2930  -21.7720  -12.0570 C.2     1  UNL1        0.0300
      9  C         20.6860  -22.3420  -10.9400 C.2     1  UNL1        0.0340
     10  C         21.4690  -23.1000  -10.0660 C.2     1  UNL1        0.0300
     11  C         22.8380  -23.2790  -10.3040 C.2     1  UNL1        0.0110
     12  N         19.3190  -22.2080  -10.6310 N.am    1  UNL1       -0.3250
     13  C         18.3870  -21.3830  -11.2340 C.2     1  UNL1        0.2460
     14  O         18.5880  -20.5920  -12.1500 O.2     1  UNL1       -0.2710
     15  H         18.9510  -22.8230   -9.9110 H       1  UNL1        0.1690
     16  C         16.9930  -21.5120  -10.6090 C.3     1  UNL1        0.2780
     17  O         16.5860  -22.8460  -10.3210 O.2     1  UNL1       -0.3420
     18  C         16.2330  -23.1400   -9.0320 C.2     1  UNL1        0.0690
     19  C         16.2110  -24.4120   -8.4530 C.2     1  UNL1        0.0380
     20  C         15.8480  -24.5670   -7.1120 C.2     1  UNL1        0.0270
     21  C         15.5040  -23.4450   -6.3530 C.2     1  UNL1        0.0750
     22  C         15.5370  -22.1680   -6.9150 C.2     1  UNL1        0.0270
     23  C         15.9050  -22.0240   -8.2540 C.2     1  UNL1        0.0380
     24  S         15.0370  -23.6610   -4.6510 S.O2    1  UNL1        0.2450
     25  O         14.3440  -24.9290   -4.5440 O.2     1  UNL1       -0.2060
     26  O         14.4470  -22.4160   -4.2080 O.2     1  UNL1       -0.2060
     27  N         16.5760  -23.8670   -3.9420 N.pl3   1  UNL1       -0.1810
     28  H         16.4540  -23.9290   -2.9290 H       1  UNL1        0.1460
     29  C         17.5330  -22.8630   -4.3040 C.2     1  UNL1        0.0230
     30  C         17.7210  -21.7620   -3.4720 C.2     1  UNL1        0.0250
     31  C         18.6340  -20.7690   -3.8320 C.2     1  UNL1        0.0090
     32  C         19.3630  -20.8610   -5.0280 C.2     1  UNL1       -0.0560
     33  C         20.3250  -19.7640   -5.3890 C.3     1  UNL1        0.0490
     34  C         19.1680  -21.9730   -5.8730 C.2     1  UNL1       -0.0540
     35  C         18.2460  -22.9660   -5.4980 C.2     1  UNL1        0.0310
     36  C         19.8990  -22.1060   -7.1790 C.3     1  UNL1        0.0490
@<TRIPOS>BOND
     1     3     2    3
     2     2     1    1
     3     7     8    1
     4     7     6    2
     5    14    13    2
     6     8     9    2
     7     1     6    1
     8     1     5    1
     9     1     4    1
    10     6    11    1
    11    13    12   am
    12    13    16    1
    13     5     4    1
    14     9    12    1
    15     9    10    1
    16    12    15    1
    17    16    17    1
    18    17    18    1
    19    11    10    2
    20    18    19    2
    21    18    23    1
    22    19    20    1
    23    23    22    2
    24    36    34    1
    25    20    21    2
    26    22    21    1
    27    21    24    1
    28    34    35    1
    29    34    32    2
    30    35    29    2
    31    33    32    1
    32    32    31    1
    33    24    25    2
    34    24    26    2
    35    24    27    1
    36    29    27    1
    37    29    30    1
    38    27    28    1
    39    31    30    2
