@<TRIPOS>MOLECULE
27359_out_ligand_01.pdbqt
 32 35 0 0 0
SMALL
GASTEIGER

@<TRIPOS>ATOM
      1  C         21.6810  -22.8970   -9.8990 C.2     1  UNL1        0.0800
      2  C         20.9070  -21.9800  -10.6160 C.2     1  UNL1        0.0280
      3  C         19.5140  -22.0910  -10.6080 C.2     1  UNL1        0.0380
      4  C         18.8950  -23.1030   -9.8700 C.2     1  UNL1        0.0690
      5  C         19.6800  -24.0140   -9.1550 C.2     1  UNL1        0.0380
      6  C         21.0720  -23.9100   -9.1560 C.2     1  UNL1        0.0280
      7  O         17.5490  -23.3210   -9.7810 O.2     1  UNL1       -0.3420
      8  C         16.8370  -22.6770   -8.7360 C.3     1  UNL1        0.2780
      9  C         16.2530  -23.5710   -7.6410 C.2     1  UNL1        0.2490
     10  O         15.5440  -24.5290   -7.9870 O.2     1  UNL1       -0.2710
     11  N         16.5070  -23.3260   -6.3060 N.am    1  UNL1       -0.3110
     12  C         17.3880  -22.4370   -5.6550 C.2     1  UNL1        0.0440
     13  C         15.7570  -24.0820   -5.2740 C.3     1  UNL1        0.0930
     14  C         18.2450  -21.4680   -6.1510 C.2     1  UNL1        0.0300
     15  C         17.3430  -22.6620   -4.2730 C.2     1  UNL1       -0.0290
     16  C         19.0230  -20.7180   -5.2590 C.2     1  UNL1        0.0020
     17  C         18.9560  -20.9450   -3.8790 C.2     1  UNL1        0.0010
     18  C         18.1140  -21.9330   -3.3770 C.2     1  UNL1        0.0090
     19  C         16.4480  -23.8080   -3.9280 C.3     1  UNL1        0.0660
     20  C         14.2860  -23.6500   -5.2290 C.3     1  UNL1        0.0330
     21  S         23.4490  -22.7400   -9.8990 S.O2    1  UNL1        0.2630
     22  O         23.9980  -23.6510   -8.9200 O.2     1  UNL1       -0.2000
     23  O         23.7520  -21.3240   -9.8500 O.2     1  UNL1       -0.2000
     24  N         23.8670  -23.2450  -11.4570 N.pl3   1  UNL1       -0.2800
     25  H         23.2730  -24.0130  -11.7620 H       1  UNL1        0.1790
     26  C         24.2080  -22.2540  -12.4220 C.2     1  UNL1        0.0480
     27  C         23.1900  -21.7290  -13.2240 C.2     1  UNL1        0.0300
     28  C         23.4870  -20.7870  -14.2090 C.2     1  UNL1        0.0020
     29  C         24.8030  -20.3750  -14.3980 C.2     1  UNL1        0.0010
     30  C         25.8220  -20.9000  -13.6010 C.2     1  UNL1        0.0090
     31  C         25.5380  -21.8430  -12.6010 C.2     1  UNL1       -0.0350
     32  C         26.6650  -22.4050  -11.7800 C.3     1  UNL1        0.0500
@<TRIPOS>BOND
     1    29    28    2
     2    29    30    1
     3    28    27    1
     4    30    31    2
     5    27    26    2
     6    31    26    1
     7    31    32    1
     8    26    24    1
     9    25    24    1
    10    24    21    1
    11     2     3    1
    12     2     1    2
    13     3     4    2
    14    21     1    1
    15    21    23    2
    16    21    22    2
    17     1     6    1
    18     4     7    1
    19     4     5    1
    20     7     8    1
    21     6     5    2
    22     8     9    1
    23    10     9    2
    24     9    11   am
    25    11    12    1
    26    11    13    1
    27    14    12    2
    28    14    16    1
    29    12    15    1
    30    13    20    1
    31    13    19    1
    32    16    17    2
    33    15    19    1
    34    15    18    2
    35    17    18    1
