@<TRIPOS>MOLECULE
2735_out_ligand_01.pdbqt
 36 39 0 0 0
SMALL
GASTEIGER

@<TRIPOS>ATOM
      1  C         19.2630  -22.9370   -9.0670 C.2     1  UNL1        0.0790
      2  C         19.5180  -22.7060  -10.4230 C.2     1  UNL1        0.0260
      3  C         20.8240  -22.4360  -10.8440 C.2     1  UNL1        0.0180
      4  C         21.8700  -22.4020   -9.9120 C.2     1  UNL1        0.0320
      5  C         21.6080  -22.6760   -8.5610 C.2     1  UNL1        0.0180
      6  C         20.3060  -22.9470   -8.1370 C.2     1  UNL1        0.0260
      7  C         23.2750  -22.1110  -10.3120 C.2     1  UNL1        0.2520
      8  O         23.8540  -21.1350   -9.8500 O.2     1  UNL1       -0.2680
      9  N         23.8360  -22.9710  -11.2300 N.am    1  UNL1       -0.3480
     10  H         23.2530  -23.6510  -11.6970 H       1  UNL1        0.1630
     11  C         25.1700  -22.7570  -11.7810 C.3     1  UNL1        0.1210
     12  C         25.0040  -22.3420  -13.2380 C.2     1  UNL1       -0.0320
     13  C         24.8180  -20.9850  -13.5530 C.2     1  UNL1        0.0120
     14  C         24.6450  -20.5740  -14.8780 C.2     1  UNL1        0.0400
     15  C         24.6480  -21.5160  -15.9020 C.2     1  UNL1        0.1020
     16  C         24.7870  -22.8740  -15.6010 C.2     1  UNL1        0.1020
     17  O         24.4970  -21.0400  -17.1800 O.2     1  UNL1       -0.3460
     18  C         24.9740  -23.2840  -14.2810 C.2     1  UNL1        0.0490
     19  O         24.7560  -23.8620  -16.5520 O.2     1  UNL1       -0.3460
     20  C         24.2440  -23.3730  -17.7970 C.3     1  UNL1        0.2020
     21  C         24.8640  -22.0300  -18.1470 C.3     1  UNL1        0.2020
     22  C         26.0740  -24.0040  -11.5650 C.3     1  UNL1        0.0050
     23  C         27.1210  -24.1440  -12.6790 C.3     1  UNL1        0.0120
     24  C         26.8040  -23.9410  -10.2150 C.3     1  UNL1        0.0120
     25  S         17.6000  -23.2910   -8.5340 S.O2    1  UNL1        0.2630
     26  O         16.7420  -23.1760   -9.6950 O.2     1  UNL1       -0.2000
     27  O         17.6320  -24.5050   -7.7480 O.2     1  UNL1       -0.2000
     28  N         17.2200  -21.9770   -7.5490 N.pl3   1  UNL1       -0.2800
     29  H         17.7680  -21.1500   -7.7690 H       1  UNL1        0.1790
     30  C         16.8030  -22.1820   -6.2020 C.2     1  UNL1        0.0480
     31  C         15.5370  -22.7190   -5.9480 C.2     1  UNL1        0.0300
     32  C         15.1210  -22.9560   -4.6380 C.2     1  UNL1        0.0020
     33  C         15.9670  -22.6530   -3.5760 C.2     1  UNL1        0.0010
     34  C         17.2260  -22.1060   -3.8220 C.2     1  UNL1        0.0090
     35  C         17.6590  -21.8570   -5.1350 C.2     1  UNL1       -0.0350
     36  C         19.0210  -21.2620   -5.3540 C.3     1  UNL1        0.0500
@<TRIPOS>BOND
     1    21    20    1
     2    21    17    1
     3    20    19    1
     4    17    15    1
     5    19    16    1
     6    15    16    2
     7    15    14    1
     8    16    18    1
     9    14    13    2
    10    18    12    2
    11    13    12    1
    12    12    11    1
    13    23    22    1
    14    11    22    1
    15    11     9    1
    16    10     9    1
    17    22    24    1
    18     9     7   am
    19     3     2    1
    20     3     4    2
    21     2     1    2
    22     7     4    1
    23     7     8    2
    24     4     5    1
    25    26    25    2
    26     1    25    1
    27     1     6    1
    28     5     6    2
    29    25    27    2
    30    25    28    1
    31    29    28    1
    32    28    30    1
    33    30    31    2
    34    30    35    1
    35    31    32    1
    36    36    35    1
    37    35    34    2
    38    32    33    2
    39    34    33    1
