@<TRIPOS>MOLECULE
27361_out_ligand_01.pdbqt
 33 36 0 0 0
SMALL
GASTEIGER

@<TRIPOS>ATOM
      1  C         17.9650  -23.8320   -8.3800 C.2     1  UNL1        0.0800
      2  C         19.2780  -24.2470   -8.1430 C.2     1  UNL1        0.0280
      3  C         20.3030  -23.8400   -9.0030 C.2     1  UNL1        0.0380
      4  C         20.0170  -23.0090  -10.0890 C.2     1  UNL1        0.0690
      5  C         18.7010  -22.5840  -10.3040 C.2     1  UNL1        0.0380
      6  C         17.6720  -22.9850   -9.4500 C.2     1  UNL1        0.0280
      7  O         20.9190  -22.5410  -11.0020 O.2     1  UNL1       -0.3420
      8  C         21.7900  -21.5020  -10.5810 C.3     1  UNL1        0.2780
      9  C         23.1420  -22.0670  -10.1670 C.2     1  UNL1        0.2480
     10  O         23.3750  -22.2190   -8.9610 O.2     1  UNL1       -0.2710
     11  N         24.0990  -22.3910  -11.1090 N.am    1  UNL1       -0.3150
     12  C         25.3590  -22.9970  -10.6550 C.3     1  UNL1        0.1370
     13  C         24.1740  -22.2020  -12.5030 C.2     1  UNL1        0.0430
     14  C         26.1250  -23.4530  -11.8930 C.3     1  UNL1        0.0610
     15  C         25.3580  -22.7770  -12.9850 C.2     1  UNL1       -0.0280
     16  C         25.7070  -22.7370  -14.3300 C.2     1  UNL1        0.0280
     17  C         24.8420  -22.0920  -15.2080 C.2     1  UNL1        0.0110
     18 BR         25.2700  -22.0040  -17.0460 Br      1  UNL1       -0.0510
     19  C         23.6560  -21.5100  -14.7460 C.2     1  UNL1        0.0210
     20  C         23.3210  -21.5600  -13.3860 C.2     1  UNL1        0.0310
     21  S         16.6620  -24.3460   -7.2830 S.O2    1  UNL1        0.2630
     22  O         15.5850  -24.8790   -8.0890 O.2     1  UNL1       -0.2000
     23  O         17.2690  -25.1380   -6.2320 O.2     1  UNL1       -0.2000
     24  N         16.1750  -22.9030   -6.5550 N.pl3   1  UNL1       -0.2800
     25  H         15.1640  -22.8340   -6.4820 H       1  UNL1        0.1790
     26  C         16.9760  -22.3180   -5.5280 C.2     1  UNL1        0.0490
     27  C         16.6700  -22.5230   -4.1740 C.2     1  UNL1       -0.0350
     28  C         17.5190  -21.9680   -3.2030 C.2     1  UNL1        0.0090
     29  C         15.5100  -23.3650   -3.7160 C.3     1  UNL1        0.0500
     30  C         18.6330  -21.2110   -3.5680 C.2     1  UNL1        0.0070
     31  C         18.9320  -21.0020   -4.9160 C.2     1  UNL1       -0.0600
     32  C         20.1110  -20.1670   -5.3210 C.3     1  UNL1        0.0480
     33  C         18.0880  -21.5490   -5.8900 C.2     1  UNL1        0.0370
@<TRIPOS>BOND
     1    18    17    1
     2    17    19    2
     3    17    16    1
     4    19    20    1
     5    16    15    2
     6    20    13    2
     7    15    13    1
     8    15    14    1
     9    13    11    1
    10    14    12    1
    11    11    12    1
    12    11     9   am
    13     7     8    1
    14     7     4    1
    15     8     9    1
    16     5     4    2
    17     5     6    1
    18     9    10    2
    19     4     3    1
    20     6     1    2
    21     3     2    2
    22     1     2    1
    23     1    21    1
    24    22    21    2
    25    21    24    1
    26    21    23    2
    27    24    25    1
    28    24    26    1
    29    33    26    2
    30    33    31    1
    31    26    27    1
    32    32    31    1
    33    31    30    2
    34    27    29    1
    35    27    28    2
    36    30    28    1
