@<TRIPOS>MOLECULE
27362_out_ligand_01.pdbqt
 34 37 0 0 0
SMALL
GASTEIGER

@<TRIPOS>ATOM
      1  C         18.0660  -23.7550   -8.4970 C.2     1  UNL1        0.0800
      2  C         19.3630  -24.1800   -8.2030 C.2     1  UNL1        0.0280
      3  C         20.4230  -23.7940   -9.0300 C.2     1  UNL1        0.0380
      4  C         20.1890  -22.9720  -10.1340 C.2     1  UNL1        0.0690
      5  C         18.8830  -22.5530  -10.4160 C.2     1  UNL1        0.0380
      6  C         17.8190  -22.9340   -9.5970 C.2     1  UNL1        0.0280
      7  O         21.1290  -22.5240  -11.0190 O.2     1  UNL1       -0.3420
      8  C         22.3280  -21.9670  -10.5020 C.3     1  UNL1        0.2780
      9  C         23.5700  -22.8550  -10.5360 C.2     1  UNL1        0.2490
     10  O         23.7930  -23.5840   -9.5580 O.2     1  UNL1       -0.2710
     11  N         24.4200  -22.8570  -11.6250 N.am    1  UNL1       -0.3110
     12  C         24.3390  -22.2520  -12.8970 C.2     1  UNL1        0.0440
     13  C         25.7020  -23.6000  -11.5410 C.3     1  UNL1        0.0930
     14  C         23.4070  -21.3840  -13.4410 C.2     1  UNL1        0.0310
     15  C         25.4160  -22.6790  -13.6860 C.2     1  UNL1       -0.0280
     16  C         23.5770  -20.9310  -14.7590 C.2     1  UNL1        0.0210
     17  C         24.6660  -21.3600  -15.5240 C.2     1  UNL1        0.0110
     18 BR         24.8650  -20.7400  -17.2980 Br      1  UNL1       -0.0510
     19  C         25.5960  -22.2480  -14.9950 C.2     1  UNL1        0.0280
     20  C         26.2570  -23.6880  -12.9700 C.3     1  UNL1        0.0660
     21  C         26.6930  -22.8870  -10.6130 C.3     1  UNL1        0.0330
     22  S         16.7280  -24.2420   -7.4370 S.O2    1  UNL1        0.2630
     23  O         17.2480  -25.0960   -6.3910 O.2     1  UNL1       -0.2000
     24  O         15.6470  -24.6880   -8.2910 O.2     1  UNL1       -0.2000
     25  N         16.2190  -22.7720   -6.7780 N.pl3   1  UNL1       -0.2800
     26  H         15.2040  -22.7390   -6.7010 H       1  UNL1        0.1790
     27  C         16.9790  -22.2110   -5.7100 C.2     1  UNL1        0.0490
     28  C         16.5910  -22.3910   -4.3730 C.2     1  UNL1       -0.0350
     29  C         17.4120  -21.8690   -3.3630 C.2     1  UNL1        0.0090
     30  C         15.3510  -23.1500   -3.9970 C.3     1  UNL1        0.0500
     31  C         18.5840  -21.1780   -3.6770 C.2     1  UNL1        0.0070
     32  C         18.9590  -20.9850   -5.0100 C.2     1  UNL1       -0.0600
     33  C         20.2350  -20.2730   -5.3460 C.3     1  UNL1        0.0480
     34  C         18.1530  -21.5200   -6.0220 C.2     1  UNL1        0.0370
@<TRIPOS>BOND
     1    18    17    1
     2    17    19    2
     3    17    16    1
     4    19    15    1
     5    16    14    2
     6    15    20    1
     7    15    12    2
     8    14    12    1
     9    20    13    1
    10    12    11    1
    11    11    13    1
    12    11     9   am
    13    13    21    1
    14     7     8    1
    15     7     4    1
    16     9     8    1
    17     9    10    2
    18     5     4    2
    19     5     6    1
    20     4     3    1
    21     6     1    2
    22     3     2    2
    23     1     2    1
    24     1    22    1
    25    24    22    2
    26    22    25    1
    27    22    23    2
    28    25    26    1
    29    25    27    1
    30    34    27    2
    31    34    32    1
    32    27    28    1
    33    33    32    1
    34    32    31    2
    35    28    30    1
    36    28    29    2
    37    31    29    1
