@<TRIPOS>MOLECULE
27360_out_ligand_01.pdbqt
 33 36 0 0 0
SMALL
GASTEIGER

@<TRIPOS>ATOM
      1  C         18.0120  -22.9160   -9.4690 C.2     1  UNL1        0.0800
      2  C         19.1560  -23.6380   -9.1240 C.2     1  UNL1        0.0280
      3  C         20.3370  -23.4260   -9.8370 C.2     1  UNL1        0.0380
      4  C         20.3790  -22.5110  -10.8950 C.2     1  UNL1        0.0690
      5  C         19.2260  -21.8020  -11.2390 C.2     1  UNL1        0.0380
      6  C         18.0380  -22.0070  -10.5290 C.2     1  UNL1        0.0280
      7  O         21.5980  -22.4060  -11.5040 O.2     1  UNL1       -0.3420
      8  C         22.6300  -21.7460  -10.7860 C.3     1  UNL1        0.2780
      9  C         23.8860  -22.6060  -10.7240 C.2     1  UNL1        0.2490
     10  O         24.1700  -23.1550   -9.6500 O.2     1  UNL1       -0.2710
     11  N         24.6920  -22.7700  -11.8340 N.am    1  UNL1       -0.3110
     12  C         24.6530  -22.2100  -13.1280 C.2     1  UNL1        0.0440
     13  C         25.8550  -23.6900  -11.7660 C.3     1  UNL1        0.0930
     14  C         23.9020  -21.1690  -13.6490 C.2     1  UNL1        0.0310
     15  C         25.5810  -22.8670  -13.9480 C.2     1  UNL1       -0.0280
     16  C         24.0770  -20.8060  -14.9930 C.2     1  UNL1        0.0210
     17  C         25.0000  -21.4800  -15.7990 C.2     1  UNL1        0.0110
     18 BR         25.2100  -20.9730  -17.6070 Br      1  UNL1       -0.0510
     19  C         25.7620  -22.5250  -15.2830 C.2     1  UNL1        0.0280
     20  C         26.2550  -23.9870  -13.2210 C.3     1  UNL1        0.0660
     21  C         27.0180  -23.0610  -10.9920 C.3     1  UNL1        0.0330
     22  S         16.5040  -23.1890   -8.5730 S.O2    1  UNL1        0.2630
     23  O         15.3940  -23.1150   -9.4980 O.2     1  UNL1       -0.2000
     24  O         16.7060  -24.3620   -7.7480 O.2     1  UNL1       -0.2000
     25  N         16.4570  -21.8750   -7.5110 N.pl3   1  UNL1       -0.2800
     26  H         17.0440  -21.1120   -7.8440 H       1  UNL1        0.1790
     27  C         16.4430  -22.1370   -6.1110 C.2     1  UNL1        0.0480
     28  C         15.2280  -22.4790   -5.5130 C.2     1  UNL1        0.0300
     29  C         15.1740  -22.7880   -4.1540 C.2     1  UNL1        0.0020
     30  C         16.3390  -22.7650   -3.3940 C.2     1  UNL1        0.0010
     31  C         17.5570  -22.4250   -3.9890 C.2     1  UNL1        0.0090
     32  C         17.6240  -22.0990   -5.3530 C.2     1  UNL1       -0.0350
     33  C         18.9580  -21.7710   -5.9620 C.3     1  UNL1        0.0500
@<TRIPOS>BOND
     1    18    17    1
     2    17    19    2
     3    17    16    1
     4    19    15    1
     5    16    14    2
     6    15    20    1
     7    15    12    2
     8    14    12    1
     9    20    13    1
    10    12    11    1
    11    11    13    1
    12    11     9   am
    13    13    21    1
    14     7     4    1
    15     7     8    1
    16     5     4    2
    17     5     6    1
    18     4     3    1
    19     8     9    1
    20     9    10    2
    21     6     1    2
    22     3     2    2
    23    23    22    2
    24     1     2    1
    25     1    22    1
    26    22    24    2
    27    22    25    1
    28    26    25    1
    29    25    27    1
    30    27    28    2
    31    27    32    1
    32    33    32    1
    33    28    29    1
    34    32    31    2
    35    29    30    2
    36    31    30    1
