@<TRIPOS>MOLECULE
2738_out_ligand_01.pdbqt
 35 39 0 0 0
SMALL
GASTEIGER

@<TRIPOS>ATOM
      1  C         24.1300  -21.7910  -10.8830 C.2     1  UNL1        0.0790
      2  C         23.7200  -21.8830   -9.5400 C.2     1  UNL1        0.0260
      3  C         22.4260  -22.3120   -9.2450 C.2     1  UNL1        0.0180
      4  C         21.5660  -22.6700  -10.2970 C.2     1  UNL1        0.0320
      5  C         21.9700  -22.5590  -11.6370 C.2     1  UNL1        0.0180
      6  C         23.2570  -22.1090  -11.9320 C.2     1  UNL1        0.0260
      7  C         20.2120  -23.1720   -9.9920 C.2     1  UNL1        0.2540
      8  O         20.0920  -24.3310   -9.6060 O.2     1  UNL1       -0.2670
      9  N         19.1630  -22.2770  -10.1530 N.am    1  UNL1       -0.3390
     10  C         19.1610  -21.1520  -11.0770 C.3     1  UNL1        0.1270
     11  C         17.8030  -22.6460   -9.7670 C.3     1  UNL1        0.1200
     12  C         17.7580  -21.1650  -11.6580 C.3     1  UNL1        0.0220
     13  C         16.9050  -21.6200  -10.4820 C.3     1  UNL1        0.0320
     14  C         17.5990  -22.6220   -8.2630 C.2     1  UNL1       -0.0330
     15  C         18.6080  -22.1150   -7.4240 C.2     1  UNL1        0.0120
     16  C         18.4300  -22.0860   -6.0370 C.2     1  UNL1        0.0400
     17  C         17.2340  -22.5520   -5.4760 C.2     1  UNL1        0.1020
     18  C         16.2300  -23.0800   -6.2970 C.2     1  UNL1        0.1020
     19  O         17.1130  -22.4620   -4.1110 O.2     1  UNL1       -0.3460
     20  C         16.4070  -23.1050   -7.6800 C.2     1  UNL1        0.0490
     21  O         15.0330  -23.5760   -5.8180 O.2     1  UNL1       -0.3460
     22  C         15.0850  -23.7700   -4.4010 C.3     1  UNL1        0.2020
     23  C         15.7390  -22.5800   -3.7090 C.3     1  UNL1        0.2020
     24  S         25.8020  -21.3120  -11.2450 S.O2    1  UNL1        0.2630
     25  O         25.9470  -19.9460  -10.7740 O.2     1  UNL1       -0.2000
     26  O         26.6850  -22.3710  -10.7990 O.2     1  UNL1       -0.2000
     27  N         25.8450  -21.2350  -12.9200 N.pl3   1  UNL1       -0.2800
     28  H         26.3120  -20.3920  -13.2420 H       1  UNL1        0.1790
     29  C         25.7270  -22.3530  -13.8040 C.2     1  UNL1        0.0480
     30  C         26.1810  -23.6340  -13.4640 C.2     1  UNL1        0.0300
     31  C         25.9900  -24.7160  -14.3270 C.2     1  UNL1        0.0020
     32  C         25.3290  -24.5390  -15.5360 C.2     1  UNL1        0.0010
     33  C         24.8420  -23.2770  -15.8760 C.2     1  UNL1        0.0090
     34  C         25.0220  -22.1760  -15.0180 C.2     1  UNL1       -0.0350
     35  C         24.4500  -20.8380  -15.4360 C.3     1  UNL1        0.0500
@<TRIPOS>BOND
     1    33    32    2
     2    33    34    1
     3    32    31    1
     4    35    34    1
     5    34    29    2
     6    31    30    2
     7    29    30    1
     8    29    27    1
     9    28    27    1
    10    27    24    1
    11     6     5    1
    12     6     1    2
    13    12    10    1
    14    12    13    1
    15     5     4    2
    16    24     1    1
    17    24    26    2
    18    24    25    2
    19    10     9    1
    20     1     2    1
    21    13    11    1
    22     4     7    1
    23     4     3    1
    24     9     7   am
    25     9    11    1
    26     7     8    2
    27    11    14    1
    28     2     3    2
    29    14    20    2
    30    14    15    1
    31    20    18    1
    32    15    16    2
    33    18    21    1
    34    18    17    2
    35    16    17    1
    36    21    22    1
    37    17    19    1
    38    22    23    1
    39    19    23    1
