@<TRIPOS>MOLECULE
27392_out_ligand_01.pdbqt
 34 37 0 0 0
SMALL
GASTEIGER

@<TRIPOS>ATOM
      1  C         21.6780  -22.9280   -9.7430 C.2     1  UNL1        0.0800
      2  C         21.1080  -23.8010   -8.8140 C.2     1  UNL1        0.0280
      3  C         19.7200  -23.9510   -8.7700 C.2     1  UNL1        0.0390
      4  C         18.9010  -23.2290   -9.6480 C.2     1  UNL1        0.0750
      5  C         19.4800  -22.3530  -10.5870 C.2     1  UNL1       -0.0270
      6  C         18.6210  -21.5630  -11.5370 C.3     1  UNL1        0.0510
      7  C         20.8720  -22.1900  -10.6120 C.2     1  UNL1        0.0340
      8  O         17.5340  -23.3040   -9.6740 O.2     1  UNL1       -0.3420
      9  C         16.8160  -22.5150   -8.7340 C.3     1  UNL1        0.2780
     10  C         16.1900  -23.4170   -7.6810 C.2     1  UNL1        0.2490
     11  O         15.4340  -24.3240   -8.0600 O.2     1  UNL1       -0.2710
     12  N         16.4810  -23.2590   -6.3390 N.am    1  UNL1       -0.3110
     13  C         17.3470  -22.3840   -5.6490 C.2     1  UNL1        0.0440
     14  C         15.8130  -24.1350   -5.3440 C.3     1  UNL1        0.0930
     15  C         18.0970  -21.3050   -6.0850 C.2     1  UNL1        0.0300
     16  C         17.4040  -22.7520   -4.3000 C.2     1  UNL1       -0.0290
     17  C         18.8910  -20.6050   -5.1660 C.2     1  UNL1        0.0020
     18  C         18.9400  -20.9880   -3.8230 C.2     1  UNL1        0.0010
     19  C         18.1930  -22.0730   -3.3800 C.2     1  UNL1        0.0090
     20  C         16.5880  -23.9740   -4.0250 C.3     1  UNL1        0.0660
     21  C         14.3410  -23.7470   -5.1620 C.3     1  UNL1        0.0330
     22  S         23.4450  -22.7200   -9.7860 S.O2    1  UNL1        0.2630
     23  O         24.0220  -23.7590   -8.9560 O.2     1  UNL1       -0.2000
     24  O         23.7370  -21.3250   -9.5410 O.2     1  UNL1       -0.2000
     25  N         23.8440  -23.1210  -11.3780 N.pl3   1  UNL1       -0.2810
     26  H         23.1640  -23.7560  -11.7920 H       1  UNL1        0.1790
     27  C         24.4220  -22.1290  -12.2180 C.2     1  UNL1        0.0430
     28  C         23.8960  -21.9290  -13.4920 C.2     1  UNL1        0.0300
     29  C         24.4120  -20.9200  -14.3070 C.2     1  UNL1        0.0090
     30  C         25.4590  -20.0990  -13.8570 C.2     1  UNL1       -0.0560
     31  C         25.9900  -19.0230  -14.7640 C.3     1  UNL1        0.0490
     32  C         26.0010  -20.3130  -12.5740 C.2     1  UNL1       -0.0540
     33  C         25.4700  -21.3310  -11.7630 C.2     1  UNL1        0.0370
     34  C         27.1210  -19.4610  -12.0400 C.3     1  UNL1        0.0490
@<TRIPOS>BOND
     1    31    30    1
     2    29    30    2
     3    29    28    1
     4    30    32    1
     5    28    27    2
     6    32    34    1
     7    32    33    2
     8    27    33    1
     9    27    25    1
    10    26    25    1
    11     6     5    1
    12    25    22    1
    13     7     5    1
    14     7     1    2
    15     5     4    2
    16    22     1    1
    17    22    24    2
    18    22    23    2
    19     1     2    1
    20     8     4    1
    21     8     9    1
    22     4     3    1
    23     2     3    2
    24     9    10    1
    25    11    10    2
    26    10    12   am
    27    12    13    1
    28    12    14    1
    29    15    13    2
    30    15    17    1
    31    13    16    1
    32    14    21    1
    33    14    20    1
    34    17    18    2
    35    16    20    1
    36    16    19    2
    37    18    19    1
