@<TRIPOS>MOLECULE
2739_out_ligand_01.pdbqt
 32 35 0 0 0
SMALL
GASTEIGER

@<TRIPOS>ATOM
      1  C         20.2590  -22.2600  -10.3150 C.2     1  UNL1        0.0330
      2  C         19.8460  -21.4540  -11.3870 C.2     1  UNL1        0.0170
      3  C         18.4860  -21.2350  -11.6200 C.2     1  UNL1        0.0030
      4  C         17.5310  -21.8070  -10.7800 C.2     1  UNL1        0.0250
      5  C         17.9460  -22.5850   -9.6950 C.2     1  UNL1        0.0750
      6  C         19.3030  -22.8240   -9.4630 C.2     1  UNL1        0.0410
      7  C         21.6980  -22.5210  -10.0300 C.2     1  UNL1        0.2520
      8  O         22.0470  -23.6210   -9.6170 O.2     1  UNL1       -0.2680
      9  N         22.5690  -21.4870  -10.2830 N.am    1  UNL1       -0.3510
     10  H         22.2690  -20.7380  -10.8950 H       1  UNL1        0.1630
     11  C         24.0010  -21.6980  -10.2830 C.3     1  UNL1        0.1830
     12  C         24.3840  -22.1720  -11.6430 C.2     1  UNL1        0.0700
     13  C         25.1760  -23.2440  -12.0020 C.2     1  UNL1        0.1270
     14  N         25.1840  -23.2610  -13.3720 N.pl3   1  UNL1       -0.3160
     15  C         25.8290  -24.1350  -14.2450 C.2     1  UNL1        0.0980
     16  C         24.3940  -22.1960  -13.7930 C.2     1  UNL1        0.1340
     17  C         25.6920  -23.9540  -15.5700 C.2     1  UNL1        0.0180
     18  C         24.8730  -22.8500  -16.0500 C.2     1  UNL1        0.0050
     19  C         24.2520  -22.0100  -15.1970 C.2     1  UNL1        0.0510
     20  N         23.9010  -21.5280  -12.7700 N.2     1  UNL1       -0.2320
     21  S         16.7380  -23.3120   -8.6110 S.O2    1  UNL1        0.2460
     22  O         17.4260  -24.2880   -7.7910 O.2     1  UNL1       -0.2060
     23  O         15.5890  -23.6820   -9.4080 O.2     1  UNL1       -0.2060
     24  N         16.3190  -22.0300   -7.5890 N.pl3   1  UNL1       -0.1780
     25  H         15.4920  -21.5460   -7.9430 H       1  UNL1        0.1460
     26  C         16.3270  -22.2650   -6.1780 C.2     1  UNL1        0.0610
     27  C         15.1640  -22.6280   -5.5010 C.2     1  UNL1        0.0270
     28  C         15.1940  -22.8100   -4.1150 C.2     1  UNL1        0.0020
     29  C         16.3840  -22.6280   -3.4060 C.2     1  UNL1        0.0030
     30  C         17.5500  -22.2660   -4.0810 C.2     1  UNL1        0.0440
     31  C         17.5130  -22.0890   -5.4600 C.2     1  UNL1        0.1380
     32  F         18.6340  -21.7330   -6.1060 F       1  UNL1       -0.2040
@<TRIPOS>BOND
     1    18    17    1
     2    18    19    2
     3    17    15    2
     4    19    16    1
     5    15    14    1
     6    16    14    1
     7    16    20    2
     8    14    13    1
     9    20    12    1
    10    13    12    2
    11    12    11    1
    12     3     2    1
    13     3     4    2
    14     2     1    2
    15    10     9    1
    16     4     5    1
    17     1     7    1
    18     1     6    1
    19    11     9    1
    20     9     7   am
    21     7     8    2
    22     5     6    2
    23     5    21    1
    24    23    21    2
    25    21    22    2
    26    21    24    1
    27    25    24    1
    28    24    26    1
    29    26    27    2
    30    26    31    1
    31    32    31    1
    32    27    28    1
    33    31    30    2
    34    28    29    2
    35    30    29    1
