@<TRIPOS>MOLECULE
27405_out_ligand_01.pdbqt
 38 41 0 0 0
SMALL
GASTEIGER

@<TRIPOS>ATOM
      1  C         20.0300  -22.1880  -10.3350 C.2     1  UNL1        0.0750
      2  C         20.0300  -23.2260   -9.3940 C.2     1  UNL1        0.0390
      3  C         18.8250  -23.7450   -8.9160 C.2     1  UNL1        0.0280
      4  C         17.6150  -23.2220   -9.3790 C.2     1  UNL1        0.0800
      5  C         17.6010  -22.1530  -10.2770 C.2     1  UNL1        0.0340
      6  C         18.8090  -21.6350  -10.7680 C.2     1  UNL1       -0.0270
      7  C         18.7810  -20.5090  -11.7660 C.3     1  UNL1        0.0510
      8  O         21.1550  -21.6320  -10.8880 O.2     1  UNL1       -0.3420
      9  C         21.9450  -22.4360  -11.7580 C.3     1  UNL1        0.2780
     10  C         22.5600  -21.6810  -12.9510 C.2     1  UNL1        0.2480
     11  N         23.8220  -22.0650  -13.4060 N.am    1  UNL1       -0.3110
     12  C         24.1910  -21.7140  -14.7830 C.3     1  UNL1        0.1750
     13  C         24.8550  -22.7480  -12.6990 C.2     1  UNL1        0.0700
     14  C         24.7720  -22.9380  -15.4690 C.3     1  UNL1        0.2460
     15  O         25.9420  -23.4190  -14.8060 O.2     1  UNL1       -0.3320
     16  C         25.8720  -23.3910  -13.4340 C.2     1  UNL1        0.0970
     17  C         26.9250  -24.0440  -12.7830 C.2     1  UNL1        0.0390
     18  C         26.9910  -24.0550  -11.3940 C.2     1  UNL1        0.0030
     19  C         26.0150  -23.3930  -10.6550 C.2     1  UNL1        0.0020
     20  C         24.9620  -22.7350  -11.3030 C.2     1  UNL1        0.0330
     21  O         21.9010  -20.8270  -13.5590 O.2     1  UNL1       -0.2710
     22  C         25.0800  -22.5680  -16.9100 C.2     1  UNL1        0.2890
     23  O         25.7910  -23.2390  -17.6450 O.2     1  UNL1       -0.2620
     24  O         24.4320  -21.4270  -17.2810 O.3     1  UNL1       -0.3240
     25  C         25.2260  -20.5230  -18.0520 C.3     1  UNL1        0.2130
     26  S         16.0800  -23.9120   -8.7990 S.O2    1  UNL1        0.2630
     27  O         16.3800  -25.0960   -8.0220 O.2     1  UNL1       -0.2000
     28  O         15.1800  -23.9710   -9.9330 O.2     1  UNL1       -0.2000
     29  N         15.4780  -22.6970   -7.7830 N.pl3   1  UNL1       -0.2810
     30  H         15.0460  -21.9440   -8.3120 H       1  UNL1        0.1790
     31  C         16.2410  -22.3360   -6.6350 C.2     1  UNL1        0.0430
     32  C         15.7270  -22.5450   -5.3580 C.2     1  UNL1        0.0300
     33  C         16.5060  -22.2540   -4.2380 C.2     1  UNL1        0.0090
     34  C         17.8140  -21.7610   -4.3850 C.2     1  UNL1       -0.0560
     35  C         18.6270  -21.4650   -3.1530 C.3     1  UNL1        0.0490
     36  C         18.3360  -21.5500   -5.6800 C.2     1  UNL1       -0.0540
     37  C         19.7410  -21.0460   -5.8920 C.3     1  UNL1        0.0490
     38  C         17.5360  -21.8430   -6.7980 C.2     1  UNL1        0.0370
@<TRIPOS>BOND
     1    25    24    1
     2    23    22    2
     3    24    22    1
     4    22    14    1
     5    14    15    1
     6    14    12    1
     7    15    16    1
     8    12    11    1
     9    21    10    2
    10    16    17    1
    11    16    13    2
    12    11    10   am
    13    11    13    1
    14    10     9    1
    15    17    18    2
    16    13    20    1
    17     7     6    1
    18     9     8    1
    19    18    19    1
    20    20    19    2
    21     8     1    1
    22     6     1    2
    23     6     5    1
    24     1     2    1
    25     5     4    2
    26    28    26    2
    27     2     3    2
    28     4     3    1
    29     4    26    1
    30    26    27    2
    31    26    29    1
    32    30    29    1
    33    29    31    1
    34    38    31    2
    35    38    36    1
    36    31    32    1
    37    37    36    1
    38    36    34    2
    39    32    33    2
    40    34    33    1
    41    34    35    1
