@<TRIPOS>MOLECULE
27418_out_ligand_01.pdbqt
 37 40 0 0 0
SMALL
GASTEIGER

@<TRIPOS>ATOM
      1  C         21.6220  -22.8120   -8.2910 C.2     1  UNL1       -0.0580
      2  C         20.9530  -21.8660   -7.5010 C.2     1  UNL1        0.0090
      3  C         19.6870  -22.1420   -6.9860 C.2     1  UNL1        0.0260
      4  C         19.0830  -23.3700   -7.2660 C.2     1  UNL1        0.0790
      5  C         19.7410  -24.3290   -8.0390 C.2     1  UNL1        0.0260
      6  C         21.0070  -24.0460   -8.5530 C.2     1  UNL1        0.0090
      7  C         23.0060  -22.5180   -8.8250 C.3     1  UNL1        0.0480
      8  C         23.0080  -21.4080   -9.8790 C.3     1  UNL1        0.1080
      9  C         23.2030  -21.9250  -11.3040 C.2     1  UNL1        0.2240
     10  N         24.4490  -21.6630  -11.8900 N.am    1  UNL1       -0.3120
     11  C         25.5970  -21.1800  -11.1070 C.3     1  UNL1        0.1750
     12  C         24.7140  -21.7960  -13.2990 C.2     1  UNL1        0.0700
     13  C         26.9170  -21.7410  -11.6210 C.3     1  UNL1        0.2460
     14  O         27.1210  -21.3900  -12.9830 O.2     1  UNL1       -0.3320
     15  C         26.0300  -21.6300  -13.7800 C.2     1  UNL1        0.0970
     16  C         26.3200  -21.6890  -15.1470 C.2     1  UNL1        0.0390
     17  C         25.3060  -21.9320  -16.0680 C.2     1  UNL1        0.0030
     18  C         24.0020  -22.1060  -15.6170 C.2     1  UNL1        0.0020
     19  C         23.7100  -22.0340  -14.2480 C.2     1  UNL1        0.0330
     20  O         22.3010  -22.5690  -11.8440 O.2     1  UNL1       -0.2730
     21  C         27.0380  -23.2310  -11.2820 C.2     1  UNL1        0.2890
     22  O         27.0380  -24.1280  -12.1200 O.2     1  UNL1       -0.2620
     23  O         27.0740  -23.4310   -9.9360 O.3     1  UNL1       -0.3240
     24  C         27.1100  -24.8060   -9.5440 C.3     1  UNL1        0.2130
     25  S         17.4690  -23.7110   -6.6100 S.O2    1  UNL1        0.2590
     26  O         17.2780  -22.8660   -5.4530 O.2     1  UNL1       -0.2010
     27  O         17.2960  -25.1460   -6.5420 O.2     1  UNL1       -0.2010
     28  N         16.4640  -23.1320   -7.7980 N.3     1  UNL1       -0.3070
     29  H         15.8520  -22.3540   -7.5630 H       1  UNL1        0.1730
     30  C         16.5330  -23.6300   -9.1670 C.3     1  UNL1        0.1220
     31  C         15.1230  -24.0270   -9.6150 C.3     1  UNL1        0.0380
     32  C         17.1940  -22.5960  -10.0620 C.2     1  UNL1       -0.0350
     33  C         18.4670  -22.8620  -10.5920 C.2     1  UNL1        0.0090
     34  C         19.1220  -21.9240  -11.3940 C.2     1  UNL1        0.0010
     35  C         18.5160  -20.7020  -11.6720 C.2     1  UNL1        0.0000
     36  C         17.2620  -20.4140  -11.1410 C.2     1  UNL1        0.0010
     37  C         16.6090  -21.3490  -10.3340 C.2     1  UNL1        0.0090
@<TRIPOS>BOND
     1    17    18    2
     2    17    16    1
     3    18    19    1
     4    16    15    2
     5    19    12    2
     6    15    12    1
     7    15    14    1
     8    12    10    1
     9    14    13    1
    10    22    21    2
    11    10     9   am
    12    10    11    1
    13    20     9    2
    14    35    34    2
    15    35    36    1
    16    13    21    1
    17    13    11    1
    18    34    33    1
    19     9     8    1
    20    21    23    1
    21    36    37    2
    22    33    32    2
    23    37    32    1
    24    32    30    1
    25    23    24    1
    26     8     7    1
    27    31    30    1
    28    30    28    1
    29     7     1    1
    30     6     1    2
    31     6     5    1
    32     1     2    1
    33     5     4    2
    34    28    29    1
    35    28    25    1
    36     2     3    2
    37     4     3    1
    38     4    25    1
    39    25    27    2
    40    25    26    2
