@<TRIPOS>MOLECULE
27428_out_ligand_01.pdbqt
 43 47 0 0 0
SMALL
GASTEIGER

@<TRIPOS>ATOM
      1  C         23.5830  -22.5060   -9.9350 C.2     1  UNL1        0.2480
      2  O         23.8070  -23.2660   -8.9850 O.2     1  UNL1       -0.2710
      3  N         24.5750  -22.2410  -10.8840 N.am    1  UNL1       -0.3110
      4  C         25.9460  -22.5430  -10.4490 C.3     1  UNL1        0.1740
      5  C         26.9990  -22.3610  -11.5340 C.3     1  UNL1        0.2390
      6  O         26.8490  -21.0910  -12.1740 O.2     1  UNL1       -0.3330
      7  C         25.5840  -20.9570  -12.7030 C.2     1  UNL1        0.0970
      8  C         25.5020  -20.1960  -13.8720 C.2     1  UNL1        0.0390
      9  C         24.2900  -20.0910  -14.5430 C.2     1  UNL1        0.0030
     10  C         23.1730  -20.7610  -14.0530 C.2     1  UNL1        0.0020
     11  C         23.2550  -21.4950  -12.8610 C.2     1  UNL1        0.0330
     12  C         24.4470  -21.5570  -12.1320 C.2     1  UNL1        0.0700
     13  C         22.2420  -21.7560  -10.0080 C.3     1  UNL1        0.2780
     14  O         21.2080  -22.4540  -10.6990 O.2     1  UNL1       -0.3420
     15  C         20.1060  -22.8270   -9.9790 C.2     1  UNL1        0.0690
     16  C         20.3820  -23.6660   -8.8930 C.2     1  UNL1        0.0380
     17  C         19.3560  -24.1230   -8.0630 C.2     1  UNL1        0.0280
     18  C         18.0390  -23.7540   -8.3420 C.2     1  UNL1        0.0800
     19  C         17.7500  -22.9130   -9.4210 C.2     1  UNL1        0.0280
     20  C         18.7850  -22.4550  -10.2430 C.2     1  UNL1        0.0380
     21  S         16.7270  -24.3060   -7.2760 S.O2    1  UNL1        0.2630
     22  O         17.2870  -25.2380   -6.3220 O.2     1  UNL1       -0.2000
     23  O         15.6110  -24.6830   -8.1180 O.2     1  UNL1       -0.2000
     24  N         16.2520  -22.8940   -6.4830 N.pl3   1  UNL1       -0.2800
     25  H         15.6970  -22.2860   -7.0830 H       1  UNL1        0.1790
     26  C         17.1060  -22.2930   -5.5120 C.2     1  UNL1        0.0480
     27  C         18.1830  -21.5040   -5.9340 C.2     1  UNL1        0.0300
     28  C         19.0180  -20.8890   -5.0010 C.2     1  UNL1        0.0020
     29  C         18.7840  -21.0630   -3.6410 C.2     1  UNL1        0.0010
     30  C         17.7200  -21.8600   -3.2130 C.2     1  UNL1        0.0090
     31  C         16.8730  -22.4890   -4.1390 C.2     1  UNL1       -0.0350
     32  C         15.7440  -23.3430   -3.6300 C.3     1  UNL1        0.0500
     33  C         27.0560  -23.5640  -12.5010 C.2     1  UNL1        0.2490
     34  O         27.1200  -24.7300  -12.1250 O.2     1  UNL1       -0.2710
     35  N         27.0920  -23.2030  -13.8310 N.am    1  UNL1       -0.3550
     36  H         27.0150  -22.2200  -14.0680 H       1  UNL1        0.1620
     37  C         27.0600  -24.1730  -14.8970 C.3     1  UNL1        0.1610
     38  C         26.1920  -23.6830  -16.0250 C.2     1  UNL1       -0.0410
     39  C         24.8580  -24.0950  -16.1390 C.2     1  UNL1        0.0090
     40  C         24.0650  -23.6430  -17.1960 C.2     1  UNL1        0.0010
     41  C         24.6000  -22.7820  -18.1530 C.2     1  UNL1        0.0000
     42  C         25.9290  -22.3730  -18.0560 C.2     1  UNL1        0.0010
     43  C         26.7210  -22.8200  -16.9970 C.2     1  UNL1        0.0090
@<TRIPOS>BOND
     1    41    42    2
     2    41    40    1
     3    42    43    1
     4    40    39    2
     5    43    38    2
     6    39    38    1
     7    38    37    1
     8    37    35    1
     9     9    10    2
    10     9     8    1
    11    36    35    1
    12    10    11    1
    13     8     7    2
    14    35    33   am
    15    11    12    2
    16     7     6    1
    17     7    12    1
    18    33    34    2
    19    33     5    1
    20     6     5    1
    21    12     3    1
    22     5     4    1
    23     3     4    1
    24     3     1   am
    25    14    13    1
    26    14    15    1
    27    20    15    2
    28    20    19    1
    29    13     1    1
    30    15    16    1
    31     1     2    2
    32    19    18    2
    33    16    17    2
    34    18    17    1
    35    18    21    1
    36    23    21    2
    37    21    24    1
    38    21    22    2
    39    25    24    1
    40    24    26    1
    41    27    26    2
    42    27    28    1
    43    26    31    1
    44    28    29    2
    45    31    32    1
    46    31    30    2
    47    29    30    1
