@<TRIPOS>MOLECULE
27422_out_ligand_01.pdbqt
 36 39 0 0 0
SMALL
GASTEIGER

@<TRIPOS>ATOM
      1  C         25.2380  -21.7010  -16.8830 C.3     1  UNL1        0.0760
      2  C         25.4730  -20.3060  -17.2280 C.1     1  UNL1        0.0740
      3  N         25.6480  -19.1960  -17.5240 N.1     1  UNL1       -0.1960
      4  C         26.0680  -22.7270  -17.6600 C.3     1  UNL1        0.0320
      5  C         24.6180  -22.5620  -17.9880 C.3     1  UNL1        0.0320
      6  C         24.8570  -22.0600  -15.4430 C.2     1  UNL1       -0.0350
      7  C         25.5210  -23.0760  -14.7350 C.2     1  UNL1        0.0110
      8  C         25.1730  -23.4070  -13.4180 C.2     1  UNL1        0.0300
      9  C         24.1530  -22.7200  -12.7620 C.2     1  UNL1        0.0340
     10  C         23.4940  -21.6930  -13.4450 C.2     1  UNL1        0.0300
     11  C         23.8410  -21.3690  -14.7630 C.2     1  UNL1        0.0110
     12  N         23.7290  -22.9940  -11.4450 N.am    1  UNL1       -0.3270
     13  C         23.9490  -22.2280  -10.3130 C.2     1  UNL1        0.2220
     14  O         24.4870  -21.1260  -10.2690 O.2     1  UNL1       -0.2730
     15  H         23.2470  -23.8720  -11.3180 H       1  UNL1        0.1690
     16  C         23.3880  -22.8520   -9.0450 C.3     1  UNL1        0.1080
     17  C         22.6190  -21.8760   -8.1540 C.3     1  UNL1        0.0480
     18  C         21.2310  -22.3120   -7.7420 C.2     1  UNL1       -0.0580
     19  C         20.7020  -23.5060   -8.2540 C.2     1  UNL1        0.0090
     20  C         19.4100  -23.9150   -7.9140 C.2     1  UNL1        0.0250
     21  C         18.6320  -23.1180   -7.0680 C.2     1  UNL1        0.0740
     22  C         19.1470  -21.9370   -6.5360 C.2     1  UNL1        0.0250
     23  C         20.4370  -21.5280   -6.8870 C.2     1  UNL1        0.0090
     24  S         17.0010  -23.6720   -6.6300 S.O2    1  UNL1        0.2420
     25  O         17.1760  -24.7230   -5.6500 O.2     1  UNL1       -0.2060
     26  O         16.1640  -22.5220   -6.3670 O.2     1  UNL1       -0.2060
     27  N         16.4770  -24.4280   -8.0510 N.3     1  UNL1       -0.2070
     28  H         17.2290  -24.9740   -8.4740 H       1  UNL1        0.1400
     29  C         15.7500  -23.6040   -9.0430 C.3     1  UNL1        0.1000
     30  C         14.9040  -24.5560   -9.8970 C.3     1  UNL1        0.0320
     31  C         16.6560  -22.7550   -9.9130 C.2     1  UNL1       -0.0400
     32  C         16.3370  -21.4020  -10.1240 C.2     1  UNL1        0.0090
     33  C         17.1520  -20.5910  -10.9160 C.2     1  UNL1        0.0010
     34  C         18.2970  -21.1190  -11.5080 C.2     1  UNL1        0.0000
     35  C         18.6300  -22.4590  -11.3080 C.2     1  UNL1        0.0010
     36  C         17.8150  -23.2720  -10.5140 C.2     1  UNL1        0.0090
@<TRIPOS>BOND
     1     5     4    1
     2     5     1    1
     3     4     1    1
     4     3     2    3
     5     2     1    1
     6     1     6    1
     7     6    11    2
     8     6     7    1
     9    11    10    1
    10     7     8    2
    11    10     9    2
    12     8     9    1
    13     9    12    1
    14    34    35    2
    15    34    33    1
    16    12    15    1
    17    12    13   am
    18    35    36    1
    19    33    32    2
    20    36    31    2
    21    13    14    2
    22    13    16    1
    23    32    31    1
    24    31    29    1
    25    30    29    1
    26    16    17    1
    27    29    27    1
    28    28    27    1
    29    19    20    1
    30    19    18    2
    31    17    18    1
    32    27    24    1
    33    20    21    2
    34    18    23    1
    35    21    24    1
    36    21    22    1
    37    23    22    2
    38    24    26    2
    39    24    25    2
