@<TRIPOS>MOLECULE
27425_out_ligand_01.pdbqt
 32 34 0 0 0
SMALL
GASTEIGER

@<TRIPOS>ATOM
      1  C         20.2510  -22.4040  -10.9630 C.2     1  UNL1        0.0690
      2  C         19.0600  -21.7410  -11.2690 C.2     1  UNL1        0.0380
      3  C         17.9100  -21.9840  -10.5120 C.2     1  UNL1        0.0280
      4  C         17.9490  -22.9040   -9.4620 C.2     1  UNL1        0.0800
      5  C         19.1410  -23.5450   -9.1250 C.2     1  UNL1        0.0280
      6  C         20.2870  -23.2940   -9.8830 C.2     1  UNL1        0.0380
      7  O         21.4420  -22.2740  -11.6230 O.2     1  UNL1       -0.3420
      8  C         22.6110  -22.8030  -11.0020 C.3     1  UNL1        0.2780
      9  C         23.6950  -21.7590  -10.6500 C.2     1  UNL1        0.2480
     10  N         24.7580  -21.5840  -11.5470 N.am    1  UNL1       -0.3210
     11  C         25.9500  -20.8920  -11.0530 C.3     1  UNL1        0.1590
     12  O         23.6590  -21.1660   -9.5620 O.2     1  UNL1       -0.2710
     13  C         24.7690  -21.9890  -12.9180 C.2     1  UNL1        0.0370
     14  C         24.2870  -21.1330  -13.9130 C.2     1  UNL1        0.0300
     15  C         24.2930  -21.5180  -15.2580 C.2     1  UNL1        0.0090
     16  C         24.7620  -22.7780  -15.6450 C.2     1  UNL1       -0.0560
     17  C         24.7460  -23.1560  -17.1010 C.3     1  UNL1        0.0490
     18  C         25.1920  -23.6760  -14.6530 C.2     1  UNL1       -0.0540
     19  C         25.1950  -23.2670  -13.3040 C.2     1  UNL1        0.0370
     20  C         25.6710  -25.0610  -14.9990 C.3     1  UNL1        0.0490
     21  S         16.4740  -23.2330   -8.5230 S.O2    1  UNL1        0.2630
     22  O         16.6730  -24.4710   -7.8020 O.2     1  UNL1       -0.2000
     23  O         15.3440  -23.0640   -9.4140 O.2     1  UNL1       -0.2000
     24  N         16.4030  -21.9400   -7.4380 N.pl3   1  UNL1       -0.2800
     25  H         16.9220  -21.1320   -7.7760 H       1  UNL1        0.1790
     26  C         16.3950  -22.1950   -6.0340 C.2     1  UNL1        0.0480
     27  C         15.1960  -22.5420   -5.4060 C.2     1  UNL1        0.0300
     28  C         15.1690  -22.8370   -4.0440 C.2     1  UNL1        0.0020
     29  C         16.3460  -22.7820   -3.3010 C.2     1  UNL1        0.0010
     30  C         17.5450  -22.4300   -3.9190 C.2     1  UNL1        0.0090
     31  C         17.5860  -22.1250   -5.2890 C.2     1  UNL1       -0.0350
     32  C         18.9000  -21.7310   -5.9090 C.3     1  UNL1        0.0500
@<TRIPOS>BOND
     1    17    16    1
     2    16    15    2
     3    16    18    1
     4    15    14    1
     5    20    18    1
     6    18    19    2
     7    14    13    2
     8    19    13    1
     9    13    10    1
    10     7     8    1
    11     7     1    1
    12    10    11    1
    13    10     9   am
    14     2     1    2
    15     2     3    1
    16     8     9    1
    17     1     6    1
    18     9    12    2
    19     3     4    2
    20     6     5    2
    21     4     5    1
    22     4    21    1
    23    23    21    2
    24    21    22    2
    25    21    24    1
    26    25    24    1
    27    24    26    1
    28    26    27    2
    29    26    31    1
    30    32    31    1
    31    27    28    1
    32    31    30    2
    33    28    29    2
    34    30    29    1
