@<TRIPOS>MOLECULE
27421_out_ligand_01.pdbqt
 37 39 0 0 0
SMALL
GASTEIGER

@<TRIPOS>ATOM
      1  C         18.6530  -23.0820   -6.9790 C.2     1  UNL1        0.0790
      2  C         19.1250  -21.8340   -6.5690 C.2     1  UNL1        0.0260
      3  C         20.4170  -21.4370   -6.9180 C.2     1  UNL1        0.0090
      4  C         21.2270  -22.2700   -7.7030 C.2     1  UNL1       -0.0580
      5  C         20.7280  -23.5100   -8.1280 C.2     1  UNL1        0.0090
      6  C         19.4430  -23.9180   -7.7710 C.2     1  UNL1        0.0260
      7  C         22.6220  -21.8350   -8.0880 C.3     1  UNL1        0.0480
      8  C         23.3630  -22.8690   -8.9320 C.3     1  UNL1        0.1080
      9  C         23.9450  -22.3100  -10.2240 C.2     1  UNL1        0.2220
     10  O         24.4080  -21.1770  -10.3070 O.2     1  UNL1       -0.2730
     11  N         23.8380  -23.2340  -11.2540 N.am    1  UNL1       -0.3270
     12  H         23.4020  -24.1200  -11.0250 H       1  UNL1        0.1690
     13  C         24.2310  -23.0760  -12.5990 C.2     1  UNL1        0.0340
     14  C         25.1430  -24.0060  -13.1120 C.2     1  UNL1        0.0300
     15  C         25.5690  -23.9300  -14.4410 C.2     1  UNL1        0.0100
     16  C         25.1040  -22.9110  -15.2780 C.2     1  UNL1       -0.0490
     17  C         24.2020  -21.9740  -14.7610 C.2     1  UNL1        0.0100
     18  C         23.7650  -22.0620  -13.4340 C.2     1  UNL1        0.0300
     19  C         25.5450  -22.8460  -16.7190 C.3     1  UNL1        0.1410
     20  C         24.4110  -22.4750  -17.6530 C.2     1  UNL1        0.2190
     21  N         24.4550  -21.2080  -18.1520 N.am    1  UNL1       -0.3700
     22  H         23.6460  -20.9230  -18.6890 H       1  UNL1        0.1590
     23  H         24.9860  -20.4800  -17.6820 H       1  UNL1        0.1590
     24  O         23.4970  -23.2380  -17.9570 O.2     1  UNL1       -0.2730
     25  S         17.0220  -23.6060   -6.5200 S.O2    1  UNL1        0.2590
     26  O         16.5750  -22.7640   -5.4340 O.2     1  UNL1       -0.2010
     27  O         17.0140  -25.0460   -6.4150 O.2     1  UNL1       -0.2010
     28  N         16.1060  -23.1830   -7.8420 N.3     1  UNL1       -0.3070
     29  H         15.5450  -22.3440   -7.7490 H       1  UNL1        0.1730
     30  C         16.3940  -23.7240   -9.1690 C.3     1  UNL1        0.1220
     31  C         15.0770  -24.1930   -9.7900 C.3     1  UNL1        0.0380
     32  C         17.0930  -22.7040  -10.0480 C.2     1  UNL1       -0.0350
     33  C         16.4870  -21.4600  -10.2890 C.2     1  UNL1        0.0090
     34  C         17.1130  -20.5070  -11.0940 C.2     1  UNL1        0.0010
     35  C         18.3540  -20.7810  -11.6720 C.2     1  UNL1        0.0000
     36  C         18.9680  -22.0100  -11.4460 C.2     1  UNL1        0.0010
     37  C         18.3430  -22.9680  -10.6410 C.2     1  UNL1        0.0090
@<TRIPOS>BOND
     1    22    21    1
     2    21    23    1
     3    21    20   am
     4    24    20    2
     5    20    19    1
     6    19    16    1
     7    16    17    2
     8    16    15    1
     9    17    18    1
    10    15    14    2
    11    18    13    2
    12    14    13    1
    13    13    11    1
    14    35    36    2
    15    35    34    1
    16    36    37    1
    17    11    12    1
    18    11     9   am
    19    34    33    2
    20    37    32    2
    21    10     9    2
    22    33    32    1
    23     9     8    1
    24    32    30    1
    25    31    30    1
    26    30    28    1
    27     8     7    1
    28     5     6    1
    29     5     4    2
    30     7     4    1
    31    28    29    1
    32    28    25    1
    33     6     1    2
    34     4     3    1
    35     1     2    1
    36     1    25    1
    37     3     2    2
    38    25    27    2
    39    25    26    2
