@<TRIPOS>MOLECULE
27435_out_ligand_01.pdbqt
 33 36 0 0 0
SMALL
GASTEIGER

@<TRIPOS>ATOM
      1  C         17.4960  -22.5460  -10.1530 C.2     1  UNL1        0.0790
      2  C         18.6410  -23.2320   -9.7390 C.2     1  UNL1        0.0260
      3  C         19.8840  -22.8760  -10.2660 C.2     1  UNL1        0.0090
      4  C         19.9890  -21.8370  -11.2010 C.2     1  UNL1       -0.0580
      5  C         18.8310  -21.1560  -11.6050 C.2     1  UNL1        0.0090
      6  C         17.5850  -21.5030  -11.0770 C.2     1  UNL1        0.0260
      7  C         21.3360  -21.4460  -11.7610 C.3     1  UNL1        0.0480
      8  C         22.4350  -22.4280  -11.3520 C.3     1  UNL1        0.1080
      9  C         23.6120  -21.7170  -10.7200 C.2     1  UNL1        0.2240
     10  O         23.5610  -21.3600   -9.5380 O.2     1  UNL1       -0.2730
     11  N         24.7380  -21.4620  -11.4790 N.am    1  UNL1       -0.3170
     12  C         25.8540  -20.7320  -10.8590 C.2     1  UNL1        0.1370
     13  C         25.1070  -21.8130  -12.7920 C.2     1  UNL1        0.0430
     14  C         26.8840  -20.4410  -11.9490 C.2     1  UNL1        0.0610
     15  C         26.3590  -21.2560  -13.0870 C.2     1  UNL1       -0.0280
     16  C         26.9770  -21.4380  -14.3180 C.2     1  UNL1        0.0280
     17  C         26.3230  -22.2110  -15.2700 C.2     1  UNL1        0.0110
     18 BR         27.1210  -22.4940  -16.9600 Br      1  UNL1       -0.0510
     19  C         25.0750  -22.7820  -14.9900 C.2     1  UNL1        0.0210
     20  C         24.4610  -22.5840  -13.7450 C.2     1  UNL1        0.0310
     21  S         15.9270  -22.9800   -9.4500 S.O2    1  UNL1        0.2590
     22  O         14.9120  -22.1990  -10.1220 O.2     1  UNL1       -0.2010
     23  O         15.8440  -24.4220   -9.3650 O.2     1  UNL1       -0.2010
     24  N         16.0330  -22.3850   -7.9010 N.3     1  UNL1       -0.3070
     25  H         15.9440  -21.3780   -7.7950 H       1  UNL1        0.1730
     26  C         16.5770  -23.1970   -6.8170 C.3     1  UNL1        0.1220
     27  C         15.4100  -23.8380   -6.0630 C.3     1  UNL1        0.0380
     28  C         17.4550  -22.3670   -5.8980 C.2     1  UNL1       -0.0350
     29  C         17.1730  -22.2400   -4.5280 C.2     1  UNL1        0.0090
     30  C         17.9930  -21.4740   -3.6990 C.2     1  UNL1        0.0010
     31  C         19.1050  -20.8210   -4.2270 C.2     1  UNL1        0.0000
     32  C         19.3940  -20.9310   -5.5840 C.2     1  UNL1        0.0010
     33  C         18.5730  -21.6940   -6.4150 C.2     1  UNL1        0.0090
@<TRIPOS>BOND
     1    18    17    1
     2    17    19    2
     3    17    16    1
     4    19    20    1
     5    16    15    2
     6    20    13    2
     7    15    13    1
     8    15    14    1
     9    13    11    1
    10    14    12    2
    11     7     8    1
    12     7     4    1
    13     5     4    2
    14     5     6    1
    15    11    12    1
    16    11     9   am
    17     8     9    1
    18     4     3    1
    19     6     1    2
    20     9    10    2
    21     3     2    2
    22     1     2    1
    23     1    21    1
    24    22    21    2
    25    21    23    2
    26    21    24    1
    27    24    25    1
    28    24    26    1
    29    26    27    1
    30    26    28    1
    31    33    28    2
    32    33    32    1
    33    28    29    1
    34    32    31    2
    35    29    30    2
    36    31    30    1
