@<TRIPOS>MOLECULE
27434_out_ligand_01.pdbqt
 33 36 0 0 0
SMALL
GASTEIGER

@<TRIPOS>ATOM
      1  C         19.3760  -23.3390   -7.4440 C.2     1  UNL1        0.0790
      2  C         19.8090  -24.4920   -8.1040 C.2     1  UNL1        0.0260
      3  C         21.0560  -24.4970   -8.7280 C.2     1  UNL1        0.0090
      4  C         21.8760  -23.3610   -8.6920 C.2     1  UNL1       -0.0580
      5  C         21.4340  -22.2170   -8.0090 C.2     1  UNL1        0.0090
      6  C         20.1870  -22.2030   -7.3840 C.2     1  UNL1        0.0260
      7  C         23.2400  -23.3810   -9.3460 C.3     1  UNL1        0.0480
      8  C         23.1760  -22.9840  -10.8230 C.3     1  UNL1        0.1080
      9  C         24.1500  -21.8620  -11.1670 C.2     1  UNL1        0.2250
     10  O         24.5120  -21.0860  -10.2790 O.2     1  UNL1       -0.2730
     11  N         24.6060  -21.8080  -12.4760 N.am    1  UNL1       -0.3130
     12  C         25.4820  -20.8200  -12.9840 C.2     1  UNL1        0.0440
     13  C         24.2970  -22.7500  -13.5880 C.3     1  UNL1        0.0930
     14  C         26.1480  -19.8060  -12.3140 C.2     1  UNL1        0.0300
     15  C         25.6280  -20.9630  -14.3650 C.2     1  UNL1       -0.0290
     16  C         26.9710  -18.9440  -13.0460 C.2     1  UNL1        0.0020
     17  C         27.1140  -19.0940  -14.4310 C.2     1  UNL1        0.0010
     18  C         26.4330  -20.1090  -15.1040 C.2     1  UNL1        0.0090
     19  C         24.7600  -22.0600  -14.8900 C.3     1  UNL1        0.0660
     20  C         25.0210  -24.0870  -13.4030 C.3     1  UNL1        0.0330
     21  S         17.7860  -23.3350   -6.6570 S.O2    1  UNL1        0.2590
     22  O         17.4150  -24.7100   -6.4090 O.2     1  UNL1       -0.2010
     23  O         17.7950  -22.3490   -5.5990 O.2     1  UNL1       -0.2010
     24  N         16.7960  -22.7910   -7.8820 N.3     1  UNL1       -0.3070
     25  H         16.4590  -21.8350   -7.7850 H       1  UNL1        0.1730
     26  C         16.8440  -23.4000   -9.2090 C.3     1  UNL1        0.1220
     27  C         15.4180  -23.8070   -9.5930 C.3     1  UNL1        0.0380
     28  C         17.5170  -22.4580  -10.1930 C.2     1  UNL1       -0.0350
     29  C         18.7770  -22.8110  -10.7080 C.2     1  UNL1        0.0090
     30  C         19.4500  -21.9690  -11.5970 C.2     1  UNL1        0.0010
     31  C         18.8790  -20.7590  -11.9780 C.2     1  UNL1        0.0000
     32  C         17.6390  -20.3860  -11.4660 C.2     1  UNL1        0.0010
     33  C         16.9650  -21.2240  -10.5740 C.2     1  UNL1        0.0090
@<TRIPOS>BOND
     1    18    17    2
     2    18    15    1
     3    19    15    1
     4    19    13    1
     5    17    16    1
     6    15    12    2
     7    13    20    1
     8    13    11    1
     9    16    14    2
    10    12    11    1
    11    12    14    1
    12    11     9   am
    13    31    30    2
    14    31    32    1
    15    30    29    1
    16    32    33    2
    17     9     8    1
    18     9    10    2
    19     8     7    1
    20    29    28    2
    21    33    28    1
    22    28    26    1
    23    27    26    1
    24     7     4    1
    25    26    24    1
    26     3     4    2
    27     3     2    1
    28     4     5    1
    29     2     1    2
    30     5     6    2
    31    24    25    1
    32    24    21    1
    33     1     6    1
    34     1    21    1
    35    21    22    2
    36    21    23    2
