@<TRIPOS>MOLECULE
27440_out_ligand_01.pdbqt
 43 47 0 0 0
SMALL
GASTEIGER

@<TRIPOS>ATOM
      1  C         22.7560  -21.4520  -13.1830 C.2     1  UNL1        0.2480
      2  O         22.2400  -21.0450  -14.2290 O.2     1  UNL1       -0.2710
      3  N         24.0760  -21.9040  -13.0650 N.am    1  UNL1       -0.3110
      4  C         24.6990  -22.1540  -11.7560 C.3     1  UNL1        0.1740
      5  C         26.1770  -21.7940  -11.7510 C.3     1  UNL1        0.2390
      6  O         26.9030  -22.5010  -12.7500 O.2     1  UNL1       -0.3330
      7  C         26.2780  -22.5310  -13.9720 C.2     1  UNL1        0.0970
      8  C         27.1130  -22.9120  -15.0300 C.2     1  UNL1        0.0390
      9  C         26.6160  -22.9730  -16.3270 C.2     1  UNL1        0.0030
     10  C         25.2830  -22.6640  -16.5620 C.2     1  UNL1        0.0020
     11  C         24.4430  -22.2960  -15.5030 C.2     1  UNL1        0.0330
     12  C         24.9180  -22.2230  -14.1860 C.2     1  UNL1        0.0700
     13  C         21.8900  -21.4370  -11.9080 C.3     1  UNL1        0.2780
     14  O         20.6340  -20.7790  -11.9990 O.2     1  UNL1       -0.3420
     15  C         19.5830  -21.2950  -11.2950 C.2     1  UNL1        0.0690
     16  C         18.2370  -20.9490  -11.4460 C.2     1  UNL1        0.0380
     17  C         17.2610  -21.5650  -10.6560 C.2     1  UNL1        0.0280
     18  C         17.6360  -22.5180   -9.7060 C.2     1  UNL1        0.0800
     19  C         18.9740  -22.8760   -9.5510 C.2     1  UNL1        0.0280
     20  C         19.9420  -22.2550  -10.3430 C.2     1  UNL1        0.0380
     21  S         16.3900  -23.3070   -8.7190 S.O2    1  UNL1        0.2630
     22  O         15.7110  -24.2990   -9.5250 O.2     1  UNL1       -0.2000
     23  O         15.6440  -22.2620   -8.0480 O.2     1  UNL1       -0.2000
     24  N         17.2990  -24.0750   -7.5180 N.pl3   1  UNL1       -0.2810
     25  H         18.1040  -24.5480   -7.9240 H       1  UNL1        0.1790
     26  C         17.5000  -23.3810   -6.2930 C.2     1  UNL1        0.0430
     27  C         16.8260  -23.8000   -5.1470 C.2     1  UNL1        0.0300
     28  C         16.9860  -23.0970   -3.9560 C.2     1  UNL1        0.0030
     29  C         17.8190  -21.9780   -3.9110 C.2     1  UNL1        0.0070
     30  C         18.5050  -21.5550   -5.0570 C.2     1  UNL1       -0.0600
     31  C         19.3630  -20.3250   -5.0160 C.3     1  UNL1        0.0480
     32  C         18.3280  -22.2580   -6.2550 C.2     1  UNL1        0.0370
     33  C         26.3920  -20.2690  -11.7800 C.2     1  UNL1        0.2490
     34  O         26.3570  -19.5700  -10.7710 O.2     1  UNL1       -0.2710
     35  N         26.7100  -19.7830  -13.0300 N.am    1  UNL1       -0.3550
     36  H         26.7500  -20.4390  -13.8020 H       1  UNL1        0.1620
     37  C         27.0930  -18.4120  -13.2640 C.3     1  UNL1        0.1610
     38  C         26.9340  -18.0650  -14.7220 C.2     1  UNL1       -0.0410
     39  C         27.1210  -16.7510  -15.1720 C.2     1  UNL1        0.0090
     40  C         26.9380  -16.4320  -16.5190 C.2     1  UNL1        0.0010
     41  C         26.5620  -17.4210  -17.4260 C.2     1  UNL1        0.0000
     42  C         26.3680  -18.7300  -16.9890 C.2     1  UNL1        0.0010
     43  C         26.5490  -19.0500  -15.6430 C.2     1  UNL1        0.0090
@<TRIPOS>BOND
     1    41    42    2
     2    41    40    1
     3    42    43    1
     4    10     9    2
     5    10    11    1
     6    40    39    2
     7     9     8    1
     8    43    38    2
     9    11    12    2
    10    39    38    1
    11     8     7    2
    12    38    37    1
    13     2     1    2
    14    12     7    1
    15    12     3    1
    16     7     6    1
    17    36    35    1
    18    37    35    1
    19     1     3   am
    20     1    13    1
    21     3     4    1
    22    35    33   am
    23     6     5    1
    24    14    13    1
    25    14    15    1
    26    33     5    1
    27    33    34    2
    28     4     5    1
    29    16    15    2
    30    16    17    1
    31    15    20    1
    32    17    18    2
    33    20    19    2
    34    18    19    1
    35    18    21    1
    36    22    21    2
    37    21    23    2
    38    21    24    1
    39    25    24    1
    40    24    26    1
    41    26    32    2
    42    26    27    1
    43    32    30    1
    44    27    28    2
    45    30    31    1
    46    30    29    2
    47    28    29    1
