@<TRIPOS>MOLECULE
27442_out_ligand_01.pdbqt
 38 41 0 0 0
SMALL
GASTEIGER

@<TRIPOS>ATOM
      1  C         16.6230  -21.7020  -10.4770 C.3     1  UNL1        0.2780
      2  C         17.9200  -21.4500  -11.2530 C.2     1  UNL1        0.2460
      3  N         18.9990  -22.1400  -10.7260 N.am    1  UNL1       -0.3250
      4  H         18.7780  -22.7600   -9.9520 H       1  UNL1        0.1690
      5  O         17.9310  -20.6860  -12.2150 O.2     1  UNL1       -0.2710
      6  C         20.3300  -22.1380  -11.1790 C.2     1  UNL1        0.0340
      7  C         21.2540  -22.8940  -10.4530 C.2     1  UNL1        0.0300
      8  C         22.5980  -22.9480  -10.8450 C.2     1  UNL1        0.0110
      9  C         23.0590  -22.2610  -11.9800 C.2     1  UNL1       -0.0400
     10  C         22.1190  -21.4940  -12.6860 C.2     1  UNL1        0.0110
     11  C         20.7750  -21.4310  -12.2950 C.2     1  UNL1        0.0300
     12  C         24.5180  -22.3260  -12.4170 C.3     1  UNL1        0.0750
     13  C         24.7980  -22.7410  -13.8600 C.3     1  UNL1        0.0260
     14  C         25.1140  -23.6910  -12.7530 C.3     1  UNL1        0.0260
     15  C         25.4270  -21.2930  -11.8170 C.2     1  UNL1        0.2720
     16  O         25.2840  -20.8830  -10.6750 O.2     1  UNL1       -0.2640
     17  O         26.3810  -20.8870  -12.7000 O.3     1  UNL1       -0.3210
     18  C         26.3620  -19.4810  -12.9590 C.3     1  UNL1        0.1740
     19  C         25.9700  -19.2670  -14.4060 C.3     1  UNL1        0.0340
     20  O         16.4390  -23.0450  -10.0380 O.2     1  UNL1       -0.3420
     21  C         16.2250  -23.2510   -8.7030 C.2     1  UNL1        0.0690
     22  C         15.8560  -22.1050   -7.9900 C.2     1  UNL1        0.0380
     23  C         15.6140  -22.1640   -6.6160 C.2     1  UNL1        0.0280
     24  C         15.7520  -23.3840   -5.9530 C.2     1  UNL1        0.0800
     25  C         16.1420  -24.5330   -6.6490 C.2     1  UNL1        0.0280
     26  C         16.3780  -24.4640   -8.0270 C.2     1  UNL1        0.0380
     27  S         15.4570  -23.4880   -4.2070 S.O2    1  UNL1        0.2630
     28  O         14.7080  -22.3050   -3.8360 O.2     1  UNL1       -0.2000
     29  O         14.9700  -24.8120   -3.8860 O.2     1  UNL1       -0.2000
     30  N         17.0010  -23.2790   -3.5590 N.pl3   1  UNL1       -0.2810
     31  H         17.3770  -24.1700   -3.2400 H       1  UNL1        0.1790
     32  C         17.8980  -22.3990   -4.2240 C.2     1  UNL1        0.0430
     33  C         18.1240  -21.1200   -3.7200 C.2     1  UNL1        0.0300
     34  C         18.9900  -20.2560   -4.3900 C.2     1  UNL1        0.0030
     35  C         19.6230  -20.6710   -5.5620 C.2     1  UNL1        0.0070
     36  C         19.3980  -21.9550   -6.0740 C.2     1  UNL1       -0.0600
     37  C         20.0460  -22.3840   -7.3540 C.3     1  UNL1        0.0480
     38  C         18.5150  -22.8100   -5.4050 C.2     1  UNL1        0.0370
@<TRIPOS>BOND
     1    19    18    1
     2    13    14    1
     3    13    12    1
     4    18    17    1
     5    14    12    1
     6    17    15    1
     7    10    11    1
     8    10     9    2
     9    12     9    1
    10    12    15    1
    11    11     6    2
    12     5     2    2
    13     9     8    1
    14    15    16    2
    15     2     3   am
    16     2     1    1
    17     6     3    1
    18     6     7    1
    19     8     7    2
    20     3     4    1
    21     1    20    1
    22    20    21    1
    23    21    26    2
    24    21    22    1
    25    26    25    1
    26    22    23    2
    27    37    36    1
    28    25    24    2
    29    23    24    1
    30    36    35    2
    31    36    38    1
    32    24    27    1
    33    35    34    1
    34    38    32    2
    35    34    33    2
    36    32    33    1
    37    32    30    1
    38    27    29    2
    39    27    28    2
    40    27    30    1
    41    30    31    1
