@<TRIPOS>MOLECULE
2744_out_ligand_01.pdbqt
 30 33 0 0 0
SMALL
GASTEIGER

@<TRIPOS>ATOM
      1  C         18.3800  -22.9030   -9.6890 C.2     1  UNL1        0.0320
      2  C         18.6500  -21.9190  -10.6440 C.2     1  UNL1        0.0190
      3  C         19.9610  -21.7130  -11.0970 C.2     1  UNL1        0.0300
      4  C         21.0150  -22.4840  -10.6020 C.2     1  UNL1        0.0350
      5  C         20.7420  -23.4590   -9.6350 C.2     1  UNL1        0.0300
      6  C         19.4370  -23.6650   -9.1760 C.2     1  UNL1        0.0190
      7  C         17.0080  -23.1650   -9.1710 C.2     1  UNL1        0.2520
      8  O         16.0270  -22.7090   -9.7500 O.2     1  UNL1       -0.2680
      9  N         16.9100  -23.8990   -8.0150 N.am    1  UNL1       -0.3500
     10  H         17.7270  -24.1170   -7.4550 H       1  UNL1        0.1630
     11  C         15.6270  -24.1220   -7.3940 C.3     1  UNL1        0.2030
     12  C         15.6070  -23.4690   -6.0570 C.ar    1  UNL1        0.1480
     13  N         14.5440  -23.2550   -5.3050 N.ar    1  UNL1       -0.1330
     14  N         14.9550  -22.6390   -4.1550 N.ar    1  UNL1       -0.1350
     15  C         16.2630  -22.4780   -4.2080 C.ar    1  UNL1        0.1300
     16  N         16.7180  -23.0110   -5.3890 N.ar    1  UNL1       -0.3190
     17  C         17.0620  -21.7890   -3.1530 C.3     1  UNL1        0.0800
     18  C         18.0930  -23.1270   -5.8130 C.3     1  UNL1        0.1320
     19  C         18.8080  -21.7890   -5.9780 C.3     1  UNL1        0.0200
     20  C         18.8440  -20.8830   -4.7410 C.3     1  UNL1        0.0020
     21  C         18.5520  -21.5810   -3.4140 C.3     1  UNL1        0.0080
     22  N         22.3520  -22.3470  -11.0130 N.am    1  UNL1       -0.3210
     23  C         23.3890  -21.6900  -10.3750 C.2     1  UNL1        0.2790
     24  O         23.3110  -21.1120   -9.2950 O.2     1  UNL1       -0.2650
     25  H         22.6090  -22.7730  -11.8980 H       1  UNL1        0.1690
     26  C         24.6300  -21.7470  -11.1310 C.2     1  UNL1        0.1420
     27  C         25.7860  -20.9930  -11.0440 C.2     1  UNL1        0.0450
     28  C         26.6680  -21.4810  -12.0380 C.2     1  UNL1        0.0270
     29  C         26.0050  -22.5050  -12.6710 C.2     1  UNL1        0.1430
     30  O         24.7700  -22.6790  -12.1320 O.2     1  UNL1       -0.3170
@<TRIPOS>BOND
     1    29    30    1
     2    29    28    2
     3    30    26    1
     4    28    27    1
     5    25    22    1
     6    26    27    2
     7    26    23    1
     8     3     2    1
     9     3     4    2
    10    22     4    1
    11    22    23   am
    12     2     1    2
    13     4     5    1
    14    23    24    2
    15     8     7    2
    16     1     6    1
    17     1     7    1
    18     5     6    2
    19     7     9   am
    20     9    10    1
    21     9    11    1
    22    11    12    1
    23    12    16   ar
    24    12    13   ar
    25    19    18    1
    26    19    20    1
    27    18    16    1
    28    16    15   ar
    29    13    14   ar
    30    20    21    1
    31    15    14   ar
    32    15    17    1
    33    21    17    1
