@<TRIPOS>MOLECULE
27454_out_ligand_01.pdbqt
 33 36 0 0 0
SMALL
GASTEIGER

@<TRIPOS>ATOM
      1  C         17.3920  -22.5200  -10.0220 C.2     1  UNL1        0.0790
      2  C         18.5840  -23.1680   -9.6940 C.2     1  UNL1        0.0260
      3  C         19.7830  -22.7170  -10.2460 C.2     1  UNL1        0.0090
      4  C         19.7990  -21.6250  -11.1260 C.2     1  UNL1       -0.0580
      5  C         18.5910  -20.9930  -11.4560 C.2     1  UNL1        0.0090
      6  C         17.3870  -21.4390  -10.9090 C.2     1  UNL1        0.0260
      7  C         21.1000  -21.1580  -11.7390 C.3     1  UNL1        0.0480
      8  C         22.1570  -22.2660  -11.7960 C.3     1  UNL1        0.1080
      9  C         23.4600  -21.8470  -11.1340 C.2     1  UNL1        0.2240
     10  O         23.4320  -21.2590  -10.0460 O.2     1  UNL1       -0.2730
     11  N         24.6630  -22.1940  -11.7370 N.am    1  UNL1       -0.3130
     12  C         25.8510  -22.2420  -10.8820 C.3     1  UNL1        0.1590
     13  C         24.9380  -22.4530  -13.1170 C.2     1  UNL1        0.0700
     14  C         26.6580  -23.4850  -11.2130 C.3     1  UNL1        0.1960
     15  O         27.1190  -23.4670  -12.5660 O.2     1  UNL1       -0.3470
     16  C         26.1580  -23.0740  -13.4680 C.2     1  UNL1        0.0950
     17  C         26.4910  -23.3130  -14.8050 C.2     1  UNL1        0.0390
     18  C         25.6200  -22.9310  -15.8210 C.2     1  UNL1        0.0030
     19  C         24.4290  -22.2870  -15.4970 C.2     1  UNL1        0.0020
     20  C         24.0980  -22.0410  -14.1580 C.2     1  UNL1        0.0330
     21  S         15.8550  -23.0790   -9.3320 S.O2    1  UNL1        0.2590
     22  O         15.9040  -24.5210   -9.2160 O.2     1  UNL1       -0.2010
     23  O         14.7880  -22.4070  -10.0400 O.2     1  UNL1       -0.2010
     24  N         15.8800  -22.4470   -7.7920 N.3     1  UNL1       -0.3070
     25  H         15.8680  -21.4330   -7.7240 H       1  UNL1        0.1730
     26  C         16.3740  -23.2380   -6.6670 C.3     1  UNL1        0.1220
     27  C         15.1710  -23.7900   -5.8970 C.3     1  UNL1        0.0380
     28  C         17.2940  -22.4030   -5.7940 C.2     1  UNL1       -0.0350
     29  C         18.3940  -21.7120   -6.3280 C.2     1  UNL1        0.0090
     30  C         19.2440  -20.9740   -5.5010 C.2     1  UNL1        0.0010
     31  C         19.0120  -20.9230   -4.1280 C.2     1  UNL1        0.0000
     32  C         17.9310  -21.6110   -3.5810 C.2     1  UNL1        0.0010
     33  C         17.0790  -22.3460   -4.4080 C.2     1  UNL1        0.0090
@<TRIPOS>BOND
     1    18    19    2
     2    18    17    1
     3    19    20    1
     4    17    16    2
     5    20    13    2
     6    16    13    1
     7    16    15    1
     8    13    11    1
     9    15    14    1
    10     8     7    1
    11     8     9    1
    12     7     4    1
    13    11     9   am
    14    11    12    1
    15     5     4    2
    16     5     6    1
    17    14    12    1
    18     9    10    2
    19     4     3    1
    20     6     1    2
    21     3     2    2
    22    23    21    2
    23     1     2    1
    24     1    21    1
    25    21    22    2
    26    21    24    1
    27    24    25    1
    28    24    26    1
    29    26    27    1
    30    26    28    1
    31    29    28    2
    32    29    30    1
    33    28    33    1
    34    30    31    2
    35    33    32    2
    36    31    32    1
