@<TRIPOS>MOLECULE
27467_out_ligand_01.pdbqt
 36 39 0 0 0
SMALL
GASTEIGER

@<TRIPOS>ATOM
      1  C         19.8680  -21.7060  -10.9890 C.2     1  UNL1        0.0690
      2  C         19.9240  -22.7690  -10.0880 C.2     1  UNL1        0.0380
      3  C         18.7470  -23.2460   -9.5100 C.2     1  UNL1        0.0280
      4  C         17.5240  -22.6640   -9.8600 C.2     1  UNL1        0.0800
      5  C         17.4660  -21.6070  -10.7770 C.2     1  UNL1        0.0280
      6  C         18.6460  -21.1430  -11.3600 C.2     1  UNL1        0.0380
      7  O         21.0170  -21.2630  -11.5810 O.2     1  UNL1       -0.3420
      8  C         21.9660  -22.3180  -11.7190 C.3     1  UNL1        0.2780
      9  C         23.3080  -22.1010  -11.0200 C.2     1  UNL1        0.2490
     10  N         24.4020  -21.6180  -11.7140 N.am    1  UNL1       -0.3110
     11  C         24.5890  -21.2830  -13.0710 C.2     1  UNL1        0.0440
     12  C         25.6650  -21.3370  -10.9880 C.3     1  UNL1        0.0930
     13  C         23.7960  -21.5060  -14.1880 C.2     1  UNL1        0.0310
     14  C         25.8150  -20.6190  -13.2200 C.2     1  UNL1       -0.0280
     15  C         24.2290  -21.0400  -15.4360 C.2     1  UNL1        0.0210
     16  C         25.4480  -20.3630  -15.5620 C.2     1  UNL1        0.0110
     17  C         26.2560  -20.1460  -14.4510 C.2     1  UNL1        0.0280
     18 BR         25.9920  -19.7220  -17.2550 Br      1  UNL1       -0.0510
     19  C         26.5040  -20.4320  -11.9070 C.3     1  UNL1        0.0660
     20  C         26.4180  -22.6320  -10.6570 C.3     1  UNL1        0.0330
     21  O         23.3920  -22.3580   -9.8100 O.2     1  UNL1       -0.2710
     22  S         16.0200  -23.2500   -9.1120 S.O2    1  UNL1        0.2630
     23  O         15.2500  -22.1080   -8.6730 O.2     1  UNL1       -0.2000
     24  O         15.4530  -24.2390  -10.0030 O.2     1  UNL1       -0.2000
     25  N         16.5680  -24.1050   -7.7630 N.pl3   1  UNL1       -0.2810
     26  H         17.3540  -24.7090   -7.9970 H       1  UNL1        0.1790
     27  C         16.5200  -23.5250   -6.4660 C.2     1  UNL1        0.0430
     28  C         15.4920  -23.8070   -5.5680 C.2     1  UNL1        0.0300
     29  C         15.4820  -23.2080   -4.3060 C.2     1  UNL1        0.0030
     30  C         16.5100  -22.3420   -3.9320 C.2     1  UNL1        0.0160
     31  C         17.5690  -22.0780   -4.8120 C.2     1  UNL1        0.0500
     32  C         17.5610  -22.6760   -6.0840 C.2     1  UNL1        0.0460
     33  C         18.6830  -21.1460   -4.4010 C.3     1  UNL1        0.4170
     34  F         19.1690  -21.4310   -3.1610 F       1  UNL1       -0.1660
     35  F         19.7500  -21.1950   -5.2470 F       1  UNL1       -0.1660
     36  F         18.3000  -19.8370   -4.3630 F       1  UNL1       -0.1660
@<TRIPOS>BOND
     1    18    16    1
     2    16    15    2
     3    16    17    1
     4    15    13    1
     5    17    14    2
     6    13    11    2
     7    14    11    1
     8    14    19    1
     9    11    10    1
    10    19    12    1
    11     8     7    1
    12     8     9    1
    13    10     9   am
    14    10    12    1
    15     7     1    1
    16     6     1    2
    17     6     5    1
    18     9    21    2
    19     1     2    1
    20    12    20    1
    21     5     4    2
    22     2     3    2
    23    24    22    2
    24     4     3    1
    25     4    22    1
    26    22    23    2
    27    22    25    1
    28    26    25    1
    29    25    27    1
    30    27    32    2
    31    27    28    1
    32    32    31    1
    33    28    29    2
    34    35    33    1
    35    31    33    1
    36    31    30    2
    37    33    36    1
    38    33    34    1
    39    29    30    1
