@<TRIPOS>MOLECULE
27487_out_ligand_01.pdbqt
 38 41 0 0 0
SMALL
GASTEIGER

@<TRIPOS>ATOM
      1  N         26.0110  -20.4080  -11.0320 N.1     1  UNL1       -0.1960
      2  C         25.3030  -21.1200  -11.6140 C.1     1  UNL1        0.0740
      3  C         24.4500  -22.0440  -12.3450 C.3     1  UNL1        0.0760
      4  C         25.1120  -23.3590  -12.7660 C.3     1  UNL1        0.0320
      5  C         24.8480  -22.3070  -13.7960 C.3     1  UNL1        0.0320
      6  C         22.9570  -22.1130  -12.0070 C.2     1  UNL1       -0.0350
      7  C         21.9970  -21.4060  -12.7550 C.2     1  UNL1        0.0110
      8  C         20.6280  -21.4770  -12.4560 C.2     1  UNL1        0.0300
      9  C         20.1800  -22.2500  -11.3870 C.2     1  UNL1        0.0340
     10  C         21.1210  -22.9400  -10.6140 C.2     1  UNL1        0.0300
     11  C         22.4870  -22.8720  -10.9220 C.2     1  UNL1        0.0110
     12  N         18.8260  -22.3850  -11.0290 N.am    1  UNL1       -0.3250
     13  C         17.8240  -21.4380  -11.1270 C.2     1  UNL1        0.2460
     14  O         17.9390  -20.2860  -11.5340 O.2     1  UNL1       -0.2710
     15  H         18.5220  -23.3060  -10.7270 H       1  UNL1        0.1690
     16  C         16.4630  -21.9640  -10.6560 C.3     1  UNL1        0.2780
     17  O         16.4780  -23.2730  -10.0980 O.2     1  UNL1       -0.3420
     18  C         16.1780  -23.4070   -8.7680 C.2     1  UNL1        0.0690
     19  C         15.7770  -22.2200   -8.1450 C.2     1  UNL1        0.0380
     20  C         15.4770  -22.1950   -6.7810 C.2     1  UNL1        0.0280
     21  C         15.5790  -23.3700   -6.0360 C.2     1  UNL1        0.0800
     22  C         15.9870  -24.5610   -6.6440 C.2     1  UNL1        0.0280
     23  C         16.2850  -24.5760   -8.0120 C.2     1  UNL1        0.0380
     24  S         15.2460  -23.3520   -4.2890 S.O2    1  UNL1        0.2630
     25  O         14.4070  -22.2000   -4.0390 O.2     1  UNL1       -0.2000
     26  O         14.8310  -24.6790   -3.8880 O.2     1  UNL1       -0.2000
     27  N         16.7320  -23.0070   -3.6050 N.pl3   1  UNL1       -0.2810
     28  H         16.8180  -23.3240   -2.6420 H       1  UNL1        0.1790
     29  C         17.7470  -22.1910   -4.1740 C.2     1  UNL1        0.0430
     30  C         18.1490  -20.9600   -3.6610 C.2     1  UNL1        0.0300
     31  C         19.1370  -20.2090   -4.3080 C.2     1  UNL1        0.0030
     32  C         19.7190  -20.6750   -5.4840 C.2     1  UNL1        0.0160
     33  C         19.3220  -21.9000   -6.0260 C.2     1  UNL1        0.0500
     34  C         18.3270  -22.6450   -5.3630 C.2     1  UNL1        0.0460
     35  C         19.9070  -22.3970   -7.3260 C.3     1  UNL1        0.4170
     36  F         19.7620  -23.7410   -7.4910 F       1  UNL1       -0.1660
     37  F         21.2400  -22.1470   -7.4500 F       1  UNL1       -0.1660
     38  F         19.3170  -21.8200   -8.4080 F       1  UNL1       -0.1660
@<TRIPOS>BOND
     1     5     4    1
     2     5     3    1
     3     4     3    1
     4     7     8    1
     5     7     6    2
     6     8     9    2
     7     3     6    1
     8     3     2    1
     9     6    11    1
    10     2     1    3
    11    14    13    2
    12     9    12    1
    13     9    10    1
    14    13    12   am
    15    13    16    1
    16    12    15    1
    17    11    10    2
    18    16    17    1
    19    17    18    1
    20    18    19    2
    21    18    23    1
    22    38    35    1
    23    19    20    1
    24    23    22    2
    25    36    35    1
    26    37    35    1
    27    35    33    1
    28    20    21    2
    29    22    21    1
    30    21    24    1
    31    33    32    2
    32    33    34    1
    33    32    31    1
    34    34    29    2
    35    31    30    2
    36    24    25    2
    37    24    26    2
    38    24    27    1
    39    29    30    1
    40    29    27    1
    41    27    28    1
