@<TRIPOS>MOLECULE
27488_out_ligand_01.pdbqt
 40 42 0 0 0
SMALL
GASTEIGER

@<TRIPOS>ATOM
      1  C         22.0790  -22.9790   -8.5980 C.2     1  UNL1        0.0690
      2  C         21.3850  -22.0530   -7.8170 C.2     1  UNL1        0.0380
      3  C         20.0840  -22.3320   -7.3880 C.2     1  UNL1        0.0280
      4  C         19.4770  -23.5360   -7.7510 C.2     1  UNL1        0.0800
      5  C         20.1670  -24.4750   -8.5180 C.2     1  UNL1        0.0280
      6  C         21.4690  -24.1900   -8.9370 C.2     1  UNL1        0.0380
      7  O         23.3600  -22.8420   -9.0570 O.2     1  UNL1       -0.3420
      8  C         23.7440  -21.5810   -9.5960 C.3     1  UNL1        0.2780
      9  C         24.6950  -21.6460  -10.7980 C.2     1  UNL1        0.2460
     10  N         24.4290  -22.7140  -11.6370 N.am    1  UNL1       -0.3250
     11  H         23.6280  -23.2730  -11.3630 H       1  UNL1        0.1690
     12  O         25.5600  -20.7880  -10.9550 O.2     1  UNL1       -0.2710
     13  C         25.1340  -23.1190  -12.7910 C.2     1  UNL1        0.0420
     14  C         26.3320  -23.8520  -12.6340 C.2     1  UNL1       -0.0350
     15  C         27.0490  -24.2670  -13.7730 C.2     1  UNL1        0.0100
     16  C         26.8870  -24.2080  -11.2790 C.3     1  UNL1        0.0500
     17  C         26.5980  -23.9590  -15.0540 C.2     1  UNL1        0.0260
     18  C         25.4230  -23.2260  -15.1970 C.2     1  UNL1        0.0810
     19  C         24.6960  -22.8020  -14.0800 C.2     1  UNL1        0.0550
     20  S         24.8330  -22.7900  -16.8140 S.O2    1  UNL1        0.2580
     21  O         23.5360  -23.4010  -17.0030 O.2     1  UNL1       -0.2010
     22  O         25.9180  -22.9980  -17.7470 O.2     1  UNL1       -0.2010
     23  N         24.6100  -21.1330  -16.6860 N.3     1  UNL1       -0.3200
     24  C         24.9660  -20.2670  -17.8010 C.3     1  UNL1        0.1590
     25  H         23.8320  -20.8630  -16.0850 H       1  UNL1        0.1710
     26  S         17.8260  -23.8820   -7.2010 S.O2    1  UNL1        0.2630
     27  O         17.3640  -22.7180   -6.4760 O.2     1  UNL1       -0.2000
     28  O         17.7970  -25.1980   -6.5980 O.2     1  UNL1       -0.2000
     29  N         16.9540  -23.9110   -8.6480 N.pl3   1  UNL1       -0.2810
     30  H         16.8520  -24.8650   -8.9920 H       1  UNL1        0.1790
     31  C         17.1990  -22.8860   -9.5980 C.2     1  UNL1        0.0430
     32  C         16.1600  -22.0410   -9.9830 C.2     1  UNL1        0.0300
     33  C         16.3990  -21.0210  -10.9030 C.2     1  UNL1        0.0030
     34  C         17.6800  -20.8410  -11.4280 C.2     1  UNL1        0.0160
     35  C         18.7380  -21.6720  -11.0290 C.2     1  UNL1        0.0500
     36  C         18.4840  -22.7040  -10.1110 C.2     1  UNL1        0.0460
     37  C         20.1220  -21.4900  -11.6010 C.3     1  UNL1        0.4170
     38  F         20.1150  -20.9850  -12.8650 F       1  UNL1       -0.1660
     39  F         20.8750  -20.6320  -10.8580 F       1  UNL1       -0.1660
     40  F         20.8340  -22.6510  -11.6670 F       1  UNL1       -0.1660
@<TRIPOS>BOND
     1    24    23    1
     2    22    20    2
     3    21    20    2
     4    20    23    1
     5    20    18    1
     6    23    25    1
     7    18    17    2
     8    18    19    1
     9    17    15    1
    10    19    13    2
    11    15    14    2
    12    38    37    1
    13    13    14    1
    14    13    10    1
    15    14    16    1
    16    40    37    1
    17    10    11    1
    18    10     9   am
    19    37    35    1
    20    37    39    1
    21    34    35    2
    22    34    33    1
    23    35    36    1
    24    12     9    2
    25    33    32    2
    26     9     8    1
    27    36    31    2
    28    32    31    1
    29    31    29    1
    30     8     7    1
    31     7     1    1
    32    30    29    1
    33     6     1    2
    34     6     5    1
    35    29    26    1
    36     1     2    1
    37     5     4    2
    38     2     3    2
    39     4     3    1
    40     4    26    1
    41    26    28    2
    42    26    27    2
