@<TRIPOS>MOLECULE
27489_out_ligand_01.pdbqt
 40 42 0 0 0
SMALL
GASTEIGER

@<TRIPOS>ATOM
      1  C         21.9130  -23.2320   -8.5130 C.2     1  UNL1        0.0690
      2  C         21.2910  -22.2250   -7.7660 C.2     1  UNL1        0.0380
      3  C         19.9830  -22.3820   -7.3070 C.2     1  UNL1        0.0280
      4  C         19.2900  -23.5560   -7.6060 C.2     1  UNL1        0.0800
      5  C         19.9030  -24.5730   -8.3450 C.2     1  UNL1        0.0280
      6  C         21.2140  -24.4050   -8.8040 C.2     1  UNL1        0.0380
      7  O         23.2130  -22.9630   -8.8470 O.2     1  UNL1       -0.3420
      8  C         23.5260  -21.6960   -9.4120 C.3     1  UNL1        0.2780
      9  C         24.5200  -21.7080  -10.5820 C.2     1  UNL1        0.2460
     10  N         24.4180  -22.8430  -11.3690 N.am    1  UNL1       -0.3250
     11  H         23.6140  -23.4290  -11.1680 H       1  UNL1        0.1690
     12  O         25.2930  -20.7680  -10.7560 O.2     1  UNL1       -0.2710
     13  C         25.1640  -23.1480  -12.5280 C.2     1  UNL1        0.0420
     14  C         24.7200  -22.7790  -13.8020 C.2     1  UNL1        0.0550
     15  C         25.4410  -23.1560  -14.9370 C.2     1  UNL1        0.0810
     16  C         26.6410  -23.8590  -14.8170 C.2     1  UNL1        0.0260
     17  C         27.1140  -24.1880  -13.5500 C.2     1  UNL1        0.0100
     18  C         26.3900  -23.8370  -12.3940 C.2     1  UNL1       -0.0350
     19  C         26.9450  -24.2390  -11.0540 C.3     1  UNL1        0.0500
     20  S         24.8460  -22.6810  -16.5480 S.O2    1  UNL1        0.2600
     21  O         23.4240  -22.9560  -16.5810 O.2     1  UNL1       -0.2000
     22  O         25.7380  -23.2650  -17.5290 O.2     1  UNL1       -0.2000
     23  N         25.0510  -20.9890  -16.5580 N.3     1  UNL1       -0.3150
     24  C         25.1720  -20.3360  -17.8740 C.3     1  UNL1        0.1620
     25  C         25.9730  -20.4340  -15.5520 C.3     1  UNL1        0.1620
     26  S         17.6400  -23.7950   -6.9780 S.O2    1  UNL1        0.2630
     27  O         17.2990  -22.6380   -6.1770 O.2     1  UNL1       -0.2000
     28  O         17.5810  -25.1330   -6.4290 O.2     1  UNL1       -0.2000
     29  N         16.6980  -23.8190   -8.3760 N.pl3   1  UNL1       -0.2810
     30  H         16.4090  -24.7610   -8.6330 H       1  UNL1        0.1790
     31  C         16.9300  -22.8720   -9.4080 C.2     1  UNL1        0.0430
     32  C         15.8930  -22.0960   -9.9220 C.2     1  UNL1        0.0300
     33  C         16.1520  -21.1540  -10.9180 C.2     1  UNL1        0.0030
     34  C         17.4500  -20.9900  -11.4050 C.2     1  UNL1        0.0160
     35  C         18.5030  -21.7660  -10.8960 C.2     1  UNL1        0.0500
     36  C         18.2290  -22.7130   -9.8960 C.2     1  UNL1        0.0460
     37  C         19.9140  -21.6070  -11.4080 C.3     1  UNL1        0.4170
     38  F         19.9590  -20.9650  -12.6080 F       1  UNL1       -0.1660
     39  F         20.5320  -22.8050  -11.6010 F       1  UNL1       -0.1660
     40  F         20.7230  -20.8980  -10.5730 F       1  UNL1       -0.1660
@<TRIPOS>BOND
     1    24    23    1
     2    22    20    2
     3    21    20    2
     4    23    20    1
     5    23    25    1
     6    20    15    1
     7    15    16    2
     8    15    14    1
     9    16    17    1
    10    14    13    2
    11    17    18    2
    12    38    37    1
    13    13    18    1
    14    13    10    1
    15    18    19    1
    16    39    37    1
    17    37    35    1
    18    37    40    1
    19    34    33    2
    20    34    35    1
    21    10    11    1
    22    10     9   am
    23    33    32    1
    24    35    36    2
    25    12     9    2
    26     9     8    1
    27    32    31    2
    28    36    31    1
    29     8     7    1
    30    31    29    1
    31     7     1    1
    32     6     1    2
    33     6     5    1
    34    30    29    1
    35     1     2    1
    36    29    26    1
    37     5     4    2
    38     2     3    2
    39     4     3    1
    40     4    26    1
    41    26    28    2
    42    26    27    2
