@<TRIPOS>MOLECULE
2750_out_ligand_01.pdbqt
 33 37 0 0 0
SMALL
GASTEIGER

@<TRIPOS>ATOM
      1  C         20.4810  -21.9950  -10.3810 C.2     1  UNL1        0.0330
      2  C         19.4720  -21.3880  -11.1720 C.2     1  UNL1        0.0180
      3  C         18.1180  -21.6270  -10.9090 C.2     1  UNL1        0.0190
      4  C         17.8160  -22.4750   -9.8620 C.2     1  UNL1        0.0480
      5  C         18.8000  -23.0790   -9.0980 C.2     1  UNL1        0.0490
      6  C         20.1430  -22.8680   -9.3350 C.2     1  UNL1        0.0350
      7  C         18.1330  -23.9090   -8.0960 C.2     1  UNL1        0.2620
      8  O         18.7210  -24.5900   -7.2800 O.2     1  UNL1       -0.2670
      9  N         16.7910  -23.7560   -8.3010 N.am    1  UNL1       -0.2740
     10  C         16.5220  -22.9210   -9.3480 C.2     1  UNL1        0.2620
     11  O         15.4520  -22.5760   -9.8110 O.2     1  UNL1       -0.2670
     12  C         21.9240  -21.7600  -10.6640 C.2     1  UNL1        0.2560
     13  O         22.5580  -21.0850   -9.8650 O.2     1  UNL1       -0.2670
     14  N         22.3820  -22.3190  -11.8430 N.am    1  UNL1       -0.3230
     15  H         21.6920  -22.7320  -12.4560 H       1  UNL1        0.1690
     16  C         23.7040  -22.2970  -12.3400 C.2     1  UNL1        0.0370
     17  C         24.7760  -22.9320  -11.7190 C.2     1  UNL1        0.0290
     18  C         26.0470  -22.8700  -12.2860 C.2     1  UNL1        0.0040
     19  C         26.2580  -22.1730  -13.4780 C.2     1  UNL1        0.0300
     20  C         25.2060  -21.5250  -14.1320 C.2     1  UNL1        0.0390
     21  C         23.9300  -21.6010  -13.5420 C.2     1  UNL1        0.0590
     22  N         25.4070  -20.8060  -15.3450 N.am    1  UNL1       -0.3180
     23  C         26.0360  -19.5070  -15.3910 C.3     1  UNL1        0.1330
     24  C         26.3880  -19.3120  -16.8500 C.3     1  UNL1        0.0290
     25  C         25.2880  -20.0590  -17.5770 C.3     1  UNL1        0.1050
     26  C         24.9360  -21.1730  -16.6180 C.2     1  UNL1        0.2240
     27  O         24.3020  -22.1590  -16.9580 O.2     1  UNL1       -0.2730
     28  C         15.7710  -24.3860   -7.4920 C.3     1  UNL1        0.2000
     29  C         15.6280  -23.6390   -6.2140 C.2     1  UNL1        0.0700
     30  C         15.0160  -22.4480   -5.8780 C.2     1  UNL1        0.0360
     31  C         15.2290  -22.2680   -4.4910 C.2     1  UNL1        0.0270
     32  C         15.9550  -23.3560   -4.0700 C.2     1  UNL1        0.1420
     33  O         16.2020  -24.1940   -5.1100 O.2     1  UNL1       -0.3250
@<TRIPOS>BOND
     1    25    24    1
     2    25    26    1
     3    27    26    2
     4    24    23    1
     5    26    22   am
     6    23    22    1
     7    22    20    1
     8    20    21    1
     9    20    19    2
    10    21    16    2
    11    19    18    1
    12    15    14    1
    13    16    14    1
    14    16    17    1
    15    18    17    2
    16    14    12   am
    17     2     3    1
    18     2     1    2
    19     3     4    2
    20    12     1    1
    21    12    13    2
    22     1     6    1
    23     4    10    1
    24     4     5    1
    25    11    10    2
    26    10     9   am
    27     6     5    2
    28     5     7    1
    29     9     7   am
    30     9    28    1
    31     7     8    2
    32    28    29    1
    33    29    30    2
    34    29    33    1
    35    30    31    1
    36    33    32    1
    37    31    32    2
