@<TRIPOS>MOLECULE
27516_out_ligand_01.pdbqt
 33 35 0 0 0
SMALL
GASTEIGER

@<TRIPOS>ATOM
      1  C         19.9340  -21.7950  -11.0040 C.2     1  UNL1       -0.0580
      2  C         18.7660  -21.1590  -11.4510 C.2     1  UNL1        0.0090
      3  C         17.5220  -21.5280  -10.9440 C.2     1  UNL1        0.0260
      4  C         17.4440  -22.5350   -9.9770 C.2     1  UNL1        0.0790
      5  C         18.5960  -23.1860   -9.5290 C.2     1  UNL1        0.0260
      6  C         19.8370  -22.8130  -10.0420 C.2     1  UNL1        0.0090
      7  C         21.2780  -21.4250  -11.5920 C.3     1  UNL1        0.0480
      8  C         22.3100  -22.5400  -11.4090 C.3     1  UNL1        0.1080
      9  C         23.6160  -22.0080  -10.8260 C.2     1  UNL1        0.2240
     10  N         24.6490  -21.6640  -11.7000 N.am    1  UNL1       -0.3220
     11  C         25.7120  -20.8230  -11.1590 C.3     1  UNL1        0.1590
     12  O         23.7200  -21.8510   -9.6040 O.2     1  UNL1       -0.2730
     13  C         24.7270  -22.0200  -13.0780 C.2     1  UNL1        0.0370
     14  C         24.4280  -21.0950  -14.0810 C.2     1  UNL1        0.0300
     15  C         24.4770  -21.4630  -15.4280 C.2     1  UNL1        0.0090
     16  C         24.8180  -22.7690  -15.8060 C.2     1  UNL1       -0.0560
     17  C         24.8540  -23.1290  -17.2660 C.3     1  UNL1        0.0490
     18  C         25.1090  -23.7150  -14.8070 C.2     1  UNL1       -0.0540
     19  C         25.0500  -23.3320  -13.4560 C.2     1  UNL1        0.0370
     20  C         25.4820  -25.1330  -15.1520 C.3     1  UNL1        0.0490
     21  S         15.8550  -22.9990   -9.3390 S.O2    1  UNL1        0.2590
     22  O         14.8570  -22.2380  -10.0550 O.2     1  UNL1       -0.2010
     23  O         15.7990  -24.4420   -9.2600 O.2     1  UNL1       -0.2010
     24  N         15.8800  -22.4110   -7.7810 N.3     1  UNL1       -0.3070
     25  H         15.8960  -21.3990   -7.6870 H       1  UNL1        0.1730
     26  C         16.3420  -23.2440   -6.6720 C.3     1  UNL1        0.1220
     27  C         15.1160  -23.7820   -5.9300 C.3     1  UNL1        0.0380
     28  C         17.2710  -22.4580   -5.7660 C.2     1  UNL1       -0.0350
     29  C         18.3490  -21.7460   -6.3180 C.2     1  UNL1        0.0090
     30  C         19.1920  -20.9840   -5.5080 C.2     1  UNL1        0.0010
     31  C         18.9730  -20.9240   -4.1320 C.2     1  UNL1        0.0000
     32  C         17.9080  -21.6230   -3.5680 C.2     1  UNL1        0.0010
     33  C         17.0600  -22.3810   -4.3780 C.2     1  UNL1        0.0090
@<TRIPOS>BOND
     1    17    16    1
     2    16    15    2
     3    16    18    1
     4    15    14    1
     5    20    18    1
     6    18    19    2
     7    14    13    2
     8    19    13    1
     9    13    10    1
    10    10    11    1
    11    10     9   am
    12     7     8    1
    13     7     1    1
    14     2     1    2
    15     2     3    1
    16     8     9    1
    17     1     6    1
    18     3     4    2
    19     9    12    2
    20    22    21    2
    21     6     5    2
    22     4     5    1
    23     4    21    1
    24    21    23    2
    25    21    24    1
    26    24    25    1
    27    24    26    1
    28    26    27    1
    29    26    28    1
    30    29    28    2
    31    29    30    1
    32    28    33    1
    33    30    31    2
    34    33    32    2
    35    31    32    1
