@<TRIPOS>MOLECULE
27517_out_ligand_01.pdbqt
 40 43 0 0 0
SMALL
GASTEIGER

@<TRIPOS>ATOM
      1  C         22.9830  -23.3290   -9.2550 C.3     1  UNL1        0.0470
      2  C         21.6180  -23.3790   -8.6010 C.2     1  UNL1       -0.0580
      3  C         20.8430  -24.5500   -8.6430 C.2     1  UNL1        0.0090
      4  C         19.5970  -24.5950   -8.0120 C.2     1  UNL1        0.0260
      5  C         19.1180  -23.4600   -7.3520 C.2     1  UNL1        0.0790
      6  C         19.8890  -22.2960   -7.2850 C.2     1  UNL1        0.0260
      7  C         21.1320  -22.2570   -7.9150 C.2     1  UNL1        0.0090
      8  S         17.5420  -23.4910   -6.5370 S.O2    1  UNL1        0.2590
      9  O         17.5570  -22.4300   -5.5520 O.2     1  UNL1       -0.2010
     10  O         17.2370  -24.8590   -6.1730 O.2     1  UNL1       -0.2010
     11  N         16.4660  -23.0130   -7.7310 N.3     1  UNL1       -0.3070
     12  H         16.1190  -22.0620   -7.6120 H       1  UNL1        0.1730
     13  C         16.6060  -23.5270   -9.1020 C.3     1  UNL1        0.1220
     14  C         15.2060  -23.9000   -9.6040 C.3     1  UNL1        0.0380
     15  C         17.2680  -22.5480  -10.0530 C.2     1  UNL1       -0.0350
     16  C         16.6830  -21.3090  -10.3720 C.2     1  UNL1        0.0090
     17  C         17.3290  -20.4120  -11.2260 C.2     1  UNL1        0.0010
     18  C         18.5590  -20.7490  -11.7880 C.2     1  UNL1        0.0000
     19  C         19.1420  -21.9820  -11.5020 C.2     1  UNL1        0.0010
     20  C         18.5020  -22.8740  -10.6380 C.2     1  UNL1        0.0090
     21  C         23.4120  -21.9010   -9.5890 C.3     1  UNL1        0.1070
     22  C         24.6590  -21.8610  -10.4520 C.2     1  UNL1        0.2170
     23  O         25.2850  -20.8350  -10.6940 O.2     1  UNL1       -0.2740
     24  N         24.9840  -23.0860  -10.9920 N.am    1  UNL1       -0.3600
     25  H         24.5830  -23.9040  -10.5430 H       1  UNL1        0.1620
     26  C         26.2720  -23.3070  -11.6290 C.3     1  UNL1        0.1420
     27  C         26.1440  -23.8690  -13.0550 C.3     1  UNL1        0.1390
     28  N         25.0060  -23.3100  -13.8010 N.pl3   1  UNL1       -0.3880
     29  H         24.1920  -23.9130  -13.7180 H       1  UNL1        0.1590
     30  C         25.1440  -22.7090  -15.0600 C.2     1  UNL1        0.0420
     31  C         24.9970  -23.4470  -16.2360 C.2     1  UNL1        0.0490
     32  C         25.1520  -22.8140  -17.4530 C.2     1  UNL1        0.1190
     33  N         25.4650  -21.5130  -17.5880 N.2     1  UNL1       -0.2600
     34  C         25.6740  -20.7970  -16.4770 C.2     1  UNL1        0.0700
     35  C         26.0360  -19.4670  -16.6350 C.2     1  UNL1        0.0560
     36  C         25.5460  -21.3420  -15.1740 C.2     1  UNL1        0.0190
     37  C         26.2910  -18.6520  -15.5370 C.2     1  UNL1        0.0360
     38 CL         26.7490  -17.0110  -15.7720 Cl      1  UNL1       -0.0840
     39  C         26.1920  -19.1610  -14.2510 C.2     1  UNL1        0.0250
     40  C         25.8240  -20.4940  -14.0710 C.2     1  UNL1        0.0180
@<TRIPOS>BOND
     1    33    32    2
     2    33    34    1
     3    32    31    1
     4    35    34    2
     5    35    37    1
     6    34    36    1
     7    31    30    2
     8    38    37    1
     9    37    39    2
    10    36    30    1
    11    36    40    2
    12    30    28    1
    13    39    40    1
    14    28    29    1
    15    28    27    1
    16    27    26    1
    17    18    19    2
    18    18    17    1
    19    26    24    1
    20    19    20    1
    21    17    16    2
    22    24    25    1
    23    24    22   am
    24    23    22    2
    25    20    15    2
    26    22    21    1
    27    16    15    1
    28    15    13    1
    29    14    13    1
    30    21     1    1
    31     1     2    1
    32    13    11    1
    33     3     2    2
    34     3     4    1
    35     2     7    1
    36     4     5    2
    37     7     6    2
    38    11    12    1
    39    11     8    1
    40     5     6    1
    41     5     8    1
    42     8    10    2
    43     8     9    2
