@<TRIPOS>MOLECULE
27521_out_ligand_01.pdbqt
 33 36 0 0 0
SMALL
GASTEIGER

@<TRIPOS>ATOM
      1  C         21.0230  -22.5030   -7.9180 C.2     1  UNL1       -0.0580
      2  C         20.4290  -21.5500   -7.0700 C.2     1  UNL1        0.0090
      3  C         19.2150  -21.8250   -6.4370 C.2     1  UNL1        0.0250
      4  C         18.5860  -23.0570   -6.6590 C.2     1  UNL1        0.0740
      5  C         19.1720  -24.0230   -7.4880 C.2     1  UNL1        0.0250
      6  C         20.3850  -23.7410   -8.1190 C.2     1  UNL1        0.0090
      7  C         22.3250  -22.1940   -8.6160 C.3     1  UNL1        0.0480
      8  C         22.6710  -23.2460   -9.6670 C.3     1  UNL1        0.1080
      9  C         24.1490  -23.5390   -9.6580 C.2     1  UNL1        0.2240
     10  O         24.6380  -24.0290   -8.6330 O.2     1  UNL1       -0.2730
     11  N         24.9360  -23.3150  -10.7670 N.am    1  UNL1       -0.3170
     12  C         26.3570  -23.6970  -10.6980 C.3     1  UNL1        0.1370
     13  C         24.7130  -22.6780  -12.0040 C.2     1  UNL1        0.0430
     14  C         26.9600  -23.5100  -12.0860 C.3     1  UNL1        0.0610
     15  C         25.8800  -22.7430  -12.7770 C.2     1  UNL1       -0.0280
     16  C         25.9640  -22.1810  -14.0480 C.2     1  UNL1        0.0280
     17  C         24.8380  -21.5400  -14.5510 C.2     1  UNL1        0.0110
     18 BR         24.8910  -20.7660  -16.2740 Br      1  UNL1       -0.0510
     19  C         23.6620  -21.4660  -13.7970 C.2     1  UNL1        0.0210
     20  C         23.5980  -22.0350  -12.5140 C.2     1  UNL1        0.0310
     21  S         17.0480  -23.4050   -5.8480 S.O2    1  UNL1        0.2410
     22  O         16.5840  -22.1920   -5.2160 O.2     1  UNL1       -0.2060
     23  O         17.1840  -24.6510   -5.1220 O.2     1  UNL1       -0.2060
     24  N         16.0540  -23.7770   -7.1630 N.3     1  UNL1       -0.2150
     25  H         15.1870  -24.1970   -6.8260 H       1  UNL1        0.1390
     26  C         15.8780  -22.7430   -8.2040 C.3     1  UNL1        0.1090
     27  C         16.2270  -23.3080   -9.5850 C.3     1  UNL1        0.0540
     28  C         17.2170  -22.4410  -10.3230 C.2     1  UNL1       -0.0570
     29  C         16.8560  -21.1620  -10.7620 C.2     1  UNL1        0.0070
     30  C         17.7770  -20.3610  -11.4450 C.2     1  UNL1        0.0010
     31  C         19.0630  -20.8370  -11.6980 C.2     1  UNL1        0.0000
     32  C         19.4260  -22.1140  -11.2790 C.2     1  UNL1        0.0010
     33  C         18.5080  -22.9140  -10.5930 C.2     1  UNL1        0.0070
@<TRIPOS>BOND
     1    18    17    1
     2    17    16    2
     3    17    19    1
     4    16    15    1
     5    19    20    2
     6    15    14    1
     7    15    13    2
     8    20    13    1
     9    14    12    1
    10    13    11    1
    11    31    30    2
    12    31    32    1
    13    30    29    1
    14    32    33    2
    15    11    12    1
    16    11     9   am
    17    29    28    2
    18    33    28    1
    19    28    27    1
    20     8     9    1
    21     8     7    1
    22     9    10    2
    23    27    26    1
    24     7     1    1
    25    26    24    1
    26     6     1    2
    27     6     5    1
    28     1     2    1
    29     5     4    2
    30    24    25    1
    31    24    21    1
    32     2     3    2
    33     4     3    1
    34     4    21    1
    35    21    22    2
    36    21    23    2
