@<TRIPOS>MOLECULE
27520_out_ligand_01.pdbqt
 33 36 0 0 0
SMALL
GASTEIGER

@<TRIPOS>ATOM
      1  C         20.9120  -22.5990   -7.9230 C.2     1  UNL1       -0.0580
      2  C         20.2710  -23.8380   -8.0820 C.2     1  UNL1        0.0090
      3  C         19.0610  -24.0990   -7.4360 C.2     1  UNL1        0.0260
      4  C         18.4970  -23.1170   -6.6190 C.2     1  UNL1        0.0790
      5  C         19.1360  -21.8900   -6.4290 C.2     1  UNL1        0.0260
      6  C         20.3420  -21.6330   -7.0840 C.2     1  UNL1        0.0090
      7  C         22.2070  -22.3210   -8.6440 C.3     1  UNL1        0.0480
      8  C         22.6890  -23.5200   -9.4550 C.3     1  UNL1        0.1080
      9  C         24.1710  -23.4000   -9.7020 C.2     1  UNL1        0.2250
     10  N         24.6700  -22.8050  -10.8430 N.am    1  UNL1       -0.3130
     11  C         24.0590  -22.1370  -11.9280 C.2     1  UNL1        0.0440
     12  C         26.1370  -22.8170  -11.0770 C.3     1  UNL1        0.0930
     13  C         22.7270  -21.9620  -12.2660 C.2     1  UNL1        0.0300
     14  C         25.0490  -21.5820  -12.7500 C.2     1  UNL1       -0.0290
     15  C         22.4030  -21.2600  -13.4370 C.2     1  UNL1        0.0020
     16  C         23.4070  -20.7270  -14.2540 C.2     1  UNL1        0.0010
     17  C         24.7430  -20.8770  -13.9070 C.2     1  UNL1        0.0090
     18  C         26.4170  -21.7820  -12.1750 C.3     1  UNL1        0.0660
     19  C         26.6170  -24.2100  -11.5070 C.3     1  UNL1        0.0330
     20  O         24.9330  -23.8890   -8.8570 O.2     1  UNL1       -0.2730
     21  S         16.9460  -23.4130   -5.8140 S.O2    1  UNL1        0.2580
     22  O         16.4920  -22.1550   -5.2660 O.2     1  UNL1       -0.2010
     23  O         17.0550  -24.6070   -5.0020 O.2     1  UNL1       -0.2010
     24  N         15.9430  -23.7600   -7.1050 N.3     1  UNL1       -0.3150
     25  H         15.8640  -24.7520   -7.3270 H       1  UNL1        0.1720
     26  C         15.7360  -22.7780   -8.1750 C.3     1  UNL1        0.1370
     27  C         16.1320  -23.3400   -9.5430 C.3     1  UNL1        0.0580
     28  C         17.1160  -22.4630  -10.2830 C.2     1  UNL1       -0.0570
     29  C         18.4060  -22.9330  -10.5640 C.2     1  UNL1        0.0070
     30  C         19.3120  -22.1370  -11.2640 C.2     1  UNL1        0.0010
     31  C         18.9370  -20.8650  -11.6900 C.2     1  UNL1        0.0000
     32  C         17.6550  -20.3890  -11.4190 C.2     1  UNL1        0.0010
     33  C         16.7470  -21.1830  -10.7190 C.2     1  UNL1        0.0070
@<TRIPOS>BOND
     1    16    17    2
     2    16    15    1
     3    17    14    1
     4    15    13    2
     5    14    18    1
     6    14    11    2
     7    13    11    1
     8    18    12    1
     9    11    10    1
    10    31    32    2
    11    31    30    1
    12    19    12    1
    13    32    33    1
    14    30    29    2
    15    12    10    1
    16    10     9   am
    17    33    28    2
    18    29    28    1
    19    28    27    1
    20     9     8    1
    21     9    20    2
    22    27    26    1
    23     8     7    1
    24     7     1    1
    25    26    24    1
    26     2     1    2
    27     2     3    1
    28     1     6    1
    29     3     4    2
    30    25    24    1
    31    24    21    1
    32     6     5    2
    33     4     5    1
    34     4    21    1
    35    21    22    2
    36    21    23    2
