@<TRIPOS>MOLECULE
27530_out_ligand_01.pdbqt
 33 36 0 0 0
SMALL
GASTEIGER

@<TRIPOS>ATOM
      1  C         21.0450  -22.2710   -7.6300 C.2     1  UNL1       -0.0580
      2  C         20.2520  -21.4600   -6.8040 C.2     1  UNL1        0.0090
      3  C         18.9850  -21.8870   -6.4020 C.2     1  UNL1        0.0250
      4  C         18.5130  -23.1340   -6.8210 C.2     1  UNL1        0.0740
      5  C         19.3000  -23.9630   -7.6260 C.2     1  UNL1        0.0250
      6  C         20.5600  -23.5250   -8.0350 C.2     1  UNL1        0.0090
      7  C         22.4180  -21.8130   -8.0570 C.3     1  UNL1        0.0480
      8  C         22.6470  -22.0370   -9.5500 C.3     1  UNL1        0.1080
      9  C         23.7970  -22.9940   -9.8130 C.2     1  UNL1        0.2240
     10  O         24.0660  -23.8280   -8.9370 O.2     1  UNL1       -0.2730
     11  N         24.6000  -22.8680  -10.9440 N.am    1  UNL1       -0.3130
     12  C         25.9800  -23.3300  -10.7710 C.3     1  UNL1        0.1590
     13  C         24.3260  -22.1620  -12.1560 C.2     1  UNL1        0.0700
     14  C         26.8060  -23.2680  -12.0420 C.3     1  UNL1        0.1960
     15  O         26.7190  -21.9660  -12.6290 O.2     1  UNL1       -0.3470
     16  C         25.4050  -21.6930  -12.9360 C.2     1  UNL1        0.0950
     17  C         25.1980  -20.9090  -14.0730 C.2     1  UNL1        0.0390
     18  C         23.9010  -20.6490  -14.5050 C.2     1  UNL1        0.0030
     19  C         22.8230  -21.1880  -13.8070 C.2     1  UNL1        0.0020
     20  C         23.0360  -21.9490  -12.6490 C.2     1  UNL1        0.0330
     21  S         16.9230  -23.7020   -6.2800 S.O2    1  UNL1        0.2410
     22  O         16.8660  -25.1330   -6.4810 O.2     1  UNL1       -0.2060
     23  O         16.6320  -23.0980   -5.0000 O.2     1  UNL1       -0.2060
     24  N         15.9070  -22.9430   -7.4000 N.3     1  UNL1       -0.2150
     25  H         14.9530  -22.9430   -7.0280 H       1  UNL1        0.1390
     26  C         15.9410  -23.4590   -8.7930 C.3     1  UNL1        0.1090
     27  C         15.8230  -22.3450   -9.8400 C.3     1  UNL1        0.0540
     28  C         17.1430  -22.0110  -10.4980 C.2     1  UNL1       -0.0570
     29  C         18.1700  -22.9620  -10.5600 C.2     1  UNL1        0.0070
     30  C         19.3970  -22.6450  -11.1460 C.2     1  UNL1        0.0010
     31  C         19.6060  -21.3760  -11.6810 C.2     1  UNL1        0.0000
     32  C         18.5910  -20.4240  -11.6290 C.2     1  UNL1        0.0010
     33  C         17.3650  -20.7380  -11.0400 C.2     1  UNL1        0.0070
@<TRIPOS>BOND
     1    18    17    2
     2    18    19    1
     3    17    16    1
     4    19    20    2
     5    16    15    1
     6    16    13    2
     7    20    13    1
     8    15    14    1
     9    13    11    1
    10    14    12    1
    11    31    32    2
    12    31    30    1
    13    32    33    1
    14    30    29    2
    15    33    28    2
    16    11    12    1
    17    11     9   am
    18    29    28    1
    19    28    27    1
    20    27    26    1
    21     9     8    1
    22     9    10    2
    23     8     7    1
    24    26    24    1
    25     7     1    1
    26     6     1    2
    27     6     5    1
    28     1     2    1
    29     5     4    2
    30    24    25    1
    31    24    21    1
    32     4     3    1
    33     4    21    1
    34     2     3    2
    35    22    21    2
    36    21    23    2
