@<TRIPOS>MOLECULE
27535_out_ligand_01.pdbqt
 33 36 0 0 0
SMALL
GASTEIGER

@<TRIPOS>ATOM
      1  C         21.5940  -22.9390   -9.9770 C.2     1  UNL1        0.0800
      2  C         20.9460  -23.9840   -9.3200 C.2     1  UNL1        0.0280
      3  C         19.5620  -24.1300   -9.4500 C.2     1  UNL1        0.0390
      4  C         18.8260  -23.2420  -10.2440 C.2     1  UNL1        0.0750
      5  C         19.4870  -22.1930  -10.9140 C.2     1  UNL1       -0.0270
      6  C         18.7220  -21.2220  -11.7720 C.3     1  UNL1        0.0510
      7  C         20.8770  -22.0520  -10.7810 C.2     1  UNL1        0.0340
      8  O         17.4710  -23.2980  -10.4410 O.2     1  UNL1       -0.3420
      9  C         16.6190  -23.3270   -9.3090 C.3     1  UNL1        0.2780
     10  C         17.0290  -22.4790   -8.0880 C.2     1  UNL1        0.2480
     11  O         17.5450  -21.3790   -8.3090 O.2     1  UNL1       -0.2710
     12  N         16.7530  -22.9980   -6.8170 N.am    1  UNL1       -0.3110
     13  C         15.9330  -24.2020   -6.6310 C.3     1  UNL1        0.1590
     14  C         17.3200  -22.4780   -5.5960 C.2     1  UNL1        0.0700
     15  C         15.1450  -24.1330   -5.3360 C.3     1  UNL1        0.1960
     16  O         16.0200  -24.0540   -4.2150 O.2     1  UNL1       -0.3470
     17  C         16.9440  -23.0450   -4.3560 C.2     1  UNL1        0.0950
     18  C         17.5200  -22.6200   -3.1540 C.2     1  UNL1        0.0390
     19  C         18.4660  -21.6030   -3.1540 C.2     1  UNL1        0.0030
     20  C         18.8430  -21.0200   -4.3590 C.2     1  UNL1        0.0020
     21  C         18.2780  -21.4560   -5.5660 C.2     1  UNL1        0.0330
     22  S         23.3530  -22.7610   -9.8160 S.O2    1  UNL1        0.2630
     23  O         23.6350  -21.3450   -9.6950 O.2     1  UNL1       -0.2000
     24  O         23.8330  -23.6990   -8.8250 O.2     1  UNL1       -0.2000
     25  N         23.9120  -23.2150  -11.3470 N.pl3   1  UNL1       -0.2810
     26  H         23.2480  -23.8420  -11.7990 H       1  UNL1        0.1790
     27  C         24.5190  -22.2160  -12.1550 C.2     1  UNL1        0.0420
     28  C         23.8100  -21.6450  -13.2110 C.2     1  UNL1        0.0300
     29  C         24.3990  -20.6390  -13.9790 C.2     1  UNL1        0.0090
     30  C         25.7000  -20.2010  -13.6990 C.2     1  UNL1       -0.0620
     31  C         26.3150  -19.0950  -14.5030 C.3     1  UNL1        0.0480
     32  C         26.3930  -20.7670  -12.6220 C.2     1  UNL1        0.0090
     33  C         25.8040  -21.7730  -11.8530 C.2     1  UNL1        0.0300
@<TRIPOS>BOND
     1    31    30    1
     2    29    30    2
     3    29    28    1
     4    30    32    1
     5    28    27    2
     6    32    33    2
     7    27    33    1
     8    27    25    1
     9    26    25    1
    10     6     5    1
    11    25    22    1
    12     5     7    1
    13     5     4    2
    14     7     1    2
    15     8     4    1
    16     8     9    1
    17     4     3    1
    18     1    22    1
    19     1     2    1
    20    22    23    2
    21    22    24    2
    22     3     2    2
    23     9    10    1
    24    11    10    2
    25    10    12   am
    26    12    13    1
    27    12    14    1
    28    13    15    1
    29    14    21    2
    30    14    17    1
    31    21    20    1
    32    15    16    1
    33    20    19    2
    34    17    16    1
    35    17    18    2
    36    19    18    1
