@<TRIPOS>MOLECULE
27567_out_ligand_01.pdbqt
 30 32 0 0 0
SMALL
GASTEIGER

@<TRIPOS>ATOM
      1  C         21.8480  -22.9320   -8.6100 C.2     1  UNL1        0.0790
      2  C         21.4320  -21.8740   -7.7980 C.2     1  UNL1        0.0260
      3  C         20.2420  -21.9870   -7.0790 C.2     1  UNL1        0.0090
      4  C         19.4600  -23.1480   -7.1740 C.2     1  UNL1       -0.0580
      5  C         19.8810  -24.1930   -8.0090 C.2     1  UNL1        0.0090
      6  C         21.0700  -24.0860   -8.7310 C.2     1  UNL1        0.0260
      7  S         23.3580  -22.7810   -9.5370 S.O2    1  UNL1        0.2630
      8  O         24.3000  -23.7380   -8.9910 O.2     1  UNL1       -0.2000
      9  O         23.6940  -21.3760   -9.6300 O.2     1  UNL1       -0.2000
     10  N         22.9310  -23.3650  -11.0640 N.pl3   1  UNL1       -0.2810
     11  H         21.9770  -23.7200  -11.0770 H       1  UNL1        0.1790
     12  C         23.3960  -22.6800  -12.2210 C.2     1  UNL1        0.0420
     13  C         24.6550  -22.9900  -12.7340 C.2     1  UNL1        0.0300
     14  C         25.1130  -22.3550  -13.8910 C.2     1  UNL1        0.0090
     15  C         24.3200  -21.3970  -14.5350 C.2     1  UNL1       -0.0620
     16  C         24.7970  -20.7400  -15.7970 C.3     1  UNL1        0.0480
     17  C         23.0530  -21.1010  -14.0180 C.2     1  UNL1        0.0090
     18  C         22.5950  -21.7370  -12.8630 C.2     1  UNL1        0.0300
     19  C         18.1540  -23.2530   -6.4180 C.3     1  UNL1        0.0480
     20  C         16.9940  -22.5840   -7.1610 C.3     1  UNL1        0.1080
     21  C         16.2120  -23.5740   -8.0170 C.2     1  UNL1        0.2240
     22  O         15.6000  -24.5020   -7.4770 O.2     1  UNL1       -0.2730
     23  N         16.1720  -23.3720   -9.4000 N.am    1  UNL1       -0.3220
     24  C         15.1160  -24.0580  -10.1390 C.3     1  UNL1        0.1590
     25  C         17.0530  -22.5340  -10.1460 C.2     1  UNL1        0.0360
     26  C         18.3360  -22.9660  -10.5080 C.2     1  UNL1        0.0290
     27  C         19.1850  -22.1490  -11.2610 C.2     1  UNL1        0.0020
     28  C         18.7580  -20.8910  -11.6740 C.2     1  UNL1        0.0000
     29  C         17.4780  -20.4550  -11.3460 C.2     1  UNL1        0.0020
     30  C         16.6290  -21.2750  -10.5950 C.2     1  UNL1        0.0290
@<TRIPOS>BOND
     1    16    15    1
     2    15    17    2
     3    15    14    1
     4    17    18    1
     5    14    13    2
     6    18    12    2
     7    13    12    1
     8    12    10    1
     9    28    29    2
    10    28    27    1
    11    29    30    1
    12    27    26    2
    13    11    10    1
    14    10     7    1
    15    30    25    2
    16    26    25    1
    17    25    23    1
    18    24    23    1
    19     9     7    2
    20     7     8    2
    21     7     1    1
    22    23    21   am
    23     6     1    2
    24     6     5    1
    25     1     2    1
    26    21    22    2
    27    21    20    1
    28     5     4    2
    29     2     3    2
    30     4     3    1
    31     4    19    1
    32    20    19    1
