@<TRIPOS>MOLECULE
27569_out_ligand_01.pdbqt
 31 33 0 0 0
SMALL
GASTEIGER

@<TRIPOS>ATOM
      1  C         21.9200  -23.0050   -8.6790 C.2     1  UNL1        0.0790
      2  C         21.1870  -24.1890   -8.7740 C.2     1  UNL1        0.0260
      3  C         19.9960  -24.3190   -8.0580 C.2     1  UNL1        0.0090
      4  C         19.5280  -23.2670   -7.2580 C.2     1  UNL1       -0.0580
      5  C         20.2680  -22.0770   -7.1870 C.2     1  UNL1        0.0090
      6  C         21.4610  -21.9420   -7.8970 C.2     1  UNL1        0.0260
      7  C         18.2180  -23.3990   -6.5120 C.3     1  UNL1        0.0480
      8  C         17.1770  -22.3790   -6.9830 C.3     1  UNL1        0.1080
      9  C         16.0170  -23.0410   -7.7200 C.2     1  UNL1        0.2240
     10  O         15.0540  -23.4750   -7.0790 O.2     1  UNL1       -0.2730
     11  N         16.1000  -23.1790   -9.1080 N.am    1  UNL1       -0.3220
     12  C         15.2120  -24.1560   -9.7300 C.3     1  UNL1        0.1590
     13  C         16.9890  -22.4630   -9.9660 C.2     1  UNL1        0.0360
     14  C         16.6370  -21.2120  -10.4970 C.2     1  UNL1        0.0330
     15  C         17.5010  -20.5300  -11.3580 C.2     1  UNL1        0.0440
     16  C         18.7170  -21.1010  -11.7030 C.2     1  UNL1        0.1160
     17  F         19.5450  -20.4470  -12.5290 F       1  UNL1       -0.2060
     18  C         19.0800  -22.3470  -11.2130 C.2     1  UNL1        0.0440
     19  C         18.2140  -23.0310  -10.3550 C.2     1  UNL1        0.0330
     20  S         23.4250  -22.8240   -9.6000 S.O2    1  UNL1        0.2630
     21  O         24.3720  -23.7870   -9.0740 O.2     1  UNL1       -0.2000
     22  O         23.7670  -21.4190   -9.6770 O.2     1  UNL1       -0.2000
     23  N         22.9960  -23.3900  -11.1350 N.pl3   1  UNL1       -0.2810
     24  H         23.0400  -24.4070  -11.1660 H       1  UNL1        0.1790
     25  C         23.4850  -22.6810  -12.2650 C.2     1  UNL1        0.0420
     26  C         24.7610  -22.9560  -12.7520 C.2     1  UNL1        0.0300
     27  C         25.2330  -22.2870  -13.8830 C.2     1  UNL1        0.0090
     28  C         24.4260  -21.3510  -14.5420 C.2     1  UNL1       -0.0620
     29  C         24.9440  -20.6120  -15.7390 C.3     1  UNL1        0.0480
     30  C         23.1480  -21.0780  -14.0380 C.2     1  UNL1        0.0090
     31  C         22.6740  -21.7470  -12.9060 C.2     1  UNL1        0.0300
@<TRIPOS>BOND
     1    29    28    1
     2    28    30    2
     3    28    27    1
     4    30    31    1
     5    27    26    2
     6    31    25    2
     7    26    25    1
     8    17    16    1
     9    25    23    1
    10    16    15    2
    11    16    18    1
    12    15    14    1
    13    18    19    2
    14    24    23    1
    15    23    20    1
    16    14    13    2
    17    19    13    1
    18    13    11    1
    19    12    11    1
    20    22    20    2
    21    20    21    2
    22    20     1    1
    23    11     9   am
    24     2     1    2
    25     2     3    1
    26     1     6    1
    27     3     4    2
    28     6     5    2
    29     9    10    2
    30     9     8    1
    31     4     5    1
    32     4     7    1
    33     8     7    1
