@<TRIPOS>MOLECULE
27560_out_ligand_01.pdbqt
 33 35 0 0 0
SMALL
GASTEIGER

@<TRIPOS>ATOM
      1  C         23.3940  -23.1220   -9.0390 C.3     1  UNL1        0.1080
      2  C         24.0760  -22.4180  -10.2130 C.2     1  UNL1        0.2240
      3  N         23.2490  -22.0910  -11.2960 N.am    1  UNL1       -0.3120
      4  C         21.7810  -22.1350  -11.1960 C.3     1  UNL1        0.1750
      5  C         23.7420  -21.7630  -12.6090 C.2     1  UNL1        0.0700
      6  C         21.1330  -21.0760  -12.0780 C.3     1  UNL1        0.2460
      7  O         21.4730  -21.3000  -13.4430 O.2     1  UNL1       -0.3320
      8  C         22.8310  -21.4050  -13.6260 C.2     1  UNL1        0.0970
      9  C         23.2580  -21.1520  -14.9340 C.2     1  UNL1        0.0390
     10  C         24.6090  -21.2260  -15.2530 C.2     1  UNL1        0.0030
     11  C         25.5270  -21.5650  -14.2670 C.2     1  UNL1        0.0020
     12  C         25.0980  -21.8370  -12.9610 C.2     1  UNL1        0.0330
     13  O         25.2710  -22.1330  -10.1380 O.2     1  UNL1       -0.2730
     14  C         19.6200  -21.1270  -11.9040 C.2     1  UNL1        0.2890
     15  O         18.8290  -20.3720  -12.4570 O.2     1  UNL1       -0.2620
     16  O         19.2600  -22.1620  -11.0900 O.3     1  UNL1       -0.3240
     17  C         17.8760  -22.1790  -10.7380 C.3     1  UNL1        0.2130
     18  C         22.6360  -22.1600   -8.1190 C.3     1  UNL1        0.0480
     19  C         21.2170  -22.6130   -7.8550 C.2     1  UNL1       -0.0580
     20  C         20.7530  -23.8310   -8.3730 C.2     1  UNL1        0.0090
     21  C         19.4510  -24.2610   -8.1130 C.2     1  UNL1        0.0260
     22  C         18.6050  -23.4660   -7.3370 C.2     1  UNL1        0.0790
     23  C         19.0610  -22.2620   -6.7930 C.2     1  UNL1        0.0260
     24  C         20.3620  -21.8360   -7.0590 C.2     1  UNL1        0.0090
     25  S         16.9530  -24.0020   -6.9840 S.O2    1  UNL1        0.2590
     26  O         17.0570  -25.1240   -6.0740 O.2     1  UNL1       -0.2010
     27  O         16.2260  -24.1190   -8.2270 O.2     1  UNL1       -0.2010
     28  N         16.3060  -22.7550   -6.0830 N.3     1  UNL1       -0.3070
     29  H         16.7370  -21.8540   -6.2840 H       1  UNL1        0.1730
     30  C         15.0990  -22.7770   -5.2370 C.3     1  UNL1        0.0290
     31  C         14.4070  -24.1400   -5.1940 C.3     1  UNL1        0.0380
     32  C         15.5650  -22.4270   -3.8110 C.3     1  UNL1        0.0380
     33  C         14.1220  -21.6950   -5.7090 C.3     1  UNL1        0.0380
@<TRIPOS>BOND
     1    10     9    2
     2    10    11    1
     3     9     8    1
     4    11    12    2
     5     8     7    1
     6     8     5    2
     7     7     6    1
     8    12     5    1
     9     5     3    1
    10    15    14    2
    11     6    14    1
    12     6     4    1
    13    14    16    1
    14     3     4    1
    15     3     2   am
    16    16    17    1
    17     2    13    2
    18     2     1    1
    19     1    18    1
    20    20    21    1
    21    20    19    2
    22    27    25    2
    23    18    19    1
    24    21    22    2
    25    19    24    1
    26    22    25    1
    27    22    23    1
    28    24    23    2
    29    25    28    1
    30    25    26    2
    31    29    28    1
    32    28    30    1
    33    33    30    1
    34    30    31    1
    35    30    32    1
