@<TRIPOS>MOLECULE
2757_out_ligand_01.pdbqt
 32 35 0 0 0
SMALL
GASTEIGER

@<TRIPOS>ATOM
      1  N         20.8230  -22.6120  -10.5340 N.am    1  UNL1       -0.3230
      2  C         20.2860  -22.4650   -9.2660 C.2     1  UNL1        0.2580
      3  O         20.9020  -22.1690   -8.2470 O.2     1  UNL1       -0.2670
      4  H         20.1670  -22.6990  -11.2990 H       1  UNL1        0.1690
      5  C         18.8060  -22.6360   -9.1760 C.2     1  UNL1        0.0590
      6  C         17.9720  -22.7480  -10.3020 C.2     1  UNL1        0.0190
      7  C         16.5920  -22.8880  -10.1640 C.2     1  UNL1        0.0020
      8  C         16.0040  -22.9310   -8.8950 C.2     1  UNL1        0.0140
      9  C         16.8140  -22.8530   -7.7450 C.ar    1  UNL1       -0.0000
     10  C         16.5530  -22.8800   -6.3360 C.ar    1  UNL1       -0.0230
     11  C         18.1910  -22.7180   -7.9130 C.ar    1  UNL1        0.0590
     12  C         17.7780  -22.7910   -5.6930 C.ar    1  UNL1        0.0170
     13  C         15.2120  -23.0030   -5.6790 C.3     1  UNL1        0.0410
     14  N         18.7480  -22.6900   -6.6550 N.ar    1  UNL1       -0.3580
     15  C         18.1180  -22.7940   -4.2380 C.3     1  UNL1        0.0570
     16  H         19.7490  -22.6360   -6.4950 H       1  UNL1        0.1660
     17  C         17.1520  -23.6550   -3.4250 C.3     1  UNL1        0.0060
     18  C         15.7850  -23.0120   -3.1650 C.3     1  UNL1        0.0010
     19  C         15.1250  -22.2770   -4.3370 C.3     1  UNL1        0.0050
     20  C         22.1830  -22.5340  -10.9020 C.2     1  UNL1        0.0360
     21  C         23.2300  -23.0550  -10.1430 C.2     1  UNL1        0.0300
     22  C         24.5560  -22.9300  -10.5750 C.2     1  UNL1        0.0100
     23  C         24.8720  -22.2970  -11.7860 C.2     1  UNL1       -0.0390
     24  C         26.3220  -22.1620  -12.1660 C.3     1  UNL1        0.0500
     25  C         23.8130  -21.7840  -12.5530 C.2     1  UNL1        0.0820
     26  C         22.4830  -21.8990  -12.1110 C.2     1  UNL1        0.0540
     27  S         24.0900  -20.9630  -14.1110 S.O2    1  UNL1        0.2390
     28  O         24.9810  -19.8460  -13.8870 O.2     1  UNL1       -0.2060
     29  O         24.3440  -21.9520  -15.1300 O.2     1  UNL1       -0.2060
     30  N         22.5880  -20.2580  -14.4060 N.3     1  UNL1       -0.2250
     31  H         22.6360  -19.2480  -14.5350 H       1  UNL1        0.1360
     32  H         22.1640  -20.7210  -15.2110 H       1  UNL1        0.1360
@<TRIPOS>BOND
     1    32    30    1
     2    29    27    2
     3    31    30    1
     4    30    27    1
     5    27    28    2
     6    27    25    1
     7    25    26    1
     8    25    23    2
     9    24    23    1
    10    26    20    2
    11    23    22    1
    12     4     1    1
    13    20     1    1
    14    20    21    1
    15    22    21    2
    16     1     2   am
    17     6     7    1
    18     6     5    2
    19     7     8    2
    20     2     5    1
    21     2     3    2
    22     5    11    1
    23     8     9    1
    24    11     9   ar
    25    11    14   ar
    26     9    10   ar
    27    14    16    1
    28    14    12   ar
    29    10    12   ar
    30    10    13    1
    31    12    15    1
    32    13    19    1
    33    19    18    1
    34    15    17    1
    35    17    18    1
