@<TRIPOS>MOLECULE
2759_out_ligand_01.pdbqt
 33 36 0 0 0
SMALL
GASTEIGER

@<TRIPOS>ATOM
      1  C         20.3400  -22.3530  -10.3550 C.2     1  UNL1        0.0330
      2  C         20.0110  -21.5270  -11.4410 C.2     1  UNL1        0.0170
      3  C         18.6780  -21.1870  -11.6890 C.2     1  UNL1        0.0030
      4  C         17.6660  -21.6790  -10.8650 C.2     1  UNL1        0.0250
      5  C         17.9930  -22.5260   -9.8020 C.2     1  UNL1        0.0800
      6  C         19.3250  -22.8570   -9.5350 C.2     1  UNL1        0.0420
      7  C         21.7430  -22.7460  -10.0580 C.2     1  UNL1        0.2520
      8  O         21.9870  -23.8700   -9.6350 O.2     1  UNL1       -0.2680
      9  N         22.7060  -21.7850  -10.2560 N.am    1  UNL1       -0.3500
     10  H         22.4320  -20.8180  -10.3830 H       1  UNL1        0.1630
     11  C         24.0870  -21.9970   -9.8790 C.3     1  UNL1        0.2030
     12  C         24.9490  -21.4970  -10.9810 C.ar    1  UNL1        0.1480
     13  N         25.6750  -20.3980  -10.9370 N.ar    1  UNL1       -0.1330
     14  N         26.3160  -20.2600  -12.1360 N.ar    1  UNL1       -0.1350
     15  C         25.9840  -21.2770  -12.9040 C.ar    1  UNL1        0.1300
     16  N         25.1370  -22.1030  -12.2030 N.ar    1  UNL1       -0.3190
     17  C         26.4660  -21.4840  -14.3000 C.3     1  UNL1        0.0800
     18  C         24.5200  -23.3330  -12.6550 C.3     1  UNL1        0.1320
     19  C         25.3230  -24.1340  -13.6740 C.3     1  UNL1        0.0200
     20  C         25.2440  -23.5800  -15.0960 C.3     1  UNL1        0.0020
     21  C         25.4050  -22.0650  -15.2260 C.3     1  UNL1        0.0080
     22  S         16.7120  -23.1620   -8.7460 S.O2    1  UNL1        0.2630
     23  O         17.2420  -24.3120   -8.0460 O.2     1  UNL1       -0.2000
     24  O         15.5070  -23.2600   -9.5410 O.2     1  UNL1       -0.2000
     25  N         16.4590  -21.9040   -7.6430 N.pl3   1  UNL1       -0.2790
     26  H         17.0310  -21.0910   -7.8800 H       1  UNL1        0.1790
     27  C         16.3790  -22.2200   -6.2480 C.2     1  UNL1        0.0640
     28  C         15.1550  -22.5880   -5.6840 C.2     1  UNL1        0.0320
     29  C         15.0800  -22.9290   -4.3310 C.2     1  UNL1        0.0020
     30  C         16.2250  -22.8980   -3.5360 C.2     1  UNL1        0.0020
     31  C         17.4500  -22.5220   -4.0880 C.2     1  UNL1        0.0260
     32  C         17.5260  -22.1810   -5.4400 C.2     1  UNL1        0.0610
     33 CL         19.0560  -21.7110   -6.0900 Cl      1  UNL1       -0.0820
@<TRIPOS>BOND
     1    21    20    1
     2    21    17    1
     3    20    19    1
     4    17    15    1
     5    19    18    1
     6    15    16   ar
     7    15    14   ar
     8    18    16    1
     9    16    12   ar
    10    14    13   ar
    11     3     2    1
    12     3     4    2
    13     2     1    2
    14    12    13   ar
    15    12    11    1
    16     4     5    1
    17    10     9    1
    18     1     7    1
    19     1     6    1
    20     9     7   am
    21     9    11    1
    22     7     8    2
    23     5     6    2
    24     5    22    1
    25    24    22    2
    26    22    23    2
    27    22    25    1
    28    26    25    1
    29    25    27    1
    30    27    28    2
    31    27    32    1
    32    33    32    1
    33    28    29    1
    34    32    31    2
    35    29    30    2
    36    31    30    1
