@<TRIPOS>MOLECULE
27606_out_ligand_01.pdbqt
 33 35 0 0 0
SMALL
GASTEIGER

@<TRIPOS>ATOM
      1  C         23.0650  -22.2960  -10.2160 C.2     1  UNL1        0.0360
      2  C         24.3020  -22.9070   -9.9940 C.2     1  UNL1        0.0290
      3  C         25.2370  -23.0170  -11.0280 C.2     1  UNL1        0.0040
      4  C         24.9460  -22.5160  -12.2940 C.2     1  UNL1        0.0230
      5  C         23.7160  -21.8990  -12.5280 C.2     1  UNL1        0.0460
      6  C         23.4090  -21.3770  -13.8260 C.1     1  UNL1        0.0990
      7  N         23.1490  -20.9490  -14.8730 N.1     1  UNL1       -0.1910
      8  C         22.7800  -21.7900  -11.4900 C.2     1  UNL1        0.0520
      9  N         22.0710  -22.1450   -9.2250 N.am    1  UNL1       -0.3230
     10  C         21.3300  -23.1490   -8.6260 C.2     1  UNL1        0.2560
     11  O         21.3560  -24.3430   -8.8940 O.2     1  UNL1       -0.2670
     12  H         21.8340  -21.1930   -8.9820 H       1  UNL1        0.1690
     13  C         20.3800  -22.6870   -7.5740 C.2     1  UNL1        0.0340
     14  C         20.5930  -21.5050   -6.8570 C.2     1  UNL1        0.0200
     15  C         19.6810  -21.1110   -5.8760 C.2     1  UNL1        0.0390
     16  C         18.5640  -21.9020   -5.5900 C.2     1  UNL1        0.0910
     17  C         18.3390  -23.0780   -6.3110 C.2     1  UNL1        0.1130
     18  C         19.2610  -23.4820   -7.2880 C.2     1  UNL1        0.0450
     19  O         17.6640  -21.4380   -4.6740 O.2     1  UNL1       -0.3540
     20  C         18.2410  -21.3830   -3.3660 C.3     1  UNL1        0.2100
     21  S         16.9520  -24.1370   -5.9760 S.O2    1  UNL1        0.2610
     22  O         17.1010  -25.3190   -6.7980 O.2     1  UNL1       -0.2000
     23  O         16.7610  -24.2530   -4.5490 O.2     1  UNL1       -0.2000
     24  N         15.6550  -23.3080   -6.6370 N.3     1  UNL1       -0.3150
     25  H         14.7630  -23.7880   -6.5420 H       1  UNL1        0.1720
     26  C         15.8590  -22.3690   -7.7410 C.3     1  UNL1        0.1370
     27  C         15.9740  -23.1480   -9.0550 C.3     1  UNL1        0.0580
     28  C         16.9310  -22.4880  -10.0150 C.2     1  UNL1       -0.0570
     29  C         16.6460  -21.2220  -10.5450 C.2     1  UNL1        0.0070
     30  C         17.5400  -20.6040  -11.4190 C.2     1  UNL1        0.0010
     31  C         18.7280  -21.2420  -11.7690 C.2     1  UNL1        0.0000
     32  C         19.0230  -22.4990  -11.2450 C.2     1  UNL1        0.0010
     33  C         18.1300  -23.1190  -10.3700 C.2     1  UNL1        0.0070
@<TRIPOS>BOND
     1     7     6    3
     2     6     5    1
     3     5     4    2
     4     5     8    1
     5     4     3    1
     6    31    30    2
     7    31    32    1
     8     8     1    2
     9    30    29    1
    10    32    33    2
    11     3     2    2
    12    29    28    2
    13    33    28    1
    14     1     2    1
    15     1     9    1
    16    28    27    1
    17     9    12    1
    18     9    10   am
    19    27    26    1
    20    11    10    2
    21    10    13    1
    22    26    24    1
    23    13    18    2
    24    13    14    1
    25    18    17    1
    26    14    15    2
    27    22    21    2
    28    24    25    1
    29    24    21    1
    30    17    21    1
    31    17    16    2
    32    21    23    2
    33    15    16    1
    34    16    19    1
    35    19    20    1
