@<TRIPOS>MOLECULE
27608_out_ligand_01.pdbqt
 36 39 0 0 0
SMALL
GASTEIGER

@<TRIPOS>ATOM
      1  C         25.1390  -22.5060  -14.2590 C.3     1  UNL1        0.0760
      2  C         25.3210  -23.7930  -14.9150 C.1     1  UNL1        0.0740
      3  N         25.4810  -24.8110  -15.4470 N.1     1  UNL1       -0.1960
      4  C         26.3460  -21.5640  -14.3060 C.3     1  UNL1        0.0320
      5  C         25.1680  -21.2830  -15.1810 C.3     1  UNL1        0.0320
      6  C         24.2430  -22.4190  -13.0210 C.2     1  UNL1       -0.0350
      7  C         24.6520  -22.9360  -11.7810 C.2     1  UNL1        0.0110
      8  C         23.8400  -22.8510  -10.6420 C.2     1  UNL1        0.0300
      9  C         22.5920  -22.2380  -10.7070 C.2     1  UNL1        0.0350
     10  C         22.1730  -21.7030  -11.9300 C.2     1  UNL1        0.0300
     11  C         22.9860  -21.7930  -13.0660 C.2     1  UNL1        0.0110
     12  N         21.7160  -22.1060   -9.6090 N.am    1  UNL1       -0.3230
     13  C         21.2640  -23.1130   -8.7780 C.2     1  UNL1        0.2560
     14  O         21.4940  -24.3120   -8.8700 O.2     1  UNL1       -0.2670
     15  H         21.3290  -21.1820   -9.4660 H       1  UNL1        0.1690
     16  C         20.3710  -22.6580   -7.6780 C.2     1  UNL1        0.0340
     17  C         20.6230  -21.4780   -6.9710 C.2     1  UNL1        0.0200
     18  C         19.7740  -21.0910   -5.9270 C.2     1  UNL1        0.0390
     19  C         18.6660  -21.8720   -5.5720 C.2     1  UNL1        0.0910
     20  C         18.4330  -23.0640   -6.2730 C.2     1  UNL1        0.1130
     21  C         19.2820  -23.4550   -7.3230 C.2     1  UNL1        0.0450
     22  O         17.8350  -21.5610   -4.5360 O.2     1  UNL1       -0.3540
     23  C         18.3990  -21.4370   -3.2360 C.3     1  UNL1        0.2100
     24  S         17.0330  -24.1090   -5.9310 S.O2    1  UNL1        0.2610
     25  O         16.9510  -24.2560   -4.4920 O.2     1  UNL1       -0.2000
     26  O         17.0260  -25.2750   -6.7830 O.2     1  UNL1       -0.2000
     27  N         15.7380  -23.1190   -6.3440 N.3     1  UNL1       -0.3150
     28  H         14.8490  -23.6100   -6.2470 H       1  UNL1        0.1720
     29  C         15.8950  -22.2010   -7.4790 C.3     1  UNL1        0.1370
     30  C         15.7850  -22.9890   -8.7860 C.3     1  UNL1        0.0580
     31  C         16.7120  -22.4530   -9.8480 C.2     1  UNL1       -0.0570
     32  C         16.5240  -21.1660  -10.3700 C.2     1  UNL1        0.0070
     33  C         17.3940  -20.6610  -11.3380 C.2     1  UNL1        0.0010
     34  C         18.4610  -21.4360  -11.7880 C.2     1  UNL1        0.0000
     35  C         18.6590  -22.7150  -11.2740 C.2     1  UNL1        0.0010
     36  C         17.7900  -23.2230  -10.3060 C.2     1  UNL1        0.0070
@<TRIPOS>BOND
     1     3     2    3
     2     5     4    1
     3     5     1    1
     4     2     1    1
     5     4     1    1
     6     1     6    1
     7    11     6    2
     8    11    10    1
     9     6     7    1
    10    10     9    2
    11    34    33    2
    12    34    35    1
    13     7     8    2
    14    33    32    1
    15    35    36    2
    16     9     8    1
    17     9    12    1
    18    32    31    2
    19    36    31    1
    20    31    30    1
    21    12    15    1
    22    12    13   am
    23    14    13    2
    24    30    29    1
    25    13    16    1
    26    16    21    2
    27    16    17    1
    28    29    27    1
    29    21    20    1
    30    17    18    2
    31    26    24    2
    32    27    28    1
    33    27    24    1
    34    20    24    1
    35    20    19    2
    36    24    25    2
    37    18    19    1
    38    19    22    1
    39    22    23    1
