@<TRIPOS>MOLECULE
27614_out_ligand_01.pdbqt
 35 37 0 0 0
SMALL
GASTEIGER

@<TRIPOS>ATOM
      1  C         17.6340  -23.5450   -8.5780 C.2     1  UNL1        0.1020
      2  C         18.9920  -23.9030   -8.4530 C.2     1  UNL1        0.0440
      3  C         19.9440  -23.4140   -9.3540 C.2     1  UNL1        0.0330
      4  C         19.5440  -22.5440  -10.3690 C.2     1  UNL1        0.0190
      5  C         18.1970  -22.2000  -10.5020 C.2     1  UNL1        0.0260
      6  C         17.2300  -22.7070   -9.6200 C.2     1  UNL1        0.0570
      7 CL         15.6100  -22.2120   -9.9270 Cl      1  UNL1       -0.0830
      8  C         21.3820  -23.7850   -9.2540 C.2     1  UNL1        0.2510
      9  O         21.6990  -24.8710   -8.7830 O.2     1  UNL1       -0.2680
     10  N         22.2840  -22.8340   -9.6820 N.am    1  UNL1       -0.3530
     11  H         21.9660  -21.8870   -9.8300 H       1  UNL1        0.1630
     12  C         23.7060  -23.0020   -9.4720 C.3     1  UNL1        0.1610
     13  C         24.4640  -22.6880  -10.7370 C.2     1  UNL1       -0.0400
     14  C         25.8320  -22.9730  -10.8410 C.2     1  UNL1        0.0090
     15  C         26.5210  -22.7140  -12.0270 C.2     1  UNL1        0.0010
     16  C         25.8470  -22.1780  -13.1260 C.2     1  UNL1        0.0160
     17  C         24.4750  -21.8920  -13.0490 C.2     1  UNL1        0.0480
     18  C         23.7940  -22.1520  -11.8490 C.2     1  UNL1        0.0250
     19  C         23.7280  -21.3260  -14.2310 C.3     1  UNL1        0.4170
     20  F         22.3980  -21.1710  -13.9800 F       1  UNL1       -0.1660
     21  F         24.1840  -20.0980  -14.6030 F       1  UNL1       -0.1660
     22  F         23.8040  -22.1030  -15.3480 F       1  UNL1       -0.1660
     23  S         16.5160  -24.2680   -7.4000 S.O2    1  UNL1        0.2650
     24  O         15.3950  -24.8670   -8.0840 O.2     1  UNL1       -0.2000
     25  O         17.3290  -25.0780   -6.5110 O.2     1  UNL1       -0.2000
     26  N         16.0200  -22.9650   -6.4620 N.pl3   1  UNL1       -0.2800
     27  H         15.0120  -22.8560   -6.3810 H       1  UNL1        0.1790
     28  C         16.8630  -22.4090   -5.4610 C.2     1  UNL1        0.0490
     29  C         16.6240  -22.6620   -4.1020 C.2     1  UNL1       -0.0350
     30  C         17.5100  -22.1230   -3.1550 C.2     1  UNL1        0.0090
     31  C         15.4800  -23.5130   -3.6290 C.3     1  UNL1        0.0500
     32  C         18.5910  -21.3290   -3.5510 C.2     1  UNL1        0.0070
     33  C         18.8030  -21.0480   -4.9040 C.2     1  UNL1       -0.0600
     34  C         19.9810  -20.2300   -5.3440 C.3     1  UNL1        0.0480
     35  C         17.9350  -21.6010   -5.8540 C.2     1  UNL1        0.0370
@<TRIPOS>BOND
     1    22    19    1
     2    21    19    1
     3    19    20    1
     4    19    17    1
     5    16    17    2
     6    16    15    1
     7    17    18    1
     8    15    14    2
     9    18    13    2
    10    14    13    1
    11    13    12    1
    12     5     4    2
    13     5     6    1
    14     4     3    1
    15     7     6    1
    16    11    10    1
    17    10    12    1
    18    10     8   am
    19     6     1    2
    20     3     8    1
    21     3     2    2
    22     8     9    2
    23     1     2    1
    24     1    23    1
    25    24    23    2
    26    23    25    2
    27    23    26    1
    28    26    27    1
    29    26    28    1
    30    35    28    2
    31    35    33    1
    32    28    29    1
    33    34    33    1
    34    33    32    2
    35    29    31    1
    36    29    30    2
    37    32    30    1
