@<TRIPOS>MOLECULE
27629_out_ligand_01.pdbqt
 37 40 0 0 0
SMALL
GASTEIGER

@<TRIPOS>ATOM
      1  C         22.8780  -22.1240  -11.5970 C.2     1  UNL1        0.0810
      2  C         22.3500  -22.6200  -10.3930 C.2     1  UNL1        0.0420
      3  C         20.9820  -22.5120  -10.1230 C.2     1  UNL1        0.0330
      4  C         20.1490  -21.8640  -11.0420 C.2     1  UNL1        0.0170
      5  C         20.6760  -21.3690  -12.2380 C.2     1  UNL1        0.0090
      6  C         22.0410  -21.5060  -12.5450 C.2     1  UNL1       -0.0390
      7  C         22.5330  -20.9350  -13.8470 C.3     1  UNL1        0.0500
      8  C         20.4710  -23.0700   -8.8390 C.2     1  UNL1        0.2510
      9  O         21.1330  -22.9480   -7.8170 O.2     1  UNL1       -0.2680
     10  N         19.2600  -23.7190   -8.8890 N.am    1  UNL1       -0.3560
     11  H         18.7620  -23.7980   -9.7650 H       1  UNL1        0.1620
     12  C         18.5700  -24.2240   -7.7080 C.3     1  UNL1        0.1370
     13  C         17.4020  -23.2960   -7.2230 C.3     1  UNL1        0.0070
     14  C         17.1270  -22.1920   -8.2950 C.3     1  UNL1        0.0420
     15  C         16.0410  -22.5590   -9.3000 C.3     1  UNL1        0.1680
     16  O         16.0530  -23.9530   -9.5480 O.3     1  UNL1       -0.3910
     17  C         15.6130  -24.7050   -8.4170 C.3     1  UNL1        0.1680
     18  C         16.0950  -24.1230   -7.0850 C.3     1  UNL1        0.0420
     19  C         17.8470  -22.6080   -5.9070 C.2     1  UNL1       -0.0480
     20  C         17.4590  -23.1440   -4.6620 C.2     1  UNL1        0.0080
     21  C         17.8160  -22.5260   -3.4600 C.2     1  UNL1        0.0010
     22  C         18.5620  -21.3520   -3.4760 C.2     1  UNL1        0.0000
     23  C         18.9510  -20.7980   -4.6910 C.2     1  UNL1        0.0010
     24  C         18.5970  -21.4180   -5.8940 C.2     1  UNL1        0.0080
     25  S         24.6400  -22.2860  -11.8560 S.O2    1  UNL1        0.2460
     26  O         25.1060  -21.1010  -12.5410 O.2     1  UNL1       -0.2060
     27  O         25.2430  -22.7260  -10.6140 O.2     1  UNL1       -0.2060
     28  N         24.6770  -23.6420  -12.8910 N.pl3   1  UNL1       -0.1810
     29  H         25.2450  -24.3470  -12.4150 H       1  UNL1        0.1460
     30  C         25.2250  -23.3990  -14.1940 C.2     1  UNL1        0.0230
     31  C         26.5530  -22.9950  -14.2730 C.2     1  UNL1        0.0250
     32  C         27.1120  -22.6830  -15.5130 C.2     1  UNL1        0.0090
     33  C         26.3450  -22.7580  -16.6860 C.2     1  UNL1       -0.0560
     34  C         26.9830  -22.4210  -18.0050 C.3     1  UNL1        0.0490
     35  C         24.9940  -23.1580  -16.6030 C.2     1  UNL1       -0.0540
     36  C         24.4400  -23.4580  -15.3460 C.2     1  UNL1        0.0310
     37  C         24.1240  -23.2510  -17.8270 C.3     1  UNL1        0.0490
@<TRIPOS>BOND
     1    34    33    1
     2    37    35    1
     3    33    35    2
     4    33    32    1
     5    35    36    1
     6    32    31    2
     7    36    30    2
     8    31    30    1
     9    30    28    1
    10     7     6    1
    11    28    29    1
    12    28    25    1
    13     6     5    1
    14     6     1    2
    15    26    25    2
    16     5     4    2
    17    25     1    1
    18    25    27    2
    19     1     2    1
    20     4     3    1
    21     2     3    2
    22     3     8    1
    23    11    10    1
    24    16    15    1
    25    16    17    1
    26    15    14    1
    27    10     8   am
    28    10    12    1
    29     8     9    2
    30    17    18    1
    31    14    13    1
    32    12    13    1
    33    13    18    1
    34    13    19    1
    35    19    24    2
    36    19    20    1
    37    24    23    1
    38    23    22    2
    39    20    21    2
    40    22    21    1
