@<TRIPOS>MOLECULE
2762_out_ligand_01.pdbqt
 35 38 0 0 0
SMALL
GASTEIGER

@<TRIPOS>ATOM
      1  C         18.2200  -23.0580   -8.8770 C.2     1  UNL1        0.0160
      2  C         16.9710  -22.4690   -9.1340 C.2     1  UNL1        0.0190
      3  C         16.7370  -21.7580  -10.3130 C.2     1  UNL1        0.0010
      4  C         17.7530  -21.6130  -11.2520 C.2     1  UNL1        0.0010
      5  C         19.0070  -22.1690  -11.0030 C.2     1  UNL1        0.0180
      6  C         19.2540  -22.8730   -9.8130 C.2     1  UNL1        0.0480
      7  C         20.6370  -23.3840   -9.6400 C.2     1  UNL1        0.2530
      8  O         20.8180  -24.5530   -9.3210 O.2     1  UNL1       -0.2680
      9  N         21.6490  -22.4910   -9.8970 N.am    1  UNL1       -0.3530
     10  H         21.4120  -21.5610  -10.2200 H       1  UNL1        0.1630
     11  C         23.0380  -22.8840   -9.9150 C.3     1  UNL1        0.1610
     12  C         23.7720  -22.1810  -11.0270 C.2     1  UNL1       -0.0360
     13  C         24.9200  -21.4220  -10.7620 C.2     1  UNL1        0.0350
     14  C         25.5710  -20.7390  -11.7950 C.2     1  UNL1        0.0700
     15 CL         26.9730  -19.8080  -11.4030 Cl      1  UNL1       -0.0810
     16  C         25.0960  -20.8200  -13.1090 C.2     1  UNL1        0.1230
     17  C         23.9490  -21.5740  -13.3740 C.2     1  UNL1        0.1040
     18  O         25.7060  -20.0750  -14.0840 O.2     1  UNL1       -0.3460
     19  C         23.2830  -22.2360  -12.3400 C.2     1  UNL1        0.0480
     20  O         23.3660  -21.6290  -14.6110 O.2     1  UNL1       -0.3480
     21  C         24.2140  -22.2530  -15.5760 C.3     1  UNL1        0.1780
     22  C         25.2330  -21.2810  -16.1510 C.3     1  UNL1        0.0530
     23  C         26.2710  -20.8920  -15.1080 C.3     1  UNL1        0.1780
     24  S         18.3500  -24.0120   -7.3650 S.3     1  UNL1       -0.1260
     25  C         16.5960  -23.9910   -6.7950 C.3     1  UNL1        0.1200
     26  C         16.2510  -22.9680   -5.7000 C.3     1  UNL1        0.1210
     27  C         14.8890  -22.3250   -5.9550 C.3     1  UNL1        0.0500
     28  N         17.2550  -21.9430   -5.4900 N.am    1  UNL1       -0.3240
     29  C         17.7740  -21.9790   -4.2180 C.2     1  UNL1        0.3230
     30  H         17.6400  -21.3240   -6.1940 H       1  UNL1        0.1650
     31  O         18.6780  -21.2740   -3.8110 O.2     1  UNL1       -0.2470
     32  N         17.1310  -22.9420   -3.5170 N.am    1  UNL1       -0.2770
     33  C         16.2520  -23.6150   -4.3070 C.2     1  UNL1        0.2540
     34  H         17.3520  -23.1880   -2.5680 H       1  UNL1        0.1730
     35  O         15.5720  -24.5660   -3.9540 O.2     1  UNL1       -0.2700
@<TRIPOS>BOND
     1    22    21    1
     2    22    23    1
     3    21    20    1
     4    23    18    1
     5    20    17    1
     6    18    16    1
     7    17    16    2
     8    17    19    1
     9    16    14    1
    10    19    12    2
    11    14    15    1
    12    14    13    2
    13     4     5    2
    14     4     3    1
    15    12    13    1
    16    12    11    1
    17     5     6    1
    18     3     2    2
    19    10     9    1
    20    11     9    1
    21     9     7   am
    22     6     7    1
    23     6     1    2
    24     7     8    2
    25     2     1    1
    26     1    24    1
    27    24    25    1
    28    25    26    1
    29    30    28    1
    30    27    26    1
    31    26    28    1
    32    26    33    1
    33    28    29   am
    34    33    35    2
    35    33    32   am
    36    29    31    2
    37    29    32   am
    38    32    34    1
