@<TRIPOS>MOLECULE
27627_out_ligand_01.pdbqt
 38 41 0 0 0
SMALL
GASTEIGER

@<TRIPOS>ATOM
      1  C         21.1010  -22.3380  -10.9570 C.2     1  UNL1        0.0330
      2  C         20.7050  -21.3750  -11.8880 C.2     1  UNL1        0.0190
      3  C         19.3650  -20.9850  -11.9520 C.2     1  UNL1        0.0260
      4  C         18.4100  -21.5450  -11.0880 C.2     1  UNL1        0.0570
      5 CL         16.7910  -20.9910  -11.2880 Cl      1  UNL1       -0.0830
      6  C         18.8090  -22.5090  -10.1590 C.2     1  UNL1        0.0970
      7  C         20.1550  -22.9120  -10.1000 C.2     1  UNL1        0.0430
      8  C         22.5110  -22.7940  -10.8660 C.2     1  UNL1        0.2520
      9  N         23.2900  -22.5570  -11.9740 N.am    1  UNL1       -0.3480
     10  H         22.9360  -21.9800  -12.7260 H       1  UNL1        0.1630
     11  O         22.9170  -23.3180   -9.8360 O.2     1  UNL1       -0.2680
     12  C         24.7080  -22.8820  -11.9910 C.3     1  UNL1        0.1230
     13  C         25.0850  -23.8550  -13.1110 C.3     1  UNL1        0.0680
     14  C         25.3280  -23.1540  -14.4640 C.3     1  UNL1        0.0690
     15  O         26.3310  -22.1250  -14.3410 O.2     1  UNL1       -0.3400
     16  C         26.2870  -21.3380  -13.2250 C.2     1  UNL1        0.0780
     17  C         27.0800  -20.1890  -13.2710 C.2     1  UNL1        0.0370
     18  C         25.5420  -21.6320  -12.0800 C.2     1  UNL1       -0.0020
     19  C         27.1210  -19.3150  -12.1860 C.2     1  UNL1        0.0030
     20  C         26.3730  -19.5920  -11.0460 C.2     1  UNL1        0.0010
     21  C         25.5890  -20.7440  -10.9910 C.2     1  UNL1        0.0120
     22  C         25.8870  -24.1750  -15.4980 C.3     1  UNL1        0.0340
     23  C         25.6280  -25.6450  -15.1770 C.3     1  UNL1        0.0080
     24  C         24.0250  -22.5160  -15.0330 C.3     1  UNL1        0.0340
     25  C         24.0520  -22.1960  -16.5250 C.3     1  UNL1        0.0080
     26  S         17.6790  -23.2080   -8.9800 S.O2    1  UNL1        0.2470
     27  O         16.5030  -23.6280   -9.7170 O.2     1  UNL1       -0.2050
     28  O         18.4100  -24.1440   -8.1580 O.2     1  UNL1       -0.2050
     29  N         17.2000  -21.8300   -8.0960 N.pl3   1  UNL1       -0.1810
     30  H         16.3860  -21.4390   -8.5730 H       1  UNL1        0.1460
     31  C         16.8940  -22.0880   -6.7120 C.2     1  UNL1        0.0290
     32  C         15.5920  -22.5140   -6.4350 C.2     1  UNL1        0.0250
     33  C         15.1870  -22.7390   -5.1230 C.2     1  UNL1        0.0020
     34  C         16.0770  -22.5190   -4.0790 C.2     1  UNL1        0.0070
     35  C         17.3850  -22.0740   -4.3300 C.2     1  UNL1       -0.0540
     36  C         18.2930  -21.8280   -3.1530 C.3     1  UNL1        0.0490
     37  C         17.8170  -21.8750   -5.6660 C.2     1  UNL1       -0.0340
     38  C         19.2170  -21.3780   -5.9270 C.3     1  UNL1        0.0500
@<TRIPOS>BOND
     1    25    24    1
     2    22    23    1
     3    22    14    1
     4    24    14    1
     5    14    15    1
     6    14    13    1
     7    15    16    1
     8    17    16    2
     9    17    19    1
    10    16    18    1
    11    13    12    1
    12    10     9    1
    13    19    20    2
    14    18    12    1
    15    18    21    2
    16    12     9    1
    17     9     8   am
    18     3     2    1
    19     3     4    2
    20     2     1    2
    21     5     4    1
    22     4     6    1
    23    20    21    1
    24     1     8    1
    25     1     7    1
    26     8    11    2
    27     6     7    2
    28     6    26    1
    29    27    26    2
    30    26    28    2
    31    26    29    1
    32    30    29    1
    33    29    31    1
    34    31    32    2
    35    31    37    1
    36    32    33    1
    37    38    37    1
    38    37    35    2
    39    33    34    2
    40    35    34    1
    41    35    36    1
