@<TRIPOS>MOLECULE
27645_out_ligand_01.pdbqt
 35 38 0 0 0
SMALL
GASTEIGER

@<TRIPOS>ATOM
      1  S         16.2660  -22.4160   -9.4610 S.O2    1  UNL1        0.2720
      2  O         16.6140  -23.7910   -9.1630 O.2     1  UNL1       -0.2030
      3  O         14.9840  -22.0870  -10.0550 O.2     1  UNL1       -0.2030
      4  C         17.4960  -21.8370  -10.5880 C.ar    1  UNL1        0.2330
      5  N         17.4850  -20.6900  -11.2360 N.ar    1  UNL1       -0.1270
      6  N         18.6210  -20.5440  -12.0100 N.ar    1  UNL1       -0.1220
      7  C         19.4330  -21.5730  -11.8990 C.ar    1  UNL1        0.1970
      8  S         18.8910  -22.7890  -10.8350 S.2     1  UNL1       -0.0150
      9  N         20.6230  -21.6300  -12.5810 N.am    1  UNL1       -0.3000
     10  C         21.8830  -21.4910  -12.0480 C.2     1  UNL1        0.2570
     11  O         22.1730  -21.3190  -10.8710 O.2     1  UNL1       -0.2670
     12  H         20.5060  -21.8670  -13.5560 H       1  UNL1        0.1710
     13  C         22.9970  -21.5950  -13.0360 C.2     1  UNL1        0.0320
     14  C         24.0420  -22.4910  -12.7660 C.2     1  UNL1        0.0180
     15  C         25.1070  -22.6210  -13.6610 C.2     1  UNL1        0.0250
     16  C         25.1340  -21.8480  -14.8200 C.2     1  UNL1        0.0340
     17 CL         26.4450  -22.0040  -15.9220 Cl      1  UNL1       -0.0840
     18  C         24.1090  -20.9420  -15.0890 C.2     1  UNL1        0.0250
     19  C         23.0410  -20.8090  -14.1960 C.2     1  UNL1        0.0180
     20  N         16.4210  -21.5390   -7.9960 N.pl3   1  UNL1       -0.1790
     21  H         17.3430  -21.0710   -8.0370 H       1  UNL1        0.1460
     22  C         16.3200  -22.3480   -6.8070 C.2     1  UNL1        0.0370
     23  C         15.0680  -22.8540   -6.4510 C.2     1  UNL1        0.0250
     24  C         14.9450  -23.7020   -5.3490 C.2     1  UNL1        0.0020
     25  C         16.0690  -24.0490   -4.6000 C.2     1  UNL1        0.0010
     26  C         17.3260  -23.5530   -4.9520 C.2     1  UNL1        0.0170
     27  C         17.4600  -22.7150   -6.0660 C.2     1  UNL1        0.0370
     28  C         18.7860  -22.1560   -6.4360 C.2     1  UNL1        0.1940
     29  O         19.0830  -21.0330   -6.0310 O.2     1  UNL1       -0.2870
     30  C         19.7420  -22.9130   -7.2760 C.2     1  UNL1        0.0150
     31  C         19.4420  -24.1980   -7.7400 C.2     1  UNL1        0.0150
     32  C         20.3640  -24.8800   -8.5370 C.2     1  UNL1        0.0010
     33  C         21.5750  -24.2760   -8.8780 C.2     1  UNL1        0.0000
     34  C         21.8640  -22.9850   -8.4330 C.2     1  UNL1        0.0010
     35  C         20.9460  -22.2990   -7.6390 C.2     1  UNL1        0.0150
@<TRIPOS>BOND
     1    17    16    1
     2    18    16    2
     3    18    19    1
     4    16    15    1
     5    19    13    2
     6    15    14    2
     7    12     9    1
     8    13    14    1
     9    13    10    1
    10     9    10   am
    11     9     7    1
    12    10    11    2
    13     6     7   ar
    14     6     5   ar
    15     7     8   ar
    16     5     4   ar
    17     8     4   ar
    18     4     1    1
    19     3     1    2
    20     1     2    2
    21     1    20    1
    22    33    32    2
    23    33    34    1
    24    32    31    1
    25    34    35    2
    26    21    20    1
    27    20    22    1
    28    31    30    2
    29    35    30    1
    30    30    28    1
    31    22    23    2
    32    22    27    1
    33    23    24    1
    34    28    27    1
    35    28    29    2
    36    27    26    2
    37    24    25    2
    38    26    25    1
