@<TRIPOS>MOLECULE
27673_out_ligand_01.pdbqt
 40 43 0 0 0
SMALL
GASTEIGER

@<TRIPOS>ATOM
      1  C         22.7510  -23.0940   -9.0990 C.2     1  UNL1       -0.0390
      2  C         22.6410  -21.9460   -8.3020 C.2     1  UNL1        0.0100
      3  C         21.5150  -21.7490   -7.5000 C.2     1  UNL1        0.0170
      4  C         20.4770  -22.6920   -7.4860 C.2     1  UNL1        0.0320
      5  C         20.5890  -23.8440   -8.2730 C.2     1  UNL1        0.0170
      6  C         21.7160  -24.0400   -9.0780 C.2     1  UNL1        0.0100
      7  C         19.3040  -22.4350   -6.5940 C.2     1  UNL1        0.2560
      8  O         19.1510  -21.3010   -6.1550 O.2     1  UNL1       -0.2670
      9  N         18.4870  -23.5220   -6.3610 N.am    1  UNL1       -0.3220
     10  H         18.6840  -24.3760   -6.8820 H       1  UNL1        0.1690
     11  C         17.3100  -23.5970   -5.5750 C.2     1  UNL1        0.0500
     12  C         17.3400  -23.5480   -4.1780 C.2     1  UNL1        0.0300
     13  C         16.1580  -23.5910   -3.4320 C.2     1  UNL1        0.0020
     14  C         14.9260  -23.6800   -4.0690 C.2     1  UNL1        0.0010
     15  C         14.8720  -23.7440   -5.4600 C.2     1  UNL1        0.0190
     16  C         16.0550  -23.7230   -6.2200 C.2     1  UNL1        0.0580
     17  C         15.9740  -23.8240   -7.7120 C.2     1  UNL1        0.2540
     18  O         15.9510  -24.9250   -8.2560 O.2     1  UNL1       -0.2680
     19  N         15.8720  -22.6360   -8.4130 N.am    1  UNL1       -0.3540
     20  H         15.5400  -21.8270   -7.9040 H       1  UNL1        0.1620
     21  C         15.6390  -22.6450   -9.8480 C.3     1  UNL1        0.1550
     22  C         16.9190  -22.4370  -10.6580 C.3     1  UNL1        0.1390
     23  C         16.9610  -21.1120  -11.4050 C.3     1  UNL1        0.0350
     24  C         18.4430  -20.8570  -11.4950 C.3     1  UNL1        0.0290
     25  C         18.9260  -21.3580  -10.1520 C.3     1  UNL1        0.1680
     26  O         18.0670  -22.4480   -9.7870 O.3     1  UNL1       -0.3840
     27  C         23.9800  -23.3230   -9.9480 C.3     1  UNL1        0.1800
     28  N         23.7860  -22.9740  -11.3710 N.pl3   1  UNL1       -0.2710
     29  C         24.9340  -23.0380  -12.2270 C.2     1  UNL1        0.0510
     30  C         26.0390  -22.1810  -12.0880 C.2     1  UNL1       -0.0350
     31  C         27.1210  -22.3390  -12.9690 C.2     1  UNL1        0.0090
     32  C         26.0850  -21.0550  -11.0950 C.3     1  UNL1        0.0500
     33  C         27.1210  -23.3470  -13.9370 C.2     1  UNL1        0.0070
     34  C         26.0390  -24.2240  -14.0460 C.2     1  UNL1       -0.0600
     35  C         26.0270  -25.2820  -15.1080 C.3     1  UNL1        0.0480
     36  C         24.9420  -24.0540  -13.1910 C.2     1  UNL1        0.0370
     37  S         22.5550  -21.8870  -11.7810 S.O2    1  UNL1        0.2290
     38  C         23.0600  -21.3770  -13.4090 C.3     1  UNL1        0.1860
     39  O         22.6290  -20.7070  -10.9410 O.2     1  UNL1       -0.2060
     40  O         21.3130  -22.6230  -11.9120 O.2     1  UNL1       -0.2060
@<TRIPOS>BOND
     1    35    34    1
     2    34    33    2
     3    34    36    1
     4    33    31    1
     5    38    37    1
     6    36    29    2
     7    31    30    2
     8    29    30    1
     9    29    28    1
    10    30    32    1
    11    40    37    2
    12    37    28    1
    13    37    39    2
    14    24    23    1
    15    24    25    1
    16    23    22    1
    17    28    27    1
    18    22    21    1
    19    22    26    1
    20    25    26    1
    21    27     1    1
    22    21    19    1
    23     1     6    2
    24     1     2    1
    25     6     5    1
    26    19    20    1
    27    19    17   am
    28     2     3    2
    29     5     4    2
    30    18    17    2
    31    17    16    1
    32     3     4    1
    33     4     7    1
    34    10     9    1
    35     7     9   am
    36     7     8    2
    37     9    11    1
    38    16    11    2
    39    16    15    1
    40    11    12    1
    41    15    14    2
    42    12    13    2
    43    14    13    1
