@<TRIPOS>MOLECULE
27713_out_ligand_01.pdbqt
 36 39 0 0 0
SMALL
GASTEIGER

@<TRIPOS>ATOM
      1  C         19.4330  -22.4830  -10.2610 C.2     1  UNL1        0.0810
      2  C         20.7710  -22.9120  -10.2190 C.2     1  UNL1        0.0420
      3  C         21.6990  -22.4190  -11.1430 C.2     1  UNL1        0.0330
      4  C         21.2850  -21.5000  -12.1120 C.2     1  UNL1        0.0170
      5  C         19.9560  -21.0660  -12.1460 C.2     1  UNL1        0.0090
      6  C         19.0060  -21.5540  -11.2300 C.2     1  UNL1       -0.0390
      7  C         17.5960  -21.0390  -11.3250 C.3     1  UNL1        0.0500
      8  C         23.0980  -22.9290  -11.0830 C.2     1  UNL1        0.2510
      9  O         23.6820  -23.0010  -10.0060 O.2     1  UNL1       -0.2680
     10  N         23.6690  -23.2880  -12.2870 N.am    1  UNL1       -0.3560
     11  H         23.2460  -22.9230  -13.1330 H       1  UNL1        0.1620
     12  C         25.0760  -23.6470  -12.3760 C.3     1  UNL1        0.1370
     13  C         25.8290  -22.8830  -13.5110 C.3     1  UNL1        0.0070
     14  C         24.9410  -22.8310  -14.7900 C.3     1  UNL1        0.0420
     15  C         24.7690  -24.1940  -15.4500 C.3     1  UNL1        0.1680
     16  O         26.0380  -24.7470  -15.7760 O.3     1  UNL1       -0.3910
     17  C         26.8390  -24.9690  -14.6220 C.3     1  UNL1        0.1680
     18  C         27.1210  -23.6630  -13.8890 C.3     1  UNL1        0.0420
     19  C         26.2150  -21.4790  -12.9760 C.2     1  UNL1       -0.0480
     20  C         26.4020  -20.3760  -13.8290 C.2     1  UNL1        0.0080
     21  C         26.7190  -19.1120  -13.3210 C.2     1  UNL1        0.0010
     22  C         26.8480  -18.9210  -11.9500 C.2     1  UNL1        0.0000
     23  C         26.6620  -19.9910  -11.0840 C.2     1  UNL1        0.0010
     24  C         26.3460  -21.2550  -11.5900 C.2     1  UNL1        0.0080
     25  S         18.3170  -23.1580   -9.0390 S.O2    1  UNL1        0.2460
     26  O         19.0010  -24.2160   -8.3320 O.2     1  UNL1       -0.2060
     27  O         17.0370  -23.3840   -9.6760 O.2     1  UNL1       -0.2060
     28  N         18.1050  -21.8000   -8.0350 N.pl3   1  UNL1       -0.1810
     29  H         17.3950  -21.2180   -8.4860 H       1  UNL1        0.1460
     30  C         17.6900  -22.0950   -6.6940 C.2     1  UNL1        0.0230
     31  C         18.5130  -21.6630   -5.6550 C.2     1  UNL1        0.0240
     32  C         18.1290  -21.8760   -4.3320 C.2     1  UNL1        0.0020
     33  C         16.9150  -22.5040   -4.0510 C.2     1  UNL1        0.0070
     34  C         16.0640  -22.9100   -5.0890 C.2     1  UNL1       -0.0600
     35  C         14.7670  -23.6010   -4.7780 C.3     1  UNL1        0.0480
     36  C         16.4620  -22.7040   -6.4170 C.2     1  UNL1        0.0310
@<TRIPOS>BOND
     1    16    15    1
     2    16    17    1
     3    15    14    1
     4    14    13    1
     5    17    18    1
     6    18    13    1
     7    20    21    1
     8    20    19    2
     9    13    19    1
    10    13    12    1
    11    21    22    2
    12    11    10    1
    13    19    24    1
    14    12    10    1
    15    10     8   am
    16     5     4    2
    17     5     6    1
    18     4     3    1
    19    22    23    1
    20    24    23    2
    21     7     6    1
    22     6     1    2
    23     3     8    1
    24     3     2    2
    25     8     9    2
    26     1     2    1
    27     1    25    1
    28    27    25    2
    29    25    26    2
    30    25    28    1
    31    29    28    1
    32    28    30    1
    33    30    36    2
    34    30    31    1
    35    36    34    1
    36    31    32    2
    37    34    35    1
    38    34    33    2
    39    32    33    1
