@<TRIPOS>MOLECULE
27710_out_ligand_01.pdbqt
 32 34 0 0 0
SMALL
GASTEIGER

@<TRIPOS>ATOM
      1  C         16.4780  -22.6210   -9.4700 C.2     1  UNL1        0.0330
      2  C         15.9930  -23.8950   -9.7950 C.2     1  UNL1        0.0170
      3  C         15.3870  -24.6820   -8.8140 C.2     1  UNL1        0.0030
      4  C         15.2540  -24.1980   -7.5120 C.2     1  UNL1        0.0240
      5  C         15.7140  -22.9210   -7.1900 C.2     1  UNL1        0.0230
      6  C         16.3230  -22.1310   -8.1660 C.2     1  UNL1        0.0410
      7  C         17.1410  -21.7410  -10.4730 C.2     1  UNL1        0.2510
      8  O         16.5850  -20.7200  -10.8610 O.2     1  UNL1       -0.2680
      9  N         18.4010  -22.1130  -10.8890 N.am    1  UNL1       -0.3530
     10  H         18.9160  -22.8020  -10.3610 H       1  UNL1        0.1630
     11  C         19.1550  -21.2570  -11.7740 C.3     1  UNL1        0.1610
     12  C         20.6190  -21.6070  -11.7310 C.2     1  UNL1       -0.0400
     13  C         21.4350  -21.3610  -12.8420 C.2     1  UNL1        0.0090
     14  C         22.7870  -21.7030  -12.8180 C.2     1  UNL1        0.0010
     15  C         23.3360  -22.3080  -11.6870 C.2     1  UNL1        0.0160
     16  C         22.5340  -22.5830  -10.5690 C.2     1  UNL1        0.0480
     17  C         21.1760  -22.2240  -10.6010 C.2     1  UNL1        0.0250
     18  C         23.1290  -23.2220   -9.3380 C.3     1  UNL1        0.4170
     19  F         24.4000  -23.6720   -9.5330 F       1  UNL1       -0.1660
     20  F         22.4120  -24.2990   -8.9130 F       1  UNL1       -0.1660
     21  F         23.1970  -22.3740   -8.2740 F       1  UNL1       -0.1660
     22  N         15.5630  -22.4060   -5.8610 N.pl3   1  UNL1       -0.1810
     23  H         14.6360  -22.5840   -5.4690 H       1  UNL1        0.1460
     24  S         16.7410  -22.9340   -4.7460 S.O2    1  UNL1        0.2450
     25  O         16.5960  -22.1300   -3.5520 O.2     1  UNL1       -0.2060
     26  O         16.7560  -24.3790   -4.7000 O.2     1  UNL1       -0.2060
     27  C         18.2220  -22.4100   -5.5780 C.2     1  UNL1        0.0740
     28  C         18.7650  -23.1920   -6.6010 C.2     1  UNL1        0.0250
     29  C         19.9260  -22.7630   -7.2460 C.2     1  UNL1        0.0020
     30  C         20.5290  -21.5600   -6.8740 C.2     1  UNL1        0.0000
     31  C         19.9760  -20.7780   -5.8570 C.2     1  UNL1        0.0020
     32  C         18.8170  -21.2000   -5.2070 C.2     1  UNL1        0.0250
@<TRIPOS>BOND
     1    13    14    1
     2    13    12    2
     3    14    15    2
     4    11    12    1
     5    11     9    1
     6    12    17    1
     7    15    16    1
     8     9     7   am
     9     9    10    1
    10     8     7    2
    11    17    16    2
    12    16    18    1
    13     7     1    1
    14     2     1    2
    15     2     3    1
    16    19    18    1
    17     1     6    1
    18    18    20    1
    19    18    21    1
    20     3     4    2
    21     6     5    2
    22     4     5    1
    23    29    30    2
    24    29    28    1
    25     5    22    1
    26    30    31    1
    27    28    27    2
    28    22    23    1
    29    22    24    1
    30    31    32    2
    31    27    32    1
    32    27    24    1
    33    24    26    2
    34    24    25    2
