@<TRIPOS>MOLECULE
27725_out_ligand_01.pdbqt
 36 39 0 0 0
SMALL
GASTEIGER

@<TRIPOS>ATOM
      1  S         16.0800  -22.5950   -9.6640 S.O2    1  UNL1        0.2850
      2  O         16.1170  -24.0010   -9.9980 O.2     1  UNL1       -0.1980
      3  O         14.8790  -21.8080   -9.8700 O.2     1  UNL1       -0.1980
      4  N         16.4480  -22.4350   -8.0350 N.3     1  UNL1       -0.3000
      5  H         16.8110  -21.5140   -7.8010 H       1  UNL1        0.1730
      6  C         17.1310  -23.5640   -7.3640 C.3     1  UNL1        0.1590
      7  C         18.6390  -23.4620   -7.6350 C.2     1  UNL1       -0.0250
      8  C         19.2460  -24.5170   -8.3480 C.2     1  UNL1        0.0110
      9  C         20.5980  -24.4860   -8.6920 C.2     1  UNL1        0.0070
     10  C         21.3950  -23.4100   -8.3080 C.2     1  UNL1       -0.0610
     11  C         22.8440  -23.3660   -8.6940 C.3     1  UNL1        0.0480
     12  C         20.8120  -22.3600   -7.5910 C.2     1  UNL1        0.0140
     13  C         19.4440  -22.3640   -7.2480 C.2     1  UNL1       -0.0530
     14  C         18.9370  -21.2190   -6.4100 C.3     1  UNL1        0.0490
     15  C         16.7720  -23.6960   -5.8830 C.2     1  UNL1       -0.0300
     16  C         15.4360  -23.5470   -5.4660 C.2     1  UNL1        0.0090
     17  C         15.0890  -23.6350   -4.1150 C.2     1  UNL1        0.0010
     18  C         16.0720  -23.8570   -3.1540 C.2     1  UNL1        0.0000
     19  C         17.4020  -23.9830   -3.5430 C.2     1  UNL1        0.0010
     20  C         17.7500  -23.8970   -4.8930 C.2     1  UNL1        0.0090
     21  C         17.3480  -21.8210  -10.6230 C.ar    1  UNL1        0.2370
     22  N         17.3160  -20.5820  -11.0720 N.ar    1  UNL1       -0.1260
     23  N         18.4140  -20.3090  -11.8690 N.ar    1  UNL1       -0.1220
     24  C         19.2190  -21.3400  -11.9610 C.ar    1  UNL1        0.1970
     25  S         18.6990  -22.7370  -11.1300 S.2     1  UNL1       -0.0150
     26  N         20.4110  -21.4810  -12.6190 N.am    1  UNL1       -0.3000
     27  C         21.6130  -21.3890  -11.9560 C.2     1  UNL1        0.2570
     28  O         21.7750  -21.1300  -10.7710 O.2     1  UNL1       -0.2670
     29  H         20.3620  -21.7490  -13.5890 H       1  UNL1        0.1710
     30  C         22.8190  -21.6660  -12.7870 C.2     1  UNL1        0.0320
     31  C         23.0210  -21.0670  -14.0370 C.2     1  UNL1        0.0180
     32  C         24.1670  -21.3730  -14.7800 C.2     1  UNL1        0.0250
     33  C         25.1100  -22.2670  -14.2730 C.2     1  UNL1        0.0340
     34 CL         26.5140  -22.6400  -15.1920 Cl      1  UNL1       -0.0840
     35  C         24.9240  -22.8530  -13.0250 C.2     1  UNL1        0.0250
     36  C         23.7810  -22.5500  -12.2800 C.2     1  UNL1        0.0180
@<TRIPOS>BOND
     1    34    33    1
     2    32    33    2
     3    32    31    1
     4    33    35    1
     5    31    30    2
     6    29    26    1
     7    35    36    2
     8    30    36    1
     9    30    27    1
    10    26    24    1
    11    26    27   am
    12    24    23   ar
    13    24    25   ar
    14    27    28    2
    15    23    22   ar
    16    25    21   ar
    17    22    21   ar
    18    21     1    1
    19     2     1    2
    20     3     1    2
    21     1     4    1
    22    11    10    1
    23     9     8    1
    24     9    10    2
    25     8     7    2
    26    10    12    1
    27     4     5    1
    28     4     6    1
    29     7     6    1
    30     7    13    1
    31    12    13    2
    32     6    15    1
    33    13    14    1
    34    15    16    2
    35    15    20    1
    36    16    17    1
    37    20    19    2
    38    17    18    2
    39    19    18    1
