@<TRIPOS>MOLECULE
2774_out_ligand_01.pdbqt
 36 39 0 0 0
SMALL
GASTEIGER

@<TRIPOS>ATOM
      1  C         19.2690  -22.4410  -10.2210 C.2     1  UNL1        0.0670
      2  C         18.3600  -21.7370  -11.0190 C.2     1  UNL1        0.0210
      3  C         18.8290  -20.7730  -11.9040 C.2     1  UNL1        0.0200
      4  C         20.1920  -20.5400  -11.9520 C.2     1  UNL1        0.1180
      5  N         21.0970  -21.2000  -11.1930 N.2     1  UNL1       -0.2530
      6  C         20.6270  -22.1510  -10.3370 C.2     1  UNL1        0.1090
      7  C         18.7520  -23.4030   -9.2300 C.2     1  UNL1        0.2540
      8  N         17.5110  -23.1010   -8.7100 N.am    1  UNL1       -0.3560
      9  H         16.9590  -22.3730   -9.1450 H       1  UNL1        0.1620
     10  O         19.4330  -24.3650   -8.9020 O.2     1  UNL1       -0.2680
     11  C         16.8350  -24.0020   -7.7890 C.3     1  UNL1        0.1270
     12  C         17.7150  -24.4030   -6.6010 C.3     1  UNL1        0.0610
     13  C         17.8470  -23.2880   -5.5840 C.2     1  UNL1       -0.0230
     14  C         18.7380  -22.2300   -5.8370 C.2     1  UNL1        0.0160
     15  C         18.8920  -21.1820   -4.9240 C.2     1  UNL1       -0.0610
     16  C         18.1230  -21.1810   -3.7600 C.2     1  UNL1        0.0090
     17  C         19.8300  -20.0490   -5.2240 C.3     1  UNL1        0.0480
     18  C         17.2320  -22.2270   -3.4960 C.2     1  UNL1        0.0380
     19  C         17.0910  -23.2840   -4.3980 C.2     1  UNL1        0.0740
     20  O         16.2450  -24.3470   -4.2270 O.2     1  UNL1       -0.3550
     21  C         14.8600  -24.1310   -4.4590 C.3     1  UNL1        0.2100
     22  S         21.9140  -23.0110   -9.4580 S.3     1  UNL1       -0.1000
     23  C         23.1470  -21.6730   -9.4220 C.3     1  UNL1        0.1840
     24  C         24.1050  -21.7290  -10.6070 C.2     1  UNL1        0.2310
     25  O         25.0530  -20.9480  -10.6670 O.2     1  UNL1       -0.2720
     26  N         23.7540  -22.6440  -11.5820 N.am    1  UNL1       -0.3260
     27  H         22.9600  -23.2480  -11.3580 H       1  UNL1        0.1690
     28  C         24.3860  -22.8910  -12.8170 C.2     1  UNL1        0.0370
     29  C         25.3630  -23.8850  -13.0140 C.2     1  UNL1        0.0320
     30  C         25.9600  -24.0750  -14.2670 C.2     1  UNL1        0.0420
     31  C         25.5640  -23.2550  -15.2990 C.2     1  UNL1        0.1050
     32  C         24.6140  -22.2800  -15.1170 C.2     1  UNL1        0.1070
     33  O         26.0340  -23.2910  -16.5730 O.2     1  UNL1       -0.3230
     34  C         24.0090  -22.0750  -13.8940 C.2     1  UNL1        0.0690
     35  O         24.3660  -21.5780  -16.2540 O.2     1  UNL1       -0.3230
     36  C         25.2670  -22.2280  -17.1740 C.3     1  UNL1        0.3520
@<TRIPOS>BOND
     1    36    33    1
     2    36    35    1
     3    33    31    1
     4    35    32    1
     5    31    32    2
     6    31    30    1
     7    32    34    1
     8    30    29    2
     9    34    28    2
    10    29    28    1
    11    28    26    1
    12     4     3    2
    13     4     5    1
    14     3     2    1
    15    26    27    1
    16    26    24   am
    17     5     6    2
    18     2     1    2
    19    25    24    2
    20    24    23    1
    21     6     1    1
    22     6    22    1
    23     1     7    1
    24    22    23    1
    25     7    10    2
    26     7     8   am
    27     9     8    1
    28     8    11    1
    29    11    12    1
    30    12    13    1
    31    14    13    2
    32    14    15    1
    33    13    19    1
    34    17    15    1
    35    15    16    2
    36    21    20    1
    37    19    20    1
    38    19    18    2
    39    16    18    1
