@<TRIPOS>MOLECULE
27751_out_ligand_01.pdbqt
 34 36 0 0 0
SMALL
GASTEIGER

@<TRIPOS>ATOM
      1  C         22.0220  -22.6370  -11.5200 C.2     1  UNL1        0.0290
      2  C         20.7110  -22.3860  -11.1050 C.2     1  UNL1        0.0420
      3  C         19.9530  -21.3980  -11.7420 C.2     1  UNL1        0.0330
      4  C         20.5070  -20.6670  -12.7970 C.2     1  UNL1        0.0170
      5  C         21.8200  -20.9160  -13.2040 C.2     1  UNL1        0.0090
      6  C         22.5900  -21.9060  -12.5750 C.2     1  UNL1       -0.0400
      7  C         24.0070  -22.1290  -13.0240 C.3     1  UNL1        0.0500
      8  C         18.5600  -21.1720  -11.2790 C.2     1  UNL1        0.2510
      9  O         17.9000  -20.2570  -11.7550 O.2     1  UNL1       -0.2680
     10  N         18.0850  -22.0580  -10.3350 N.am    1  UNL1       -0.3530
     11  H         18.5940  -22.9160  -10.1800 H       1  UNL1        0.1630
     12  C         16.6990  -22.0400   -9.9230 C.3     1  UNL1        0.1610
     13  C         16.5160  -22.7930   -8.6300 C.2     1  UNL1       -0.0400
     14  C         17.1160  -24.0460   -8.4410 C.2     1  UNL1        0.0090
     15  C         16.9250  -24.7480   -7.2520 C.2     1  UNL1        0.0010
     16  C         16.1290  -24.2100   -6.2400 C.2     1  UNL1        0.0160
     17  C         15.5050  -22.9650   -6.4110 C.2     1  UNL1        0.0480
     18  C         15.7100  -22.2640   -7.6100 C.2     1  UNL1        0.0250
     19  C         14.6620  -22.3730   -5.3090 C.3     1  UNL1        0.4170
     20  F         15.3930  -21.7630   -4.3340 F       1  UNL1       -0.1660
     21  F         13.9050  -23.3130   -4.6750 F       1  UNL1       -0.1660
     22  F         13.7840  -21.4320   -5.7570 F       1  UNL1       -0.1660
     23  N         22.8070  -23.6070  -10.8070 N.pl3   1  UNL1       -0.1810
     24  H         22.2090  -24.3640  -10.4650 H       1  UNL1        0.1460
     25  S         23.6040  -22.9700   -9.4340 S.O2    1  UNL1        0.2450
     26  O         24.2260  -21.7350   -9.8610 O.2     1  UNL1       -0.2060
     27  O         24.3500  -24.0120   -8.7620 O.2     1  UNL1       -0.2060
     28  C         22.2100  -22.5640   -8.4130 C.2     1  UNL1        0.0740
     29  C         22.2050  -21.3810   -7.6710 C.2     1  UNL1        0.0250
     30  C         21.1050  -21.0810   -6.8670 C.2     1  UNL1        0.0080
     31  C         20.0100  -21.9550   -6.8020 C.2     1  UNL1       -0.0620
     32  C         18.8460  -21.6450   -5.9070 C.3     1  UNL1        0.0480
     33  C         20.0420  -23.1510   -7.5340 C.2     1  UNL1        0.0080
     34  C         21.1380  -23.4570   -8.3410 C.2     1  UNL1        0.0250
@<TRIPOS>BOND
     1     5     4    2
     2     5     6    1
     3     7     6    1
     4     4     3    1
     5     6     1    2
     6     9     8    2
     7     3     8    1
     8     3     2    2
     9     1     2    1
    10     1    23    1
    11     8    10   am
    12    23    24    1
    13    23    25    1
    14    10    11    1
    15    10    12    1
    16    12    13    1
    17    26    25    2
    18    25    27    2
    19    25    28    1
    20    13    14    2
    21    13    18    1
    22    14    15    1
    23    28    34    2
    24    28    29    1
    25    34    33    1
    26    29    30    2
    27    18    17    2
    28    33    31    2
    29    15    16    2
    30    30    31    1
    31    31    32    1
    32    17    16    1
    33    17    19    1
    34    22    19    1
    35    19    21    1
    36    19    20    1
