@<TRIPOS>MOLECULE
27766_out_ligand_01.pdbqt
 37 40 0 0 0
SMALL
GASTEIGER

@<TRIPOS>ATOM
      1  C         19.3310  -22.4780  -10.2190 C.2     1  UNL1        0.0860
      2  C         20.6670  -22.9090  -10.1620 C.2     1  UNL1        0.0420
      3  C         21.6050  -22.3900  -11.0560 C.2     1  UNL1        0.0330
      4  C         21.2200  -21.4340  -12.0000 C.2     1  UNL1        0.0170
      5  C         19.8900  -21.0120  -12.0610 C.2     1  UNL1        0.0090
      6  C         18.9250  -21.5220  -11.1730 C.2     1  UNL1       -0.0390
      7  C         17.5120  -21.0230  -11.2990 C.3     1  UNL1        0.0500
      8  C         23.0170  -22.8300  -10.9530 C.2     1  UNL1        0.2510
      9  O         23.5980  -22.7710   -9.8750 O.2     1  UNL1       -0.2680
     10  N         23.5780  -23.2920  -12.1220 N.am    1  UNL1       -0.3560
     11  H         22.9770  -23.4700  -12.9130 H       1  UNL1        0.1620
     12  C         24.9610  -23.7420  -12.1880 C.3     1  UNL1        0.1370
     13  C         25.7890  -23.0260  -13.3110 C.3     1  UNL1        0.0070
     14  C         27.1200  -23.8070  -13.5450 C.3     1  UNL1        0.0420
     15  C         27.0160  -24.8870  -14.6200 C.3     1  UNL1        0.1680
     16  O         25.7030  -25.4250  -14.6570 O.3     1  UNL1       -0.3910
     17  C         24.7490  -24.4890  -15.1530 C.3     1  UNL1        0.1680
     18  C         24.9970  -23.0660  -14.6450 C.3     1  UNL1        0.0420
     19  C         26.1430  -21.5910  -12.8470 C.2     1  UNL1       -0.0480
     20  C         26.2600  -20.5570  -13.7990 C.2     1  UNL1        0.0080
     21  C         26.5880  -19.2530  -13.4210 C.2     1  UNL1        0.0010
     22  C         26.8030  -18.9480  -12.0820 C.2     1  UNL1        0.0000
     23  C         26.6920  -19.9480  -11.1230 C.2     1  UNL1        0.0010
     24  C         26.3670  -21.2560  -11.5000 C.2     1  UNL1        0.0080
     25  S         18.1890  -23.2000   -9.0500 S.O2    1  UNL1        0.2630
     26  O         16.9700  -23.5250   -9.7620 O.2     1  UNL1       -0.2000
     27  O         18.8780  -24.2200   -8.2910 O.2     1  UNL1       -0.2000
     28  N         17.8100  -21.8970   -8.0400 N.pl3   1  UNL1       -0.2800
     29  H         17.2870  -21.1880   -8.5500 H       1  UNL1        0.1790
     30  C         17.3890  -22.1860   -6.7070 C.2     1  UNL1        0.0490
     31  C         18.1490  -21.7660   -5.6060 C.2     1  UNL1       -0.0350
     32  C         17.6600  -22.0190   -4.3160 C.2     1  UNL1        0.0090
     33  C         19.4560  -21.0410   -5.7680 C.3     1  UNL1        0.0500
     34  C         16.4380  -22.6730   -4.1290 C.2     1  UNL1        0.0070
     35  C         15.6870  -23.0960   -5.2280 C.2     1  UNL1       -0.0600
     36  C         14.3500  -23.7500   -5.0310 C.3     1  UNL1        0.0480
     37  C         16.1680  -22.8400   -6.5180 C.2     1  UNL1        0.0370
@<TRIPOS>BOND
     1    17    16    1
     2    17    18    1
     3    16    15    1
     4    18    13    1
     5    15    14    1
     6    20    21    1
     7    20    19    2
     8    14    13    1
     9    21    22    2
    10    13    19    1
    11    13    12    1
    12    11    10    1
    13    19    24    1
    14    12    10    1
    15    10     8   am
    16    22    23    1
    17     5     4    2
    18     5     6    1
    19     4     3    1
    20    24    23    2
    21     7     6    1
    22     6     1    2
    23     3     8    1
    24     3     2    2
    25     8     9    2
    26     1     2    1
    27     1    25    1
    28    26    25    2
    29    25    27    2
    30    25    28    1
    31    29    28    1
    32    28    30    1
    33    30    37    2
    34    30    31    1
    35    37    35    1
    36    33    31    1
    37    31    32    2
    38    35    36    1
    39    35    34    2
    40    32    34    1
