@<TRIPOS>MOLECULE
27776_out_ligand_01.pdbqt
 32 34 0 0 0
SMALL
GASTEIGER

@<TRIPOS>ATOM
      1  C         18.9000  -22.1640  -10.3250 C.2     1  UNL1        0.0330
      2  C         18.6760  -21.1840  -11.2990 C.2     1  UNL1        0.0170
      3  C         19.6880  -20.8560  -12.2010 C.2     1  UNL1        0.0090
      4  C         20.9370  -21.4980  -12.1440 C.2     1  UNL1       -0.0400
      5  C         22.0180  -21.0950  -13.1070 C.3     1  UNL1        0.0500
      6  C         21.1550  -22.4680  -11.1520 C.2     1  UNL1        0.0290
      7  C         20.1410  -22.8040  -10.2500 C.2     1  UNL1        0.0420
      8  C         17.8560  -22.5250   -9.3320 C.2     1  UNL1        0.2520
      9  N         18.3120  -23.1320   -8.1900 N.am    1  UNL1       -0.3480
     10  H         19.3060  -23.1460   -7.9880 H       1  UNL1        0.1630
     11  O         16.6810  -22.2640   -9.5620 O.2     1  UNL1       -0.2680
     12  C         17.4490  -23.4880   -7.0770 C.3     1  UNL1        0.1160
     13  C         17.5120  -24.9940   -6.8210 C.3     1  UNL1        0.0370
     14  C         17.8040  -22.6990   -5.8240 C.2     1  UNL1       -0.0030
     15  C         18.7160  -21.6320   -5.9500 C.2     1  UNL1        0.0120
     16  C         19.0610  -20.8500   -4.8510 C.2     1  UNL1        0.0010
     17  C         18.5010  -21.1200   -3.6070 C.2     1  UNL1        0.0030
     18  C         17.5990  -22.1760   -3.4590 C.2     1  UNL1        0.0370
     19  C         17.2460  -22.9730   -4.5560 C.2     1  UNL1        0.0760
     20  O         16.3760  -24.0340   -4.4890 O.2     1  UNL1       -0.3550
     21  C         14.9910  -23.7380   -4.3610 C.3     1  UNL1        0.2100
     22  N         22.4050  -23.1770  -11.0920 N.pl3   1  UNL1       -0.1810
     23  H         22.8570  -23.1710  -12.0100 H       1  UNL1        0.1460
     24  S         23.5310  -22.4810  -10.0030 S.O2    1  UNL1        0.2450
     25  O         22.9780  -21.1970   -9.6180 O.2     1  UNL1       -0.2060
     26  O         23.9570  -23.4590   -9.0280 O.2     1  UNL1       -0.2060
     27  C         24.9050  -22.1810  -11.0840 C.2     1  UNL1        0.0740
     28  C         25.7190  -21.0600  -10.8850 C.2     1  UNL1        0.0250
     29  C         26.7850  -20.8260  -11.7530 C.2     1  UNL1        0.0020
     30  C         27.0320  -21.7030  -12.8120 C.2     1  UNL1        0.0000
     31  C         26.2170  -22.8220  -13.0050 C.2     1  UNL1        0.0020
     32  C         25.1510  -23.0650  -12.1380 C.2     1  UNL1        0.0250
@<TRIPOS>BOND
     1     5     4    1
     2    31    30    2
     3    31    32    1
     4    30    29    1
     5     3     4    2
     6     3     2    1
     7     4     6    1
     8    32    27    2
     9    23    22    1
    10    29    28    2
    11     2     1    2
    12     6    22    1
    13     6     7    2
    14    22    24    1
    15    27    28    1
    16    27    24    1
    17     1     7    1
    18     1     8    1
    19    24    25    2
    20    24    26    2
    21    11     8    2
    22     8     9   am
    23     9    10    1
    24     9    12    1
    25    12    13    1
    26    12    14    1
    27    15    14    2
    28    15    16    1
    29    14    19    1
    30    16    17    2
    31    19    20    1
    32    19    18    2
    33    20    21    1
    34    17    18    1
