@<TRIPOS>MOLECULE
27787_out_ligand_01.pdbqt
 33 36 0 0 0
SMALL
GASTEIGER

@<TRIPOS>ATOM
      1  N         22.8850  -23.1180  -11.2290 N.pl3   1  UNL1       -0.1800
      2  H         22.5370  -24.0900  -11.2190 H       1  UNL1        0.1460
      3  S         23.2260  -22.6830   -9.6210 S.O2    1  UNL1        0.2450
      4  O         23.4210  -21.2500   -9.5460 O.2     1  UNL1       -0.2060
      5  O         24.2300  -23.6060   -9.1370 O.2     1  UNL1       -0.2060
      6  C         21.7100  -23.0940   -8.7930 C.2     1  UNL1        0.0750
      7  C         21.1270  -22.1780   -7.9120 C.2     1  UNL1        0.0370
      8  C         19.9250  -22.4980   -7.2630 C.2     1  UNL1       -0.0240
      9  C         19.3090  -21.5970   -6.3810 C.2     1  UNL1        0.0150
     10  C         19.3170  -23.7530   -7.5010 C.2     1  UNL1       -0.0230
     11  C         18.1100  -21.9250   -5.7400 C.2     1  UNL1        0.0370
     12  C         17.5070  -23.1580   -5.9720 C.2     1  UNL1        0.0690
     13  C         18.1130  -24.0630   -6.8490 C.2     1  UNL1        0.0490
     14  C         19.9290  -24.6630   -8.3790 C.2     1  UNL1        0.0140
     15  C         21.1230  -24.3390   -9.0240 C.2     1  UNL1        0.0260
     16  O         16.3380  -23.6010   -5.4140 O.2     1  UNL1       -0.3560
     17  C         15.2040  -22.7520   -5.5400 C.3     1  UNL1        0.2100
     18  C         23.9430  -22.9050  -12.1770 C.2     1  UNL1        0.0380
     19  C         25.0970  -23.6870  -12.0720 C.2     1  UNL1        0.0250
     20  C         26.1140  -23.5680  -13.0210 C.2     1  UNL1        0.0020
     21  C         25.9830  -22.6710  -14.0800 C.2     1  UNL1        0.0010
     22  C         24.8310  -21.8900  -14.1960 C.2     1  UNL1        0.0190
     23  C         23.8000  -22.0110  -13.2530 C.2     1  UNL1        0.0540
     24  C         22.5800  -21.1680  -13.3570 C.2     1  UNL1        0.2530
     25  O         22.4750  -20.3540  -14.2700 O.2     1  UNL1       -0.2680
     26  N         21.6310  -21.3420  -12.3760 N.am    1  UNL1       -0.3510
     27  H         21.9130  -21.7790  -11.5080 H       1  UNL1        0.1630
     28  C         20.5140  -20.4310  -12.2800 C.3     1  UNL1        0.1870
     29  C         19.3660  -21.1550  -11.6830 C.2     1  UNL1        0.0700
     30  C         19.2260  -22.4050  -11.1160 C.2     1  UNL1        0.0360
     31  C         17.8690  -22.5170  -10.7250 C.2     1  UNL1        0.0270
     32  C         17.2690  -21.3310  -11.0760 C.2     1  UNL1        0.1420
     33  O         18.1690  -20.4950  -11.6550 O.2     1  UNL1       -0.3250
@<TRIPOS>BOND
     1    25    24    2
     2    22    21    2
     3    22    23    1
     4    21    20    1
     5    24    23    1
     6    24    26   am
     7    23    18    2
     8    20    19    2
     9    26    28    1
    10    26    27    1
    11    28    29    1
    12    18    19    1
    13    18     1    1
    14    29    33    1
    15    29    30    2
    16    33    32    1
    17     1     2    1
    18     1     3    1
    19    30    31    1
    20    32    31    2
    21     3     4    2
    22     3     5    2
    23     3     6    1
    24    15     6    2
    25    15    14    1
    26     6     7    1
    27    14    10    2
    28     7     8    2
    29    10     8    1
    30    10    13    1
    31     8     9    1
    32    13    12    2
    33     9    11    2
    34    12    11    1
    35    12    16    1
    36    17    16    1
