@<TRIPOS>MOLECULE
27808_out_ligand_01.pdbqt
 35 38 0 0 0
SMALL
GASTEIGER

@<TRIPOS>ATOM
      1  C         20.4610  -21.8500   -6.9730 C.2     1  UNL1        0.0340
      2  C         20.2890  -20.9360   -5.9310 C.2     1  UNL1        0.0170
      3  C         19.1170  -20.9600   -5.1690 C.2     1  UNL1        0.0090
      4  C         18.1040  -21.9040   -5.4180 C.2     1  UNL1       -0.0390
      5  C         16.8690  -21.8600   -4.5620 C.3     1  UNL1        0.0500
      6  C         18.2930  -22.8240   -6.4680 C.2     1  UNL1        0.0860
      7  C         19.4660  -22.7930   -7.2400 C.2     1  UNL1        0.0420
      8  C         21.7010  -21.8710   -7.7970 C.2     1  UNL1        0.2570
      9  N         21.7260  -22.8460   -8.7670 N.am    1  UNL1       -0.3000
     10  H         20.9960  -23.5370   -8.8330 H       1  UNL1        0.1710
     11  O         22.5830  -21.0650   -7.5350 O.2     1  UNL1       -0.2670
     12  C         22.7850  -22.9870   -9.6210 C.ar    1  UNL1        0.1970
     13  N         24.0270  -23.3240   -9.3910 N.ar    1  UNL1       -0.1230
     14  N         24.7740  -23.3360  -10.5540 N.ar    1  UNL1       -0.1400
     15  C         24.0700  -23.0050  -11.6240 C.ar    1  UNL1        0.1330
     16  S         22.4210  -22.6490  -11.2510 S.2     1  UNL1       -0.0280
     17  C         24.6150  -22.9450  -12.9930 C.2     1  UNL1        0.0020
     18  C         25.5220  -23.8840  -13.5110 C.2     1  UNL1        0.0150
     19  C         26.0050  -23.7740  -14.8210 C.2     1  UNL1        0.0070
     20  C         25.5870  -22.7300  -15.6510 C.2     1  UNL1       -0.0620
     21  C         26.1320  -22.5970  -17.0420 C.3     1  UNL1        0.0480
     22  C         24.6970  -21.7810  -15.1430 C.2     1  UNL1        0.0070
     23  C         24.2150  -21.8920  -13.8340 C.2     1  UNL1        0.0150
     24  S         17.0680  -24.0600   -6.8950 S.O2    1  UNL1        0.2630
     25  O         17.4420  -25.3030   -6.2530 O.2     1  UNL1       -0.2000
     26  O         15.7560  -23.4910   -6.6710 O.2     1  UNL1       -0.2000
     27  N         17.3000  -24.2880   -8.5490 N.pl3   1  UNL1       -0.2810
     28  H         17.9410  -25.0500   -8.7530 H       1  UNL1        0.1790
     29  C         17.2620  -23.1800   -9.4430 C.2     1  UNL1        0.0430
     30  C         16.0710  -22.4600   -9.5520 C.2     1  UNL1        0.0300
     31  C         15.9840  -21.3820  -10.4330 C.2     1  UNL1        0.0030
     32  C         17.0870  -21.0230  -11.2070 C.2     1  UNL1        0.0070
     33  C         18.2870  -21.7350  -11.1030 C.2     1  UNL1       -0.0600
     34  C         19.4850  -21.3360  -11.9140 C.3     1  UNL1        0.0480
     35  C         18.3740  -22.7990  -10.1940 C.2     1  UNL1        0.0370
@<TRIPOS>BOND
     1    21    20    1
     2    20    22    2
     3    20    19    1
     4    22    23    1
     5    19    18    2
     6    23    17    2
     7    18    17    1
     8    17    15    1
     9    34    33    1
    10    15    16   ar
    11    15    14   ar
    12    16    12   ar
    13    32    33    2
    14    32    31    1
    15    33    35    1
    16    14    13   ar
    17    31    30    2
    18    35    29    2
    19    12    13   ar
    20    12     9    1
    21    30    29    1
    22    29    27    1
    23    10     9    1
    24     9     8   am
    25    28    27    1
    26    27    24    1
    27     8    11    2
    28     8     1    1
    29     7     1    2
    30     7     6    1
    31     1     2    1
    32    24    26    2
    33    24     6    1
    34    24    25    2
    35     6     4    2
    36     2     3    2
    37     4     3    1
    38     4     5    1
