@<TRIPOS>MOLECULE
27813_out_ligand_01.pdbqt
 34 36 0 0 0
SMALL
GASTEIGER

@<TRIPOS>ATOM
      1  C         17.6670  -23.6530   -8.4890 C.2     1  UNL1        0.0970
      2  C         19.0420  -23.8910   -8.3400 C.2     1  UNL1        0.0430
      3  C         19.9530  -23.3640   -9.2640 C.2     1  UNL1        0.0330
      4  C         19.4860  -22.6150  -10.3480 C.2     1  UNL1        0.0190
      5  C         18.1170  -22.3690  -10.4860 C.2     1  UNL1        0.0260
      6  C         17.2020  -22.8790   -9.5570 C.2     1  UNL1        0.0570
      7 CL         15.5420  -22.4790   -9.8040 Cl      1  UNL1       -0.0830
      8  C         21.3970  -23.6620   -9.0770 C.2     1  UNL1        0.2510
      9  O         21.7470  -24.8030   -8.8000 O.2     1  UNL1       -0.2680
     10  N         22.2650  -22.6030   -9.2150 N.am    1  UNL1       -0.3530
     11  H         21.9190  -21.6750   -9.4140 H       1  UNL1        0.1630
     12  C         23.6980  -22.7780   -9.1510 C.3     1  UNL1        0.1610
     13  C         24.2940  -22.7140  -10.5340 C.2     1  UNL1       -0.0400
     14  C         25.5700  -23.2300  -10.7910 C.2     1  UNL1        0.0090
     15  C         26.1240  -23.1410  -12.0680 C.2     1  UNL1        0.0010
     16  C         25.4120  -22.5310  -13.1000 C.2     1  UNL1        0.0160
     17  C         24.1320  -22.0060  -12.8680 C.2     1  UNL1        0.0480
     18  C         23.5860  -22.0960  -11.5780 C.2     1  UNL1        0.0250
     19  C         23.3660  -21.3190  -13.9720 C.3     1  UNL1        0.4170
     20  F         23.3670  -22.0180  -15.1430 F       1  UNL1       -0.1660
     21  F         23.8770  -20.0930  -14.2700 F       1  UNL1       -0.1660
     22  F         22.0550  -21.1150  -13.6660 F       1  UNL1       -0.1660
     23  S         16.5210  -24.3290   -7.3200 S.O2    1  UNL1        0.2470
     24  O         17.2850  -25.0060   -6.2940 O.2     1  UNL1       -0.2050
     25  O         15.4820  -24.9730   -8.0930 O.2     1  UNL1       -0.2050
     26  N         15.8850  -22.9440   -6.5400 N.pl3   1  UNL1       -0.1810
     27  H         15.7270  -22.2550   -7.2790 H       1  UNL1        0.1460
     28  C         16.7570  -22.3870   -5.5450 C.2     1  UNL1        0.0230
     29  C         16.5210  -22.6690   -4.2010 C.2     1  UNL1        0.0240
     30  C         17.3870  -22.1740   -3.2280 C.2     1  UNL1        0.0020
     31  C         18.4930  -21.4080   -3.6010 C.2     1  UNL1        0.0070
     32  C         18.7430  -21.1290   -4.9510 C.2     1  UNL1       -0.0600
     33  C         19.9620  -20.3530   -5.3530 C.3     1  UNL1        0.0480
     34  C         17.8750  -21.6410   -5.9250 C.2     1  UNL1        0.0310
@<TRIPOS>BOND
     1    20    19    1
     2    21    19    1
     3    19    22    1
     4    19    17    1
     5    16    17    2
     6    16    15    1
     7    17    18    1
     8    15    14    2
     9    18    13    2
    10    14    13    1
    11    13    12    1
    12     5     4    2
    13     5     6    1
    14     4     3    1
    15     7     6    1
    16     6     1    2
    17    11    10    1
    18     3     8    1
    19     3     2    2
    20    10    12    1
    21    10     8   am
    22     8     9    2
    23     1     2    1
    24     1    23    1
    25    25    23    2
    26    23    26    1
    27    23    24    2
    28    27    26    1
    29    26    28    1
    30    34    28    2
    31    34    32    1
    32    28    29    1
    33    33    32    1
    34    32    31    2
    35    29    30    2
    36    31    30    1
