@<TRIPOS>MOLECULE
27827_out_ligand_01.pdbqt
 37 40 0 0 0
SMALL
GASTEIGER

@<TRIPOS>ATOM
      1  C         17.2160  -20.7710  -11.1460 C.3     1  UNL1        0.0500
      2  C         18.6140  -21.3220  -11.1420 C.2     1  UNL1       -0.0390
      3  C         19.5340  -20.7960  -12.0630 C.2     1  UNL1        0.0090
      4  C         20.8560  -21.2500  -12.1110 C.2     1  UNL1        0.0170
      5  C         21.2920  -22.2590  -11.2440 C.2     1  UNL1        0.0330
      6  C         20.3740  -22.8140  -10.3390 C.2     1  UNL1        0.0420
      7  C         19.0480  -22.3490  -10.2820 C.2     1  UNL1        0.0810
      8  C         22.7010  -22.7710  -11.2110 C.2     1  UNL1        0.2510
      9  O         23.1950  -23.1260  -10.1450 O.2     1  UNL1       -0.2680
     10  N         23.3960  -22.8040  -12.4020 N.am    1  UNL1       -0.3560
     11  H         22.8880  -22.7340  -13.2710 H       1  UNL1        0.1620
     12  C         24.7190  -23.4120  -12.4980 C.3     1  UNL1        0.1370
     13  C         25.6460  -22.6760  -13.5270 C.3     1  UNL1        0.0070
     14  C         24.8310  -22.3220  -14.8080 C.3     1  UNL1        0.0420
     15  C         24.9180  -23.3790  -15.9060 C.3     1  UNL1        0.1680
     16  O         25.0260  -24.6760  -15.3380 O.3     1  UNL1       -0.3910
     17  C         26.2740  -24.8820  -14.6820 C.3     1  UNL1        0.1680
     18  C         26.7870  -23.6360  -13.9560 C.3     1  UNL1        0.0420
     19  C         26.1520  -21.3650  -12.8760 C.2     1  UNL1       -0.0480
     20  C         26.1510  -21.1580  -11.4870 C.2     1  UNL1        0.0080
     21  C         26.5600  -19.9380  -10.9370 C.2     1  UNL1        0.0010
     22  C         26.9710  -18.8980  -11.7630 C.2     1  UNL1        0.0000
     23  C         26.9830  -19.0760  -13.1410 C.2     1  UNL1        0.0010
     24  C         26.5750  -20.2950  -13.6920 C.2     1  UNL1        0.0080
     25  S         17.9520  -23.1200   -9.0940 S.O2    1  UNL1        0.2460
     26  O         16.8020  -23.6260   -9.8070 O.2     1  UNL1       -0.2060
     27  O         18.7490  -23.9800   -8.2470 O.2     1  UNL1       -0.2060
     28  N         17.5240  -21.7610   -8.1520 N.pl3   1  UNL1       -0.1810
     29  H         18.3230  -21.1260   -8.1460 H       1  UNL1        0.1460
     30  C         17.0910  -22.0820   -6.8180 C.2     1  UNL1        0.0290
     31  C         15.8480  -22.7100   -6.6980 C.2     1  UNL1        0.0250
     32  C         15.3710  -23.1050   -5.4540 C.2     1  UNL1        0.0020
     33  C         16.1440  -22.8900   -4.3190 C.2     1  UNL1        0.0070
     34  C         17.4050  -22.2790   -4.4150 C.2     1  UNL1       -0.0540
     35  C         18.2180  -22.1190   -3.1540 C.3     1  UNL1        0.0490
     36  C         17.8910  -21.8530   -5.6780 C.2     1  UNL1       -0.0340
     37  C         19.2680  -21.2430   -5.7680 C.3     1  UNL1        0.0500
@<TRIPOS>BOND
     1    15    16    1
     2    15    14    1
     3    16    17    1
     4    14    13    1
     5    17    18    1
     6    18    13    1
     7    24    23    1
     8    24    19    2
     9    13    19    1
    10    13    12    1
    11    11    10    1
    12    23    22    2
    13    19    20    1
    14    12    10    1
    15    10     8   am
    16     4     3    1
    17     4     5    2
    18     3     2    2
    19    22    21    1
    20    20    21    2
    21     5     8    1
    22     5     6    1
    23     8     9    2
    24     1     2    1
    25     2     7    1
    26     6     7    2
    27     7    25    1
    28    26    25    2
    29    25    27    2
    30    25    28    1
    31    28    29    1
    32    28    30    1
    33    30    31    2
    34    30    36    1
    35    31    32    1
    36    37    36    1
    37    36    34    2
    38    32    33    2
    39    34    33    1
    40    34    35    1
