@<TRIPOS>MOLECULE
27820_out_ligand_01.pdbqt
 34 36 0 0 0
SMALL
GASTEIGER

@<TRIPOS>ATOM
      1  C         20.9880  -22.2870  -10.8990 C.2     1  UNL1        0.0330
      2  C         20.5750  -21.3290  -11.8290 C.2     1  UNL1        0.0170
      3  C         19.2360  -20.9310  -11.8750 C.2     1  UNL1        0.0090
      4  C         18.2800  -21.4900  -11.0090 C.2     1  UNL1       -0.0390
      5  C         16.8590  -21.0070  -11.1110 C.3     1  UNL1        0.0500
      6  C         18.7100  -22.4550  -10.0750 C.2     1  UNL1        0.0810
      7  C         20.0550  -22.8520  -10.0240 C.2     1  UNL1        0.0420
      8  C         22.3990  -22.7580  -10.8320 C.2     1  UNL1        0.2520
      9  N         23.1620  -22.5420  -11.9590 N.am    1  UNL1       -0.3480
     10  H         22.8320  -21.8510  -12.6190 H       1  UNL1        0.1630
     11  O         22.8150  -23.2770   -9.8030 O.2     1  UNL1       -0.2680
     12  C         24.6020  -22.7830  -11.9570 C.3     1  UNL1        0.1160
     13  C         24.9970  -23.8860  -12.9480 C.3     1  UNL1        0.0370
     14  C         25.3300  -21.4760  -12.2570 C.2     1  UNL1       -0.0030
     15  C         26.1940  -20.9150  -11.2960 C.2     1  UNL1        0.0120
     16  C         26.8810  -19.7290  -11.5510 C.2     1  UNL1        0.0010
     17  C         26.7250  -19.0900  -12.7720 C.2     1  UNL1        0.0030
     18  C         25.8840  -19.6350  -13.7430 C.2     1  UNL1        0.0370
     19  C         25.1870  -20.8260  -13.5010 C.2     1  UNL1        0.0760
     20  O         24.3510  -21.4260  -14.4050 O.2     1  UNL1       -0.3550
     21  C         24.7400  -21.4230  -15.7720 C.3     1  UNL1        0.2100
     22  S         17.5770  -23.2230   -8.9190 S.O2    1  UNL1        0.2460
     23  O         18.3410  -24.1180   -8.0790 O.2     1  UNL1       -0.2060
     24  O         16.4310  -23.6880   -9.6690 O.2     1  UNL1       -0.2060
     25  N         17.0810  -21.8490   -8.0390 N.pl3   1  UNL1       -0.1810
     26  H         16.3030  -21.4160   -8.5340 H       1  UNL1        0.1460
     27  C         16.7840  -22.0930   -6.6520 C.2     1  UNL1        0.0290
     28  C         15.5030  -22.5450   -6.3330 C.2     1  UNL1        0.0250
     29  C         15.1540  -22.7880   -5.0100 C.2     1  UNL1        0.0020
     30  C         16.0860  -22.5740   -3.9990 C.2     1  UNL1        0.0070
     31  C         17.3810  -22.1160   -4.2960 C.2     1  UNL1       -0.0540
     32  C         18.3380  -21.9080   -3.1530 C.3     1  UNL1        0.0490
     33  C         17.7420  -21.8590   -5.6390 C.2     1  UNL1       -0.0340
     34  C         19.1220  -21.3640   -5.9950 C.3     1  UNL1        0.0500
@<TRIPOS>BOND
     1    21    20    1
     2    20    19    1
     3    18    19    1
     4    18    17    2
     5    19    14    2
     6    13    12    1
     7    17    16    1
     8    10     9    1
     9    14    12    1
    10    14    15    1
    11     9    12    1
    12     9     8   am
    13     3     2    1
    14     3     4    2
    15     2     1    2
    16    16    15    2
    17     5     4    1
    18     4     6    1
    19     1     8    1
    20     1     7    1
    21     8    11    2
    22     6     7    2
    23     6    22    1
    24    24    22    2
    25    22    23    2
    26    22    25    1
    27    26    25    1
    28    25    27    1
    29    27    28    2
    30    27    33    1
    31    28    29    1
    32    34    33    1
    33    33    31    2
    34    29    30    2
    35    31    30    1
    36    31    32    1
