@<TRIPOS>MOLECULE
27870_out_ligand_01.pdbqt
 34 37 0 0 0
SMALL
GASTEIGER

@<TRIPOS>ATOM
      1  S         16.3220  -22.5370   -9.7940 S.O2    1  UNL1        0.2850
      2  O         15.0980  -21.8450  -10.1430 O.2     1  UNL1       -0.1980
      3  O         16.4600  -23.9600  -10.0200 O.2     1  UNL1       -0.1980
      4  C         17.6160  -21.7670  -10.7180 C.ar    1  UNL1        0.2370
      5  N         17.5520  -20.5740  -11.2850 N.ar    1  UNL1       -0.1260
      6  N         18.7170  -20.2820  -11.9670 N.ar    1  UNL1       -0.1220
      7  C         19.5930  -21.2670  -11.8910 C.ar    1  UNL1        0.1970
      8  S         19.0550  -22.6300  -11.0180 S.2     1  UNL1       -0.0150
      9  N         20.8410  -21.1680  -12.4520 N.am    1  UNL1       -0.3000
     10  C         21.9430  -21.9390  -12.1470 C.2     1  UNL1        0.2580
     11  O         21.9980  -22.9060  -11.3970 O.2     1  UNL1       -0.2670
     12  H         20.9110  -20.4550  -13.1630 H       1  UNL1        0.1710
     13  C         23.1800  -21.5030  -12.8540 C.2     1  UNL1        0.0380
     14  C         23.0960  -21.2130  -14.2250 C.2     1  UNL1        0.0170
     15  C         24.2250  -20.7780  -14.9160 C.2     1  UNL1        0.0010
     16  C         25.4370  -20.6220  -14.2420 C.2     1  UNL1        0.0010
     17  C         25.5250  -20.9030  -12.8790 C.2     1  UNL1        0.0070
     18  C         24.4010  -21.3530  -12.1670 C.2     1  UNL1       -0.0460
     19  C         24.5300  -21.6310  -10.6970 C.3     1  UNL1        0.0490
     20  N         16.5660  -22.2520   -8.1590 N.3     1  UNL1       -0.3000
     21  H         16.8620  -21.3010   -7.9500 H       1  UNL1        0.1730
     22  C         17.2140  -23.3140   -7.3670 C.3     1  UNL1        0.1590
     23  C         16.8540  -23.2480   -5.8800 C.2     1  UNL1       -0.0300
     24  C         15.7040  -22.5480   -5.4700 C.2     1  UNL1        0.0090
     25  C         15.3670  -22.4530   -4.1190 C.2     1  UNL1        0.0010
     26  C         16.1770  -23.0390   -3.1530 C.2     1  UNL1        0.0000
     27  C         17.3260  -23.7270   -3.5380 C.2     1  UNL1        0.0010
     28  C         17.6630  -23.8310   -4.8890 C.2     1  UNL1        0.0090
     29  C         18.7220  -23.2680   -7.6100 C.2     1  UNL1       -0.0300
     30  C         19.3810  -24.3650   -8.1930 C.2     1  UNL1        0.0090
     31  C         20.7530  -24.3210   -8.4440 C.2     1  UNL1        0.0010
     32  C         21.4890  -23.1880   -8.1020 C.2     1  UNL1        0.0000
     33  C         20.8520  -22.0970   -7.5150 C.2     1  UNL1        0.0010
     34  C         19.4770  -22.1330   -7.2730 C.2     1  UNL1        0.0090
@<TRIPOS>BOND
     1    15    16    2
     2    15    14    1
     3    16    17    1
     4    14    13    2
     5    12     9    1
     6    17    18    2
     7    13    18    1
     8    13    10    1
     9     9    10   am
    10     9     7    1
    11    18    19    1
    12    10    11    2
    13     6     7   ar
    14     6     5   ar
    15     7     8   ar
    16     5     4   ar
    17     8     4   ar
    18     4     1    1
    19     2     1    2
    20     3     1    2
    21     1    20    1
    22    31    30    1
    23    31    32    2
    24    30    29    2
    25    20    21    1
    26    20    22    1
    27    32    33    1
    28    29    22    1
    29    29    34    1
    30    33    34    2
    31    22    23    1
    32    23    24    2
    33    23    28    1
    34    24    25    1
    35    28    27    2
    36    25    26    2
    37    27    26    1
