@<TRIPOS>MOLECULE
27892_out_ligand_01.pdbqt
 35 38 0 0 0
SMALL
GASTEIGER

@<TRIPOS>ATOM
      1  C         21.5410  -22.2530  -11.1910 C.2     1  UNL1        0.0330
      2  C         21.4310  -21.5050  -12.3770 C.2     1  UNL1        0.0190
      3  C         22.5280  -21.3550  -13.2340 C.2     1  UNL1        0.0260
      4  C         23.7180  -21.9760  -12.8970 C.2     1  UNL1        0.0320
      5  C         23.8430  -22.6750  -11.6960 C.2     1  UNL1       -0.0340
      6  C         22.7670  -22.8300  -10.8320 C.2     1  UNL1        0.0260
      7  C         25.2540  -23.1200  -11.4790 C.3     1  UNL1        0.0560
      8  C         25.8940  -22.8590  -12.8530 C.3     1  UNL1        0.1180
      9  N         24.9850  -21.8980  -13.5660 N.pl3   1  UNL1       -0.1710
     10  C         20.3490  -22.3590  -10.3060 C.2     1  UNL1        0.2560
     11  N         20.6260  -22.7580   -9.0110 N.am    1  UNL1       -0.3230
     12  H         21.5740  -23.0470   -8.8120 H       1  UNL1        0.1690
     13  O         19.2490  -22.1160  -10.7880 O.2     1  UNL1       -0.2670
     14  C         19.7080  -22.8980   -7.9490 C.2     1  UNL1        0.0350
     15  C         18.9400  -24.0700   -7.9150 C.2     1  UNL1        0.0300
     16  C         18.0140  -24.2880   -6.8890 C.2     1  UNL1        0.0100
     17  C         17.8410  -23.3390   -5.8760 C.2     1  UNL1       -0.0490
     18  C         18.6070  -22.1680   -5.9120 C.2     1  UNL1        0.0100
     19  C         19.5350  -21.9520   -6.9380 C.2     1  UNL1        0.0300
     20  C         16.8540  -23.5800   -4.7590 C.3     1  UNL1        0.1410
     21  C         15.6520  -22.6550   -4.8020 C.2     1  UNL1        0.2190
     22  N         15.1430  -22.3890   -6.0420 N.am    1  UNL1       -0.3700
     23  H         14.4010  -21.7020   -6.0770 H       1  UNL1        0.1590
     24  H         15.7250  -22.4850   -6.8660 H       1  UNL1        0.1590
     25  O         15.1180  -22.1980   -3.7950 O.2     1  UNL1       -0.2730
     26  S         24.9700  -22.0120  -15.2670 S.O2    1  UNL1        0.2480
     27  O         23.6050  -22.0840  -15.7460 O.2     1  UNL1       -0.2050
     28  O         25.9560  -22.9990  -15.6630 O.2     1  UNL1       -0.2050
     29  C         25.5850  -20.4090  -15.7440 C.2     1  UNL1        0.0750
     30  C         25.9270  -19.4920  -14.7420 C.2     1  UNL1        0.0260
     31  C         26.4040  -18.2300  -15.1020 C.2     1  UNL1        0.0250
     32  C         26.5310  -17.8950  -16.4510 C.2     1  UNL1        0.0340
     33 CL         27.1210  -16.3400  -16.8910 Cl      1  UNL1       -0.0840
     34  C         26.1800  -18.8090  -17.4470 C.2     1  UNL1        0.0250
     35  C         25.7020  -20.0720  -17.0960 C.2     1  UNL1        0.0260
@<TRIPOS>BOND
     1    34    35    1
     2    34    32    2
     3    35    29    2
     4    33    32    1
     5    32    31    1
     6    27    26    2
     7    29    26    1
     8    29    30    1
     9    28    26    2
    10    26     9    1
    11    31    30    2
    12     9     4    1
    13     9     8    1
    14     3     4    2
    15     3     2    1
    16     4     5    1
    17     8     7    1
    18     2     1    2
    19     5     7    1
    20     5     6    2
    21     1     6    1
    22     1    10    1
    23    13    10    2
    24    10    11   am
    25    11    12    1
    26    11    14    1
    27    14    15    2
    28    14    19    1
    29    15    16    1
    30    19    18    2
    31    16    17    2
    32    24    22    1
    33    23    22    1
    34    22    21   am
    35    18    17    1
    36    17    20    1
    37    21    20    1
    38    21    25    2
