@<TRIPOS>MOLECULE
27901_out_ligand_01.pdbqt
 30 33 0 0 0
SMALL
GASTEIGER

@<TRIPOS>ATOM
      1  N         20.2330  -22.7310   -8.6300 N.am    1  UNL1       -0.3230
      2  C         21.1790  -23.6270   -9.0810 C.2     1  UNL1        0.2610
      3  O         21.2980  -24.7910   -8.7130 O.2     1  UNL1       -0.2670
      4  H         20.2720  -21.7940   -9.0350 H       1  UNL1        0.1690
      5  C         22.1080  -23.0670  -10.1150 C.2     1  UNL1        0.0980
      6  C         23.4280  -23.2600   -9.9660 C.2     1  UNL1        0.1120
      7  N         24.4260  -22.8160  -10.8170 N.pl3   1  UNL1       -0.3540
      8  C         24.0710  -22.1520  -12.0120 C.2     1  UNL1        0.0540
      9  C         25.8260  -23.2310  -10.6640 C.3     1  UNL1        0.1290
     10  C         25.0390  -21.7190  -12.9410 C.2     1  UNL1       -0.0300
     11  C         22.7160  -21.8850  -12.2890 C.2     1  UNL1        0.0420
     12  C         24.6420  -21.0770  -14.1260 C.2     1  UNL1        0.0090
     13  C         26.5030  -21.9690  -12.6950 C.3     1  UNL1        0.0420
     14  C         23.2950  -20.8320  -14.3850 C.2     1  UNL1        0.0020
     15  C         22.3290  -21.2300  -13.4660 C.2     1  UNL1        0.0180
     16  C         26.7780  -22.1810  -11.2140 C.3     1  UNL1        0.0250
     17  C         21.6760  -22.3170  -11.3210 C.2     1  UNL1        0.2010
     18  O         20.4880  -22.0660  -11.5230 O.2     1  UNL1       -0.2860
     19  C         19.2090  -22.9470   -7.6860 C.2     1  UNL1        0.0350
     20  C         18.3070  -23.9830   -7.9520 C.2     1  UNL1        0.0300
     21  C         17.2620  -24.2670   -7.0680 C.2     1  UNL1        0.0100
     22  C         17.1010  -23.5180   -5.8980 C.2     1  UNL1       -0.0490
     23  C         18.0060  -22.4840   -5.6300 C.2     1  UNL1        0.0100
     24  C         19.0510  -22.2010   -6.5180 C.2     1  UNL1        0.0300
     25  C         15.9640  -23.8140   -4.9490 C.3     1  UNL1        0.1410
     26  C         15.1040  -22.6050   -4.6320 C.2     1  UNL1        0.2190
     27  N         14.3950  -22.0780   -5.6740 N.am    1  UNL1       -0.3700
     28  H         14.1410  -22.6660   -6.4580 H       1  UNL1        0.1590
     29  H         13.7460  -21.3400   -5.4310 H       1  UNL1        0.1590
     30  O         15.0750  -22.0730   -3.5260 O.2     1  UNL1       -0.2730
@<TRIPOS>BOND
     1    14    12    2
     2    14    15    1
     3    12    10    1
     4    15    11    2
     5    10    13    1
     6    10     8    2
     7    13    16    1
     8    11     8    1
     9    11    17    1
    10     8     7    1
    11    18    17    2
    12    17     5    1
    13    16     9    1
    14     7     9    1
    15     7     6    1
    16     5     6    2
    17     5     2    1
    18     2     3    2
    19     2     1   am
    20     4     1    1
    21     1    19    1
    22    20    19    2
    23    20    21    1
    24    19    24    1
    25    21    22    2
    26    24    23    2
    27    28    27    1
    28    22    23    1
    29    22    25    1
    30    27    29    1
    31    27    26   am
    32    25    26    1
    33    26    30    2
