@<TRIPOS>MOLECULE
27902_out_ligand_01.pdbqt
 29 32 0 0 0
SMALL
GASTEIGER

@<TRIPOS>ATOM
      1  N         20.3740  -22.6750   -8.6520 N.am    1  UNL1       -0.3230
      2  C         21.3070  -23.5780   -9.1180 C.2     1  UNL1        0.2610
      3  O         21.4120  -24.7500   -8.7640 O.2     1  UNL1       -0.2670
      4  H         20.4120  -21.7380   -9.0590 H       1  UNL1        0.1690
      5  C         22.2410  -23.0180  -10.1470 C.2     1  UNL1        0.0980
      6  C         23.5690  -23.1880   -9.9630 C.2     1  UNL1        0.1120
      7  N         24.5270  -22.7090  -10.8160 N.pl3   1  UNL1       -0.3540
      8  C         24.1400  -22.0960  -12.0120 C.2     1  UNL1        0.0550
      9  C         25.9610  -22.9630  -10.9270 C.3     1  UNL1        0.1330
     10  C         25.2020  -21.7630  -12.8380 C.2     1  UNL1       -0.0290
     11  C         22.8260  -21.8440  -12.3500 C.2     1  UNL1        0.0420
     12  C         24.9670  -21.1350  -14.0470 C.2     1  UNL1        0.0090
     13  C         26.4740  -22.1570  -12.1600 C.3     1  UNL1        0.0610
     14  C         23.6370  -20.8620  -14.4080 C.2     1  UNL1        0.0020
     15  C         22.5640  -21.2160  -13.5660 C.2     1  UNL1        0.0180
     16  C         21.7900  -22.2860  -11.3850 C.2     1  UNL1        0.2010
     17  O         20.6020  -22.0680  -11.6110 O.2     1  UNL1       -0.2860
     18  C         19.3710  -22.8790   -7.6840 C.2     1  UNL1        0.0350
     19  C         19.1730  -22.0580   -6.5750 C.2     1  UNL1        0.0300
     20  C         18.1500  -22.3330   -5.6600 C.2     1  UNL1        0.0100
     21  C         17.3080  -23.4360   -5.8410 C.2     1  UNL1       -0.0490
     22  C         17.5040  -24.2570   -6.9560 C.2     1  UNL1        0.0100
     23  C         18.5270  -23.9810   -7.8670 C.2     1  UNL1        0.0300
     24  C         16.2120  -23.7420   -4.8480 C.3     1  UNL1        0.1410
     25  C         15.2400  -22.5950   -4.6460 C.2     1  UNL1        0.2190
     26  N         14.5110  -22.2280   -5.7430 N.am    1  UNL1       -0.3700
     27  H         14.8540  -22.4320   -6.6730 H       1  UNL1        0.1590
     28  H         13.9390  -21.4000   -5.6340 H       1  UNL1        0.1590
     29  O         15.0580  -22.0500   -3.5620 O.2     1  UNL1       -0.2730
@<TRIPOS>BOND
     1    14    12    2
     2    14    15    1
     3    12    10    1
     4    15    11    2
     5    10    13    1
     6    10     8    2
     7    11     8    1
     8    11    16    1
     9    13     9    1
    10     8     7    1
    11    17    16    2
    12    16     5    1
    13     9     7    1
    14     7     6    1
    15     5     6    2
    16     5     2    1
    17     2     3    2
    18     2     1   am
    19     4     1    1
    20     1    18    1
    21    23    18    2
    22    23    22    1
    23    18    19    1
    24    22    21    2
    25    27    26    1
    26    19    20    2
    27    21    20    1
    28    21    24    1
    29    26    28    1
    30    26    25   am
    31    24    25    1
    32    25    29    2
