@<TRIPOS>MOLECULE
27918_out_ligand_01.pdbqt
 37 41 0 0 0
SMALL
GASTEIGER

@<TRIPOS>ATOM
      1  N         20.2480  -22.4820  -10.7000 N.am    1  UNL1       -0.3050
      2  C         20.6380  -21.5400  -11.6450 C.2     1  UNL1        0.2490
      3  O         21.7710  -21.4800  -12.1190 O.2     1  UNL1       -0.2710
      4  C         19.5810  -20.4960  -11.9880 C.3     1  UNL1        0.2790
      5  O         18.2180  -20.8530  -11.8820 O.2     1  UNL1       -0.3400
      6  C         17.9530  -21.6610  -10.8100 C.2     1  UNL1        0.0960
      7  C         16.6230  -21.6640  -10.3790 C.2     1  UNL1        0.0400
      8  C         16.2370  -22.4640   -9.3060 C.2     1  UNL1        0.0280
      9  C         17.1900  -23.2680   -8.6860 C.2     1  UNL1        0.0820
     10  C         18.5200  -23.2900   -9.1280 C.2     1  UNL1        0.0570
     11  C         18.9150  -22.4830  -10.2020 C.2     1  UNL1        0.0720
     12  C         21.2290  -23.4810  -10.2610 C.3     1  UNL1        0.2350
     13  C         22.6620  -22.9560  -10.1150 C.2     1  UNL1        0.2360
     14  O         22.9970  -22.2740   -9.1500 O.2     1  UNL1       -0.2720
     15  N         23.5380  -23.3390  -11.1010 N.am    1  UNL1       -0.3510
     16  H         23.1660  -23.8000  -11.9210 H       1  UNL1        0.1630
     17  C         24.8980  -22.8320  -11.1820 C.3     1  UNL1        0.1180
     18  C         24.9280  -21.3820  -10.6660 C.3     1  UNL1        0.0300
     19  C         26.2480  -20.7090  -11.0090 C.3     1  UNL1        0.0070
     20  C         26.4070  -20.6140  -12.5220 C.3     1  UNL1        0.0390
     21  C         26.1540  -21.9280  -13.2190 C.2     1  UNL1       -0.0500
     22  C         26.6270  -22.0980  -14.5310 C.2     1  UNL1        0.0070
     23  C         25.4270  -22.9670  -12.6030 C.2     1  UNL1       -0.0290
     24  C         26.4160  -23.2930  -15.2170 C.2     1  UNL1        0.0010
     25  C         25.7310  -24.3350  -14.6000 C.2     1  UNL1        0.0010
     26  C         25.2460  -24.1760  -13.3020 C.2     1  UNL1        0.0100
     27  S         16.7410  -24.2590   -7.2830 S.O2    1  UNL1        0.2630
     28  O         17.9330  -24.8720   -6.7400 O.2     1  UNL1       -0.2000
     29  O         15.6070  -25.0600   -7.6950 O.2     1  UNL1       -0.2000
     30  N         16.1420  -23.1130   -6.1940 N.pl3   1  UNL1       -0.2810
     31  H         15.2910  -23.4580   -5.7510 H       1  UNL1        0.1790
     32  C         17.0750  -22.4410   -5.3570 C.2     1  UNL1        0.0420
     33  C         17.0150  -22.6090   -3.9740 C.2     1  UNL1        0.0300
     34  C         17.9140  -21.9260   -3.1530 C.2     1  UNL1        0.0020
     35  C         18.8600  -21.0700   -3.7160 C.2     1  UNL1        0.0000
     36  C         18.9080  -20.8920   -5.0980 C.2     1  UNL1        0.0020
     37  C         18.0110  -21.5740   -5.9210 C.2     1  UNL1        0.0300
@<TRIPOS>BOND
     1    24    25    2
     2    24    22    1
     3    25    26    1
     4    22    21    2
     5    26    23    2
     6    21    23    1
     7    21    20    1
     8    23    17    1
     9    20    19    1
    10     3     2    2
    11     4     5    1
    12     4     2    1
    13    16    15    1
    14     5     6    1
    15     2     1   am
    16    17    15    1
    17    17    18    1
    18    15    13   am
    19    19    18    1
    20     6     7    2
    21     6    11    1
    22     1    12    1
    23     1    11    1
    24     7     8    1
    25    12    13    1
    26    11    10    2
    27    13    14    2
    28     8     9    2
    29    10     9    1
    30     9    27    1
    31    29    27    2
    32    27    28    2
    33    27    30    1
    34    30    31    1
    35    30    32    1
    36    37    32    2
    37    37    36    1
    38    32    33    1
    39    36    35    2
    40    33    34    2
    41    35    34    1
