@<TRIPOS>MOLECULE
27932_out_ligand_01.pdbqt
 35 39 0 0 0
SMALL
GASTEIGER

@<TRIPOS>ATOM
      1  C         19.4170  -21.7380  -11.0640 C.2     1  UNL1        0.0320
      2  C         19.6190  -22.8680  -10.2630 C.2     1  UNL1        0.0180
      3  C         18.5420  -23.4390   -9.5860 C.2     1  UNL1        0.0260
      4  C         17.2680  -22.8740   -9.7170 C.2     1  UNL1        0.0790
      5  C         17.0460  -21.7910  -10.5760 C.2     1  UNL1        0.0260
      6  C         18.1270  -21.2160  -11.2460 C.2     1  UNL1        0.0180
      7  S         15.9150  -23.5220   -8.7580 S.O2    1  UNL1        0.2630
      8  O         15.2810  -24.5720   -9.5260 O.2     1  UNL1       -0.2000
      9  O         15.1580  -22.3940   -8.2560 O.2     1  UNL1       -0.2000
     10  N         16.6820  -24.2030   -7.4120 N.pl3   1  UNL1       -0.2800
     11  H         16.7020  -25.2190   -7.4470 H       1  UNL1        0.1790
     12  C         16.5150  -23.5720   -6.1380 C.2     1  UNL1        0.0530
     13  C         15.4690  -24.0140   -5.3220 C.2     1  UNL1        0.0310
     14  C         15.3240  -23.5070   -4.0360 C.2     1  UNL1        0.0030
     15  C         16.2300  -22.5640   -3.5560 C.2     1  UNL1        0.0120
     16  C         17.2900  -22.1060   -4.3540 C.2     1  UNL1       -0.0240
     17  C         18.2040  -21.1670   -3.8470 C.2     1  UNL1        0.0120
     18  C         17.4440  -22.5990   -5.6740 C.2     1  UNL1        0.0010
     19  C         19.2650  -20.7020   -4.6220 C.2     1  UNL1        0.0010
     20  C         19.4240  -21.1640   -5.9210 C.2     1  UNL1        0.0010
     21  C         18.5250  -22.0980   -6.4410 C.2     1  UNL1        0.0140
     22  C         20.5960  -21.0940  -11.6990 C.2     1  UNL1        0.2560
     23  O         20.6040  -19.8760  -11.8030 O.2     1  UNL1       -0.2670
     24  N         21.5370  -21.9990  -12.1540 N.am    1  UNL1       -0.3220
     25  H         21.2680  -22.9690  -12.0980 H       1  UNL1        0.1690
     26  C         22.7750  -21.7300  -12.7980 C.2     1  UNL1        0.0460
     27  C         22.8160  -21.0750  -14.0350 C.2     1  UNL1        0.0300
     28  C         24.0290  -20.8110  -14.6650 C.2     1  UNL1        0.0030
     29  C         25.2220  -21.1970  -14.0670 C.2     1  UNL1        0.0120
     30  C         25.2240  -21.8490  -12.8270 C.2     1  UNL1       -0.0240
     31  C         26.4500  -22.2220  -12.2510 C.2     1  UNL1        0.0120
     32  C         23.9990  -22.1270  -12.1640 C.2     1  UNL1        0.0010
     33  C         26.4990  -22.8700  -11.0210 C.2     1  UNL1        0.0010
     34  C         25.3210  -23.1540  -10.3480 C.2     1  UNL1        0.0010
     35  C         24.0940  -22.7890  -10.9100 C.2     1  UNL1        0.0140
@<TRIPOS>BOND
     1    28    29    2
     2    28    27    1
     3    29    30    1
     4    27    26    2
     5    30    31    2
     6    30    32    1
     7    26    32    1
     8    26    24    1
     9    31    33    1
    10    32    35    2
    11    24    25    1
    12    24    22   am
    13    23    22    2
    14    22     1    1
    15     6     1    2
    16     6     5    1
    17     1     2    1
    18    33    34    2
    19    35    34    1
    20     5     4    2
    21     2     3    2
    22     4     3    1
    23     4     7    1
    24     8     7    2
    25     7     9    2
    26     7    10    1
    27    11    10    1
    28    10    12    1
    29    21    20    2
    30    21    18    1
    31    12    18    2
    32    12    13    1
    33    20    19    1
    34    18    16    1
    35    13    14    2
    36    19    17    2
    37    16    17    1
    38    16    15    2
    39    14    15    1
