@<TRIPOS>MOLECULE
27930_out_ligand_01.pdbqt
 30 32 0 0 0
SMALL
GASTEIGER

@<TRIPOS>ATOM
      1  C         19.4040  -22.6930  -10.1260 C.2     1  UNL1        0.0330
      2  C         18.7020  -21.9950  -11.1150 C.2     1  UNL1        0.0170
      3  C         17.3140  -21.8630  -11.0250 C.2     1  UNL1        0.0090
      4  C         16.5970  -22.4210   -9.9530 C.2     1  UNL1       -0.0390
      5  C         15.1080  -22.2180   -9.9090 C.3     1  UNL1        0.0500
      6  C         17.3170  -23.1010   -8.9490 C.2     1  UNL1        0.0810
      7  C         18.7130  -23.2290   -9.0350 C.2     1  UNL1        0.0420
      8  S         16.5070  -23.8070   -7.5200 S.O2    1  UNL1        0.2460
      9  O         15.8670  -25.0370   -7.9290 O.2     1  UNL1       -0.2060
     10  O         15.7750  -22.7540   -6.8500 O.2     1  UNL1       -0.2060
     11  N         17.8570  -24.1420   -6.5240 N.pl3   1  UNL1       -0.1810
     12  H         18.6720  -24.1900   -7.1380 H       1  UNL1        0.1460
     13  C         18.0610  -23.1740   -5.4830 C.2     1  UNL1        0.0250
     14  C         17.6540  -23.4690   -4.1790 C.2     1  UNL1        0.0240
     15  C         17.8110  -22.5220   -3.1640 C.2     1  UNL1        0.0050
     16  C         18.3650  -21.2770   -3.4590 C.2     1  UNL1        0.0420
     17  C         18.7480  -20.9890   -4.7650 C.2     1  UNL1        0.1180
     18  F         19.2710  -19.7890   -5.0470 F       1  UNL1       -0.2060
     19  C         18.5940  -21.9230   -5.7850 C.2     1  UNL1        0.0660
     20  C         20.8860  -22.8530  -10.1820 C.2     1  UNL1        0.2560
     21  N         21.5290  -22.0220  -11.0810 N.am    1  UNL1       -0.3230
     22  H         20.9500  -21.4570  -11.6880 H       1  UNL1        0.1690
     23  O         21.3970  -23.7110   -9.4740 O.2     1  UNL1       -0.2670
     24  C         22.9180  -21.9290  -11.3160 C.2     1  UNL1        0.0350
     25  C         23.8660  -21.7080  -10.3180 C.2     1  UNL1        0.0300
     26  C         25.2270  -21.6210  -10.6370 C.2     1  UNL1        0.0090
     27  C         25.6600  -21.7430  -11.9610 C.2     1  UNL1       -0.0620
     28  C         27.1210  -21.6850  -12.2930 C.3     1  UNL1        0.0480
     29  C         24.7110  -21.9770  -12.9600 C.2     1  UNL1        0.0090
     30  C         23.3530  -22.0610  -12.6410 C.2     1  UNL1        0.0300
@<TRIPOS>BOND
     1    29    30    1
     2    29    27    2
     3    30    24    2
     4    28    27    1
     5    27    26    1
     6    22    21    1
     7    24    21    1
     8    24    25    1
     9     2     3    1
    10     2     1    2
    11    21    20   am
    12     3     4    2
    13    26    25    2
    14    20     1    1
    15    20    23    2
    16     1     7    1
    17     4     5    1
    18     4     6    1
    19     7     6    2
    20     6     8    1
    21     9     8    2
    22     8    10    2
    23     8    11    1
    24    12    11    1
    25    11    13    1
    26    19    13    2
    27    19    17    1
    28    13    14    1
    29    18    17    1
    30    17    16    2
    31    14    15    2
    32    16    15    1
