@<TRIPOS>MOLECULE
27945_out_ligand_01.pdbqt
 35 38 0 0 0
SMALL
GASTEIGER

@<TRIPOS>ATOM
      1  N         23.5530  -22.5410  -10.5150 N.3     1  UNL1        0.1040
      2  C         23.2170  -23.4120   -9.3670 C.3     1  UNL1        0.3120
      3  C         22.0540  -22.9200   -8.5180 C.2     1  UNL1       -0.0240
      4  C         22.1680  -21.6780   -7.8660 C.2     1  UNL1        0.0100
      5  C         21.1470  -21.1990   -7.0410 C.2     1  UNL1        0.0070
      6  C         19.9860  -21.9480   -6.8550 C.2     1  UNL1       -0.0610
      7  C         18.9030  -21.4720   -5.9300 C.3     1  UNL1        0.0480
      8  C         19.8580  -23.1770   -7.5100 C.2     1  UNL1        0.0140
      9  C         20.8690  -23.6660   -8.3550 C.2     1  UNL1       -0.0530
     10  C         20.6640  -24.9990   -9.0190 C.3     1  UNL1        0.0490
     11  C         24.9850  -22.6530  -10.8460 C.3     1  UNL1        0.3110
     12  C         25.5190  -21.4550  -11.6060 C.2     1  UNL1       -0.0300
     13  C         25.3590  -21.3760  -13.0010 C.2     1  UNL1        0.0120
     14  C         25.8700  -20.2920  -13.7120 C.2     1  UNL1        0.0430
     15  C         26.5580  -19.2950  -13.0300 C.2     1  UNL1        0.1160
     16  F         27.0530  -18.2550  -13.7080 F       1  UNL1       -0.2060
     17  C         26.7440  -19.3600  -11.6550 C.2     1  UNL1        0.0430
     18  C         26.2260  -20.4400  -10.9400 C.2     1  UNL1        0.0120
     19  C         22.7020  -22.8430  -11.6870 C.3     1  UNL1        0.3590
     20  C         21.3810  -22.1270  -11.7000 C.2     1  UNL1        0.1740
     21  N         20.2350  -22.4530  -11.1330 N.2     1  UNL1       -0.2190
     22  C         19.3850  -21.4080  -11.4420 C.2     1  UNL1        0.1490
     23  C         20.0750  -20.4910  -12.2090 C.2     1  UNL1        0.1810
     24  O         21.3490  -20.9340  -12.3790 O.2     1  UNL1       -0.3030
     25  C         17.9870  -21.3410  -11.0340 C.2     1  UNL1        0.2720
     26  O         17.2030  -20.4910  -11.4520 O.2     1  UNL1       -0.2660
     27  N         17.6020  -22.3280  -10.1410 N.am    1  UNL1       -0.3510
     28  H         18.1550  -23.1760  -10.1230 H       1  UNL1        0.1630
     29  C         16.2220  -22.4190   -9.7320 C.3     1  UNL1        0.1630
     30  C         16.0470  -22.9270   -8.3300 C.2     1  UNL1       -0.0230
     31  C         16.4680  -24.1910   -7.9020 C.2     1  UNL1        0.0120
     32  C         16.2800  -24.5720   -6.5800 C.2     1  UNL1        0.0200
     33  C         15.7050  -23.6630   -5.7040 C.2     1  UNL1        0.1160
     34  N         15.3090  -22.4240   -6.0670 N.2     1  UNL1       -0.2730
     35  C         15.4880  -22.0900   -7.3630 C.2     1  UNL1        0.1240
@<TRIPOS>BOND
     1    14    15    2
     2    14    13    1
     3    16    15    1
     4    15    17    1
     5    13    12    2
     6    24    23    1
     7    24    20    1
     8    23    22    2
     9    20    19    1
    10    20    21    2
    11    19     1    1
    12    17    18    2
    13    12    18    1
    14    12    11    1
    15    26    25    2
    16    22    21    1
    17    22    25    1
    18    25    27   am
    19    11     1    1
    20     1     2    1
    21    27    28    1
    22    27    29    1
    23    29    30    1
    24     2     3    1
    25    10     9    1
    26     3     9    2
    27     3     4    1
    28     9     8    1
    29    30    31    2
    30    30    35    1
    31    31    32    1
    32     4     5    2
    33     8     6    2
    34    35    34    2
    35     5     6    1
    36     6     7    1
    37    32    33    2
    38    34    33    1
