@<TRIPOS>MOLECULE
27957_out_ligand_01.pdbqt
 34 37 0 0 0
SMALL
GASTEIGER

@<TRIPOS>ATOM
      1  C         19.5340  -21.7640  -11.0750 C.2     1  UNL1        0.0340
      2  C         18.4510  -21.1710  -11.7370 C.2     1  UNL1        0.0200
      3  C         17.1580  -21.3270  -11.2300 C.2     1  UNL1        0.0450
      4  C         16.9440  -22.0720  -10.0700 C.2     1  UNL1        0.1390
      5  F         15.6840  -22.2100   -9.6430 F       1  UNL1       -0.2040
      6  C         18.0140  -22.6740   -9.4230 C.2     1  UNL1        0.1190
      7  C         19.3150  -22.5250   -9.9210 C.2     1  UNL1        0.0450
      8  C         20.9240  -21.6390  -11.5920 C.2     1  UNL1        0.2560
      9  O         21.0870  -21.0500  -12.6520 O.2     1  UNL1       -0.2670
     10  N         21.8910  -22.2430  -10.8100 N.am    1  UNL1       -0.3230
     11  H         21.5700  -22.7990  -10.0280 H       1  UNL1        0.1690
     12  C         23.2850  -22.2520  -11.0330 C.2     1  UNL1        0.0350
     13  C         24.1990  -21.5070  -10.2890 C.2     1  UNL1        0.0290
     14  C         25.5670  -21.5730  -10.5710 C.2     1  UNL1        0.0030
     15  C         26.0340  -22.3870  -11.6000 C.2     1  UNL1        0.0160
     16  C         25.1370  -23.1520  -12.3540 C.2     1  UNL1        0.0500
     17  C         23.7620  -23.0730  -12.0630 C.2     1  UNL1        0.0450
     18  C         25.6180  -24.0310  -13.4810 C.3     1  UNL1        0.4170
     19  F         24.6820  -24.9430  -13.8690 F       1  UNL1       -0.1660
     20  F         25.9250  -23.3170  -14.5990 F       1  UNL1       -0.1660
     21  F         26.7340  -24.7500  -13.1750 F       1  UNL1       -0.1660
     22  S         17.7850  -23.5920   -7.9240 S.O2    1  UNL1        0.2680
     23  O         19.0670  -24.0830   -7.4670 O.2     1  UNL1       -0.2000
     24  O         16.7100  -24.5190   -8.2150 O.2     1  UNL1       -0.2000
     25  N         17.2450  -22.3620   -6.8370 N.pl3   1  UNL1       -0.2710
     26  C         18.1360  -21.1710   -6.7260 C.3     1  UNL1        0.1420
     27  C         19.1930  -21.3750   -5.6520 C.3     1  UNL1        0.0260
     28  C         18.5380  -21.5960   -4.2990 C.3     1  UNL1        0.0420
     29  C         17.3560  -22.5270   -4.3590 C.2     1  UNL1       -0.0310
     30  C         16.8270  -23.0200   -3.1550 C.2     1  UNL1        0.0090
     31  C         16.7220  -22.8440   -5.5730 C.2     1  UNL1        0.0510
     32  C         15.6850  -23.8190   -3.1530 C.2     1  UNL1        0.0010
     33  C         15.0470  -24.1160   -4.3530 C.2     1  UNL1        0.0020
     34  C         15.5600  -23.6250   -5.5550 C.2     1  UNL1        0.0310
@<TRIPOS>BOND
     1    20    18    1
     2    19    18    1
     3    18    21    1
     4    18    16    1
     5     9     8    2
     6    16    17    1
     7    16    15    2
     8    17    12    2
     9     2     3    1
    10     2     1    2
    11    15    14    1
    12     8     1    1
    13     8    10   am
    14     3     4    2
    15     1     7    1
    16    12    10    1
    17    12    13    1
    18    10    11    1
    19    14    13    2
    20     4     5    1
    21     4     6    1
    22     7     6    2
    23     6    22    1
    24    24    22    2
    25    22    23    2
    26    22    25    1
    27    25    26    1
    28    25    31    1
    29    26    27    1
    30    27    28    1
    31    31    34    1
    32    31    29    2
    33    34    33    2
    34    29    28    1
    35    29    30    1
    36    33    32    1
    37    30    32    2
