@<TRIPOS>MOLECULE
27950_out_ligand_01.pdbqt
 34 37 0 0 0
SMALL
GASTEIGER

@<TRIPOS>ATOM
      1  N         21.4590  -23.0450   -9.3490 N.3     1  UNL1        0.1040
      2  C         22.8670  -23.4900   -9.3020 C.3     1  UNL1        0.3590
      3  C         23.7470  -22.7770  -10.2880 C.2     1  UNL1        0.1740
      4  O         24.1000  -21.4890   -9.9740 O.2     1  UNL1       -0.3030
      5  C         24.8720  -21.0880  -11.0200 C.2     1  UNL1        0.1810
      6  C         24.9620  -22.1270  -11.9140 C.2     1  UNL1        0.1490
      7  N         24.2360  -23.2120  -11.4350 N.2     1  UNL1       -0.2190
      8  C         25.6910  -22.1260  -13.1760 C.2     1  UNL1        0.2720
      9  O         26.7900  -21.5980  -13.2950 O.2     1  UNL1       -0.2660
     10  N         24.9910  -22.7790  -14.1730 N.am    1  UNL1       -0.3510
     11  H         24.0960  -23.1600  -13.8740 H       1  UNL1        0.1630
     12  C         25.3890  -22.9820  -15.5290 C.3     1  UNL1        0.0850
     13  C         24.5060  -23.6210  -16.5630 C.3     1  UNL1        0.0270
     14  C         24.8540  -22.1620  -16.6690 C.3     1  UNL1        0.0270
     15  C         20.9300  -22.8900  -10.7150 C.3     1  UNL1        0.3110
     16  C         19.5790  -22.2170  -10.8590 C.2     1  UNL1       -0.0290
     17  C         19.4350  -21.0570  -11.6320 C.2     1  UNL1        0.0090
     18  C         18.1910  -20.4380  -11.7660 C.2     1  UNL1        0.0010
     19  C         17.0720  -20.9670  -11.1240 C.2     1  UNL1        0.0160
     20  C         17.1880  -22.1210  -10.3370 C.2     1  UNL1        0.0480
     21  C         18.4470  -22.7330  -10.2080 C.2     1  UNL1        0.0250
     22  C         15.9930  -22.7010   -9.6200 C.3     1  UNL1        0.4170
     23  F         15.9190  -22.2960   -8.3220 F       1  UNL1       -0.1660
     24  F         14.8150  -22.3290  -10.1940 F       1  UNL1       -0.1660
     25  F         15.9800  -24.0630   -9.5880 F       1  UNL1       -0.1660
     26  C         20.5990  -23.8820   -8.5000 C.3     1  UNL1        0.3150
     27  C         19.8840  -23.1010   -7.4170 C.2     1  UNL1        0.0090
     28  C         20.3730  -21.8620   -6.9690 C.2     1  UNL1        0.0150
     29  C         19.6850  -21.1450   -5.9890 C.2     1  UNL1        0.0430
     30  C         18.5030  -21.6570   -5.4650 C.2     1  UNL1        0.1190
     31  F         17.8440  -20.9650   -4.5270 F       1  UNL1       -0.2060
     32  C         17.9930  -22.8720   -5.9010 C.2     1  UNL1        0.0850
     33  C         18.6860  -23.5810   -6.8760 C.2     1  UNL1        0.1270
     34  F         18.1860  -24.7520   -7.2950 F       1  UNL1       -0.2050
@<TRIPOS>BOND
     1    14    13    1
     2    14    12    1
     3    13    12    1
     4    12    10    1
     5    10    11    1
     6    10     8   am
     7     9     8    2
     8     8     6    1
     9     6     7    1
    10     6     5    2
    11    18    17    1
    12    18    19    2
    13    17    16    2
    14     7     3    2
    15    19    20    1
    16     5     4    1
    17    16    15    1
    18    16    21    1
    19    15     1    1
    20    20    21    2
    21    20    22    1
    22     3     4    1
    23     3     2    1
    24    24    22    1
    25    22    25    1
    26    22    23    1
    27     1     2    1
    28     1    26    1
    29    26    27    1
    30    27    28    2
    31    27    33    1
    32    34    33    1
    33    28    29    1
    34    33    32    2
    35    29    30    2
    36    32    30    1
    37    30    31    1
