@<TRIPOS>MOLECULE
27_out_ligand_01.pdbqt
 29 32 0 0 0
SMALL
GASTEIGER

@<TRIPOS>ATOM
      1  O         21.1880  -22.5260   -7.4410 O.2     1  UNL1       -0.2670
      2  C         20.1320  -22.5890   -8.0650 C.2     1  UNL1        0.2580
      3  N         19.9460  -22.3560   -9.4440 N.am    1  UNL1       -0.3130
      4  C         18.6620  -21.8110   -9.9110 C.3     1  UNL1        0.1330
      5  C         18.4570  -21.9090  -11.4100 C.3     1  UNL1        0.0250
      6  C         19.5870  -21.1840  -12.1100 C.3     1  UNL1        0.0420
      7  C         20.9100  -21.7220  -11.6400 C.2     1  UNL1       -0.0300
      8  C         22.0100  -21.6230  -12.5170 C.2     1  UNL1        0.0190
      9  C         23.2690  -22.1200  -12.1620 C.2     1  UNL1       -0.0270
     10  C         23.4100  -22.7150  -10.9070 C.2     1  UNL1        0.0120
     11  C         22.3260  -22.7970  -10.0240 C.2     1  UNL1        0.0310
     12  C         21.0660  -22.2790  -10.3540 C.2     1  UNL1        0.0430
     13  C         24.4410  -21.9750  -13.1060 C.3     1  UNL1        0.1790
     14  O         25.6190  -21.5990  -12.3850 O.3     1  UNL1       -0.3890
     15  H         25.6910  -20.6330  -12.5270 H       1  UNL1        0.2100
     16  C         24.1600  -20.9150  -14.2040 C.3     1  UNL1        0.3080
     17  N         24.1960  -21.4970  -15.5680 N.3     1  UNL1        0.0910
     18  C         24.6870  -22.8780  -15.5370 C.3     1  UNL1        0.2720
     19  C         24.4700  -23.5510  -16.8960 C.3     1  UNL1        0.0300
     20  C         24.7220  -22.6160  -18.0800 C.3     1  UNL1        0.0030
     21  C         25.6010  -21.4440  -17.6710 C.3     1  UNL1        0.0300
     22  C         24.9860  -20.6650  -16.4990 C.3     1  UNL1        0.2720
     23  C         18.9430  -22.9410   -7.2540 C.2     1  UNL1        0.0320
     24  C         18.3280  -24.1900   -7.4120 C.2     1  UNL1        0.0200
     25  C         17.2280  -24.5200   -6.6200 C.2     1  UNL1        0.0430
     26  C         16.7680  -23.6100   -5.6710 C.2     1  UNL1        0.1160
     27  F         15.7110  -23.9300   -4.9130 F       1  UNL1       -0.2060
     28  C         17.3890  -22.3760   -5.4920 C.2     1  UNL1        0.0430
     29  C         18.4900  -22.0400   -6.2810 C.2     1  UNL1        0.0200
@<TRIPOS>BOND
     1    20    21    1
     2    20    19    1
     3    21    22    1
     4    19    18    1
     5    22    17    1
     6    17    18    1
     7    17    16    1
     8    16    13    1
     9    13    14    1
    10    13     9    1
    11    15    14    1
    12     8     9    1
    13     8     7    2
    14     9    10    2
    15     6     7    1
    16     6     5    1
    17     7    12    1
    18     5     4    1
    19    10    11    1
    20    12    11    2
    21    12     3    1
    22     4     3    1
    23     3     2   am
    24     2     1    2
    25     2    23    1
    26    24    23    2
    27    24    25    1
    28    23    29    1
    29    25    26    2
    30    29    28    2
    31    26    28    1
    32    26    27    1
