@<TRIPOS>MOLECULE
28012_out_ligand_01.pdbqt
 32 36 0 0 0
SMALL
GASTEIGER

@<TRIPOS>ATOM
      1  C         19.8260  -21.3080  -11.6690 C.2     1  UNL1        0.1730
      2  N         20.9090  -20.9450  -12.2520 N.2     1  UNL1       -0.2350
      3  C         22.1590  -21.5060  -11.6950 C.3     1  UNL1        0.2460
      4  N         22.0520  -22.7150  -10.9010 N.pl3   1  UNL1       -0.3570
      5  C         20.8910  -22.9230  -10.2530 C.ar    1  UNL1        0.0870
      6  S         20.6740  -24.0350   -8.9900 S.2     1  UNL1       -0.0740
      7  C         19.0240  -23.6340   -8.8620 C.ar    1  UNL1        0.0200
      8  C         18.6430  -22.6550   -9.7630 C.ar    1  UNL1       -0.0240
      9  C         19.7410  -22.2480  -10.5830 C.ar    1  UNL1        0.0570
     10  C         17.2220  -22.1870   -9.8060 C.3     1  UNL1        0.0710
     11  C         16.4550  -22.6160   -8.5330 C.3     1  UNL1        0.2780
     12  N         16.6880  -24.0360   -8.1880 N.3     1  UNL1        0.0970
     13  C         18.1150  -24.2710   -7.8490 C.3     1  UNL1        0.3190
     14  H         22.9090  -23.1550  -10.5860 H       1  UNL1        0.1620
     15  C         23.1860  -21.7570  -12.7840 C.2     1  UNL1        0.0200
     16  C         24.1890  -22.7270  -12.5680 C.2     1  UNL1        0.0330
     17  C         25.1450  -23.0000  -13.5460 C.2     1  UNL1        0.0110
     18 BR         26.4640  -24.3160  -13.2260 Br      1  UNL1       -0.0510
     19  C         25.1350  -22.3120  -14.7540 C.2     1  UNL1        0.0220
     20  C         24.1670  -21.3350  -14.9760 C.2     1  UNL1        0.0380
     21  C         23.2130  -21.0490  -13.9960 C.2     1  UNL1        0.0750
     22  O         22.3410  -20.0460  -14.3140 O.2     1  UNL1       -0.3600
     23  H         22.5250  -19.2520  -13.7900 H       1  UNL1        0.2170
     24  O         18.6700  -20.7810  -12.1110 O.2     1  UNL1       -0.3440
     25  H         18.4820  -21.2000  -12.9680 H       1  UNL1        0.2190
     26  C         15.8110  -24.4410   -7.0770 C.3     1  UNL1        0.3110
     27  C         16.0820  -23.6960   -5.7860 C.2     1  UNL1       -0.0300
     28  C         17.3200  -23.8250   -5.1370 C.2     1  UNL1        0.0090
     29  C         17.5680  -23.1480   -3.9430 C.2     1  UNL1        0.0010
     30  C         16.5830  -22.3380   -3.3820 C.2     1  UNL1        0.0000
     31  C         15.3480  -22.2060   -4.0150 C.2     1  UNL1        0.0010
     32  C         15.0980  -22.8820   -5.2110 C.2     1  UNL1        0.0090
@<TRIPOS>BOND
     1    20    19    2
     2    20    21    1
     3    19    17    1
     4    22    21    1
     5    22    23    1
     6    21    15    2
     7    17    18    1
     8    17    16    2
     9    25    24    1
    10    15    16    1
    11    15     3    1
    12     2     3    1
    13     2     1    2
    14    24     1    1
    15     3     4    1
    16     1     9    1
    17     4    14    1
    18     4     5    1
    19     9     5   ar
    20     9     8   ar
    21     5     6   ar
    22    10     8    1
    23    10    11    1
    24     8     7   ar
    25     6     7   ar
    26     7    13    1
    27    11    12    1
    28    12    13    1
    29    12    26    1
    30    26    27    1
    31    27    32    2
    32    27    28    1
    33    32    31    1
    34    28    29    2
    35    31    30    2
    36    29    30    1
