@<TRIPOS>MOLECULE
28021_out_ligand_01.pdbqt
 33 36 0 0 0
SMALL
GASTEIGER

@<TRIPOS>ATOM
      1  C         23.1740  -22.1470  -11.4040 C.2     1  UNL1        0.0750
      2  C         23.4080  -22.3040  -10.0370 C.2     1  UNL1        0.0270
      3  C         22.3280  -22.3950   -9.1530 C.2     1  UNL1        0.0310
      4  C         21.0150  -22.3180   -9.6240 C.2     1  UNL1        0.0350
      5  C         20.7950  -22.1340  -10.9990 C.2     1  UNL1        0.0310
      6  C         21.8690  -22.0460  -11.8890 C.2     1  UNL1        0.0270
      7  N         19.8750  -22.3940   -8.8000 N.am    1  UNL1       -0.3210
      8  C         19.3240  -23.5220   -8.2080 C.2     1  UNL1        0.2800
      9  O         19.7150  -24.6690   -8.4010 O.2     1  UNL1       -0.2650
     10  H         19.3480  -21.5380   -8.6960 H       1  UNL1        0.1690
     11  C         18.1820  -23.2270   -7.3510 C.ar    1  UNL1        0.1500
     12  O         18.4400  -23.0420   -6.0190 O.2     1  UNL1       -0.3040
     13  C         17.2600  -22.8060   -5.3960 C.ar    1  UNL1        0.0870
     14  C         17.1020  -22.5810   -4.0300 C.2     1  UNL1        0.0380
     15  C         16.2200  -22.8170   -6.3130 C.ar    1  UNL1        0.0070
     16  C         15.7980  -22.3540   -3.5810 C.2     1  UNL1        0.0030
     17  C         14.7200  -22.3540   -4.4700 C.2     1  UNL1        0.0010
     18  C         14.9140  -22.5830   -5.8400 C.2     1  UNL1        0.0150
     19  C         16.8170  -23.0720   -7.5880 C.ar    1  UNL1       -0.0090
     20  C         16.1030  -23.1200   -8.8920 C.3     1  UNL1        0.0520
     21  S         24.5370  -22.0090  -12.5340 S.O2    1  UNL1        0.2480
     22  O         25.4620  -21.0620  -11.9400 O.2     1  UNL1       -0.2050
     23  O         24.9960  -23.3330  -12.9010 O.2     1  UNL1       -0.2050
     24  N         23.8880  -21.2400  -13.8560 N.pl3   1  UNL1       -0.1480
     25  H         23.6230  -20.2800  -13.6750 H       1  UNL1        0.1490
     26  C         24.5450  -21.4020  -15.0690 C.cat   1  UNL1        0.2160
     27  N         25.4620  -20.4610  -15.3050 N.2     1  UNL1       -0.2230
     28  C         26.0280  -20.4860  -16.5270 C.2     1  UNL1        0.0360
     29  C         25.6550  -21.3990  -17.4980 C.2     1  UNL1        0.0530
     30  C         27.0920  -19.4700  -16.8170 C.3     1  UNL1        0.0700
     31  C         24.6540  -22.2900  -17.1590 C.2     1  UNL1        0.0360
     32  C         24.1700  -23.3020  -18.1530 C.3     1  UNL1        0.0700
     33  N         24.0720  -22.2860  -15.9460 N.2     1  UNL1       -0.2230
@<TRIPOS>BOND
     1    32    31    1
     2    29    31    1
     3    29    28    2
     4    31    33    2
     5    30    28    1
     6    28    27    1
     7    33    26    1
     8    27    26    2
     9    26    24    1
    10    24    25    1
    11    24    21    1
    12    23    21    2
    13    21    22    2
    14    21     1    1
    15     6     1    2
    16     6     5    1
    17     1     2    1
    18     5     4    2
    19     2     3    2
    20     4     3    1
    21     4     7    1
    22    20    19    1
    23     7    10    1
    24     7     8   am
    25     9     8    2
    26     8    11    1
    27    19    11   ar
    28    19    15   ar
    29    11    12   ar
    30    15    18    1
    31    15    13   ar
    32    12    13   ar
    33    18    17    2
    34    13    14    1
    35    17    16    1
    36    14    16    2
