@<TRIPOS>MOLECULE
28040_out_ligand_01.pdbqt
 34 38 0 0 0
SMALL
GASTEIGER

@<TRIPOS>ATOM
      1  C         20.2690  -23.0160   -8.8080 C.2     1  UNL1        0.0340
      2  C         19.8960  -22.2410   -9.9150 C.2     1  UNL1        0.0180
      3  C         20.8500  -21.8690  -10.8660 C.2     1  UNL1        0.0200
      4  C         22.1760  -22.2830  -10.7120 C.ar    1  UNL1        0.0590
      5  C         23.2100  -21.9110  -11.6980 C.ar    1  UNL1        0.2640
      6  O         22.8860  -21.2400  -12.6750 O.2     1  UNL1       -0.2670
      7  N         24.5040  -22.3610  -11.4490 N.ar    1  UNL1       -0.2610
      8  C         24.8550  -23.1680  -10.3810 C.ar    1  UNL1        0.3300
      9  O         25.9860  -23.6100  -10.1820 O.2     1  UNL1       -0.2460
     10  N         23.8620  -23.4930   -9.5000 N.ar    1  UNL1       -0.3070
     11  C         22.5430  -23.0690   -9.6250 C.ar    1  UNL1        0.0530
     12  C         21.5970  -23.4440   -8.6680 C.2     1  UNL1        0.0470
     13  H         24.1520  -24.0800   -8.7280 H       1  UNL1        0.1700
     14  C         19.2170  -23.3920   -7.8260 C.2     1  UNL1        0.2520
     15  O         18.8780  -24.5640   -7.7190 O.2     1  UNL1       -0.2680
     16  N         18.6600  -22.3600   -7.0990 N.am    1  UNL1       -0.3520
     17  H         18.9500  -21.4070   -7.2640 H       1  UNL1        0.1630
     18  C         17.6610  -22.6060   -6.0580 C.3     1  UNL1        0.0840
     19  C         18.0480  -21.8260   -4.7930 C.3     1  UNL1        0.0250
     20  C         17.5420  -22.4220   -3.4820 C.3     1  UNL1        0.0020
     21  C         16.1320  -23.0060   -3.4760 C.3     1  UNL1        0.0000
     22  C         15.1070  -22.2300   -4.2940 C.3     1  UNL1        0.0000
     23  C         15.0890  -22.6470   -5.7630 C.3     1  UNL1        0.0020
     24  C         16.2850  -22.1830   -6.5900 C.3     1  UNL1        0.0250
     25  C         25.5530  -21.9690  -12.3780 C.3     1  UNL1        0.1750
     26  C         25.3270  -22.5450  -13.7620 C.2     1  UNL1       -0.0370
     27  C         25.3980  -23.9430  -13.9730 C.2     1  UNL1        0.0120
     28  C         25.1730  -24.4950  -15.2370 C.2     1  UNL1        0.0400
     29  C         24.8750  -23.6320  -16.2680 C.2     1  UNL1        0.1050
     30  C         24.7970  -22.2730  -16.0750 C.2     1  UNL1        0.1050
     31  O         24.6250  -23.9880  -17.5570 O.2     1  UNL1       -0.3230
     32  C         25.0130  -21.7000  -14.8400 C.2     1  UNL1        0.0480
     33  O         24.4870  -21.6040  -17.2180 O.2     1  UNL1       -0.3230
     34  C         24.3870  -22.6970  -18.1530 C.3     1  UNL1        0.3520
@<TRIPOS>BOND
     1    34    31    1
     2    34    33    1
     3    31    29    1
     4    33    30    1
     5    29    30    2
     6    29    28    1
     7    30    32    1
     8    28    27    2
     9    32    26    2
    10    27    26    1
    11    26    25    1
    12     6     5    2
    13    25     7    1
    14     5     7   ar
    15     5     4   ar
    16     7     8   ar
    17     3     4    2
    18     3     2    1
    19     4    11   ar
    20     8     9    2
    21     8    10   ar
    22     2     1    2
    23    11    10   ar
    24    11    12    2
    25    10    13    1
    26     1    12    1
    27     1    14    1
    28    14    15    2
    29    14    16   am
    30    17    16    1
    31    16    18    1
    32    24    18    1
    33    24    23    1
    34    18    19    1
    35    23    22    1
    36    19    20    1
    37    22    21    1
    38    20    21    1
