@<TRIPOS>MOLECULE
28045_out_ligand_01.pdbqt
 28 31 0 0 0
SMALL
GASTEIGER

@<TRIPOS>ATOM
      1  C         17.7860  -23.0130   -9.1620 C.2     1  UNL1        0.0820
      2  C         17.1300  -22.1070  -10.0070 C.2     1  UNL1        0.0280
      3  C         17.8170  -21.4730  -11.0480 C.2     1  UNL1        0.0330
      4  C         19.1710  -21.7870  -11.1810 C.ar    1  UNL1        0.0620
      5  N         20.1330  -21.3670  -12.0640 N.ar    1  UNL1       -0.3380
      6  C         21.3250  -21.9880  -11.7600 C.ar    1  UNL1        0.1390
      7  N         21.1580  -22.7790  -10.7130 N.ar    1  UNL1       -0.2280
      8  C         19.8430  -22.6670  -10.3450 C.ar    1  UNL1        0.0870
      9  C         19.1530  -23.2940   -9.3010 C.2     1  UNL1        0.0590
     10  H         19.9900  -20.7050  -12.8100 H       1  UNL1        0.1670
     11  S         16.8830  -23.8040   -7.8500 S.O2    1  UNL1        0.2630
     12  O         17.8150  -24.6060   -7.0870 O.2     1  UNL1       -0.2000
     13  O         15.6940  -24.3910   -8.4300 O.2     1  UNL1       -0.2000
     14  N         16.3570  -22.5030   -6.9050 N.pl3   1  UNL1       -0.2790
     15  H         16.0670  -21.7210   -7.4940 H       1  UNL1        0.1790
     16  C         17.0910  -22.1610   -5.7250 C.2     1  UNL1        0.0600
     17  C         18.2350  -21.3650   -5.8230 C.2     1  UNL1        0.0310
     18  C         18.9420  -21.0020   -4.6750 C.2     1  UNL1        0.0020
     19  C         18.5120  -21.4370   -3.4220 C.2     1  UNL1        0.0020
     20  C         17.3780  -22.2420   -3.3150 C.2     1  UNL1        0.0210
     21  C         16.6710  -22.6050   -4.4630 C.2     1  UNL1        0.0380
     22 BR         15.1420  -23.7140   -4.2610 Br      1  UNL1       -0.0490
     23  C         22.5830  -21.7850  -12.4910 C.2     1  UNL1        0.0100
     24  C         22.5540  -21.1070  -13.7190 C.2     1  UNL1        0.0150
     25  C         23.7240  -20.8890  -14.4520 C.2     1  UNL1        0.0010
     26  C         24.9440  -21.3480  -13.9650 C.2     1  UNL1        0.0000
     27  C         24.9940  -22.0220  -12.7470 C.2     1  UNL1        0.0010
     28  C         23.8220  -22.2390  -12.0140 C.2     1  UNL1        0.0150
@<TRIPOS>BOND
     1    25    26    2
     2    25    24    1
     3    26    27    1
     4    24    23    2
     5    10     5    1
     6    27    28    2
     7    23    28    1
     8    23     6    1
     9     5     6   ar
    10     5     4   ar
    11     6     7   ar
    12     4     3    2
    13     4     8   ar
    14     3     2    1
    15     7     8   ar
    16     8     9    2
    17     2     1    2
    18     9     1    1
    19     1    11    1
    20    13    11    2
    21    11    12    2
    22    11    14    1
    23    15    14    1
    24    14    16    1
    25    17    16    2
    26    17    18    1
    27    16    21    1
    28    18    19    2
    29    21    22    1
    30    21    20    2
    31    19    20    1
