@<TRIPOS>MOLECULE
28054_out_ligand_01.pdbqt
 36 39 0 0 0
SMALL
GASTEIGER

@<TRIPOS>ATOM
      1  N         18.3880  -22.5200   -8.4320 N.3     1  UNL1        0.1040
      2  C         18.0590  -22.4480   -9.8770 C.3     1  UNL1        0.3590
      3  C         19.0590  -21.8120  -10.7980 C.2     1  UNL1        0.1740
      4  O         18.8880  -20.4910  -11.1160 O.2     1  UNL1       -0.3030
      5  C         19.9340  -20.2050  -11.9420 C.2     1  UNL1        0.1810
      6  C         20.7110  -21.3340  -12.0800 C.2     1  UNL1        0.1490
      7  N         20.1400  -22.3530  -11.3290 N.2     1  UNL1       -0.2190
      8  C         21.9420  -21.5050  -12.8480 C.2     1  UNL1        0.2720
      9  O         22.1080  -20.9880  -13.9520 O.2     1  UNL1       -0.2660
     10  N         22.9180  -22.2910  -12.2650 N.am    1  UNL1       -0.3510
     11  H         22.8290  -22.5910  -11.3120 H       1  UNL1        0.1630
     12  C         24.2020  -22.4400  -12.9070 C.3     1  UNL1        0.1630
     13  C         25.1100  -21.2980  -12.5790 C.2     1  UNL1       -0.0230
     14  C         25.5950  -21.1000  -11.2820 C.2     1  UNL1        0.0120
     15  C         26.4580  -20.0420  -11.0170 C.2     1  UNL1        0.0200
     16  C         26.7970  -19.2010  -12.0610 C.2     1  UNL1        0.1160
     17  N         26.3490  -19.3570  -13.3250 N.2     1  UNL1       -0.2730
     18  C         25.5270  -20.4050  -13.5560 C.2     1  UNL1        0.1240
     19  C         19.2740  -23.6620   -8.1510 C.3     1  UNL1        0.3110
     20  C         20.7420  -23.3690   -8.3550 C.2     1  UNL1       -0.0300
     21  C         21.5740  -24.3040   -8.9830 C.2     1  UNL1        0.0090
     22  C         22.9270  -24.0240   -9.1840 C.2     1  UNL1        0.0010
     23  C         23.4600  -22.8060   -8.7650 C.2     1  UNL1        0.0000
     24  C         22.6420  -21.8660   -8.1470 C.2     1  UNL1        0.0010
     25  C         21.2900  -22.1430   -7.9460 C.2     1  UNL1        0.0090
     26  C         17.1710  -22.5130   -7.6000 C.3     1  UNL1        0.3120
     27  C         17.4280  -22.2460   -6.1230 C.2     1  UNL1       -0.0150
     28  C         18.5180  -21.4380   -5.7530 C.2     1  UNL1        0.0100
     29  C         18.7650  -21.1170   -4.4170 C.2     1  UNL1        0.0010
     30  C         17.9160  -21.5860   -3.4230 C.2     1  UNL1        0.0010
     31  C         16.8200  -22.3750   -3.7660 C.2     1  UNL1        0.0170
     32  C         16.5550  -22.7100   -5.1090 C.2     1  UNL1        0.0550
     33  C         15.3300  -23.5410   -5.4280 C.3     1  UNL1        0.4180
     34  F         14.3090  -22.7880   -5.9300 F       1  UNL1       -0.1660
     35  F         14.8050  -24.1850   -4.3500 F       1  UNL1       -0.1660
     36  F         15.5550  -24.5110   -6.3520 F       1  UNL1       -0.1660
@<TRIPOS>BOND
     1     9     8    2
     2    18    17    1
     3    18    13    2
     4    17    16    2
     5    12    13    1
     6    12    10    1
     7     8    10   am
     8     8     6    1
     9    13    14    1
    10    10    11    1
    11     6     5    2
    12     6     7    1
    13    16    15    1
    14     5     4    1
    15     7     3    2
    16    14    15    2
    17     4     3    1
    18     3     2    1
    19     2     1    1
    20    22    21    1
    21    22    23    2
    22    21    20    2
    23    23    24    1
    24     1    19    1
    25     1    26    1
    26    20    19    1
    27    20    25    1
    28    24    25    2
    29    26    27    1
    30    36    33    1
    31    27    28    2
    32    27    32    1
    33    34    33    1
    34    28    29    1
    35    33    32    1
    36    33    35    1
    37    32    31    2
    38    29    30    2
    39    31    30    1
