@<TRIPOS>MOLECULE
28060_out_ligand_01.pdbqt
 35 39 0 0 0
SMALL
GASTEIGER

@<TRIPOS>ATOM
      1  S         15.8350  -23.3380   -9.4400 S.3     1  UNL1       -0.0870
      2  C         15.9560  -23.2110   -7.7150 C.ar    1  UNL1        0.1700
      3  N         16.9910  -23.7350   -6.9700 N.ar    1  UNL1       -0.3190
      4  C         16.7580  -23.3720   -5.6550 C.ar    1  UNL1        0.0830
      5  C         17.4510  -23.5470   -4.4640 C.2     1  UNL1        0.1480
      6  C         15.5350  -22.7040   -5.6880 C.ar    1  UNL1        0.0890
      7  N         16.9120  -23.0600   -3.3170 N.2     1  UNL1       -0.2710
      8  C         15.7130  -22.4330   -3.3580 C.2     1  UNL1        0.1180
      9  C         14.9710  -22.2210   -4.5070 C.2     1  UNL1        0.0530
     10  N         15.0580  -22.6120   -6.9680 N.ar    1  UNL1       -0.2220
     11  C         18.1810  -24.4160   -7.4720 C.3     1  UNL1        0.1700
     12  C         19.4140  -23.5410   -7.5740 C.2     1  UNL1       -0.0340
     13  C         19.3680  -22.2600   -6.9850 C.2     1  UNL1        0.0090
     14  C         20.4610  -21.3980   -7.0490 C.2     1  UNL1        0.0010
     15  C         21.6170  -21.7920   -7.7130 C.2     1  UNL1        0.0010
     16  C         21.6760  -23.0450   -8.3190 C.2     1  UNL1        0.0070
     17  C         20.5810  -23.9250   -8.2720 C.2     1  UNL1       -0.0540
     18  C         20.7130  -25.2580   -8.9600 C.3     1  UNL1        0.0490
     19  C         16.4030  -21.6930   -9.9520 C.3     1  UNL1        0.1210
     20  C         17.7570  -21.6680  -10.6170 C.2     1  UNL1       -0.0480
     21  C         18.4930  -22.8480  -10.8120 C.2     1  UNL1        0.0090
     22  C         19.7720  -22.8070  -11.3810 C.2     1  UNL1        0.0170
     23  C         20.3270  -21.5800  -11.7640 C.2     1  UNL1        0.0320
     24  C         19.6000  -20.4000  -11.5720 C.2     1  UNL1        0.0170
     25  C         18.3210  -20.4470  -11.0110 C.2     1  UNL1        0.0090
     26  C         21.6980  -21.4710  -12.3360 C.2     1  UNL1        0.2520
     27  O         21.8630  -20.9500  -13.4330 O.2     1  UNL1       -0.2680
     28  N         22.7250  -21.9940  -11.5760 N.am    1  UNL1       -0.3520
     29  H         22.5150  -22.4540  -10.7000 H       1  UNL1        0.1630
     30  C         24.1100  -21.9480  -12.0290 C.3     1  UNL1        0.0840
     31  C         25.0420  -21.4250  -10.9330 C.3     1  UNL1        0.0250
     32  C         26.4780  -21.2610  -11.4410 C.3     1  UNL1        0.0020
     33  C         26.8470  -22.2340  -12.5630 C.3     1  UNL1        0.0000
     34  C         26.0800  -23.5430  -12.4490 C.3     1  UNL1        0.0020
     35  C         24.5650  -23.3330  -12.5230 C.3     1  UNL1        0.0250
@<TRIPOS>BOND
     1    27    26    2
     2    33    34    1
     3    33    32    1
     4    35    34    1
     5    35    30    1
     6    26    23    1
     7    26    28   am
     8    30    28    1
     9    30    31    1
    10    23    24    2
    11    23    22    1
    12    28    29    1
    13    24    25    1
    14    32    31    1
    15    22    21    2
    16    25    20    2
    17    21    20    1
    18    20    19    1
    19    19     1    1
    20     1     2    1
    21    18    17    1
    22    16    17    1
    23    16    15    2
    24    17    12    2
    25     2     3   ar
    26     2    10   ar
    27    15    14    1
    28    12    11    1
    29    12    13    1
    30    11     3    1
    31    14    13    2
    32     3     4   ar
    33    10     6   ar
    34     6     4   ar
    35     6     9    1
    36     4     5    1
    37     9     8    2
    38     5     7    2
    39     8     7    1
