@<TRIPOS>MOLECULE
28075_out_ligand_01.pdbqt
 38 41 0 0 0
SMALL
GASTEIGER

@<TRIPOS>ATOM
      1  N         21.1860  -23.2200   -9.2160 N.3     1  UNL1        0.1040
      2  C         22.6250  -23.5450   -9.0750 C.3     1  UNL1        0.3590
      3  C         23.6220  -22.8390   -9.9540 C.2     1  UNL1        0.1740
      4  O         23.9050  -21.5220   -9.7050 O.2     1  UNL1       -0.3030
      5  C         24.8260  -21.1860  -10.6480 C.2     1  UNL1        0.1810
      6  C         25.0830  -22.2940  -11.4280 C.2     1  UNL1        0.1490
      7  N         24.2990  -23.3410  -10.9680 N.2     1  UNL1       -0.2190
      8  C         26.0150  -22.4180  -12.5490 C.2     1  UNL1        0.2720
      9  O         26.9220  -23.2470  -12.5700 O.2     1  UNL1       -0.2660
     10  N         25.8180  -21.5380  -13.5940 N.am    1  UNL1       -0.3510
     11  H         25.0450  -20.8900  -13.5900 H       1  UNL1        0.1630
     12  C         26.6730  -21.5830  -14.7560 C.3     1  UNL1        0.1630
     13  C         25.9050  -22.0290  -15.9640 C.2     1  UNL1       -0.0230
     14  C         25.5870  -21.1430  -16.9990 C.2     1  UNL1        0.0120
     15  C         24.8400  -21.5930  -18.0840 C.2     1  UNL1        0.0200
     16  C         24.4260  -22.9150  -18.0940 C.2     1  UNL1        0.1160
     17  N         24.7010  -23.7950  -17.1070 N.2     1  UNL1       -0.2730
     18  C         25.4340  -23.3350  -16.0700 C.2     1  UNL1        0.1240
     19  C         20.8430  -22.8760  -10.6060 C.3     1  UNL1        0.3110
     20  C         19.4860  -22.2190  -10.7590 C.2     1  UNL1       -0.0290
     21  C         19.3450  -21.0490  -11.5190 C.2     1  UNL1        0.0090
     22  C         18.1000  -20.4350  -11.6500 C.2     1  UNL1        0.0010
     23  C         16.9770  -20.9900  -11.0340 C.2     1  UNL1        0.0160
     24  C         17.0840  -22.1790  -10.2990 C.2     1  UNL1        0.0480
     25  C         18.3440  -22.7860  -10.1710 C.2     1  UNL1        0.0250
     26  C         15.8780  -22.7830   -9.6250 C.3     1  UNL1        0.4170
     27  F         15.8090  -22.4950   -8.2940 F       1  UNL1       -0.1660
     28  F         14.7030  -22.3500  -10.1640 F       1  UNL1       -0.1660
     29  F         15.8460  -24.1450   -9.7050 F       1  UNL1       -0.1660
     30  C         20.7510  -22.2330   -8.2150 C.3     1  UNL1        0.3150
     31  C         19.6280  -22.7180   -7.3290 C.2     1  UNL1        0.0090
     32  C         19.0380  -23.9750   -7.5370 C.2     1  UNL1        0.0150
     33  C         18.0160  -24.4210   -6.6950 C.2     1  UNL1        0.0430
     34  C         17.5780  -23.6100   -5.6530 C.2     1  UNL1        0.1190
     35  F         16.6020  -24.0460   -4.8460 F       1  UNL1       -0.2060
     36  C         18.1340  -22.3570   -5.4390 C.2     1  UNL1        0.0850
     37  C         19.1500  -21.9190   -6.2800 C.2     1  UNL1        0.1270
     38  F         19.6700  -20.6990   -6.0750 F       1  UNL1       -0.2050
@<TRIPOS>BOND
     1    16    15    2
     2    16    17    1
     3    15    14    1
     4    17    18    2
     5    14    13    2
     6    18    13    1
     7    13    12    1
     8    12    10    1
     9    10    11    1
    10    10     8   am
    11     9     8    2
    12     8     6    1
    13    22    21    1
    14    22    23    2
    15    21    20    2
    16     6     7    1
    17     6     5    2
    18    23    24    1
    19     7     3    2
    20    20    19    1
    21    20    25    1
    22     5     4    1
    23    19     1    1
    24    24    25    2
    25    24    26    1
    26    28    26    1
    27     3     4    1
    28     3     2    1
    29    29    26    1
    30    26    27    1
    31     1     2    1
    32     1    30    1
    33    30    31    1
    34    32    31    2
    35    32    33    1
    36    31    37    1
    37    33    34    2
    38    37    38    1
    39    37    36    2
    40    34    36    1
    41    34    35    1
