@<TRIPOS>MOLECULE
28098_out_ligand_01.pdbqt
 34 37 0 0 0
SMALL
GASTEIGER

@<TRIPOS>ATOM
      1  C         22.8350  -22.0110  -12.1570 C.2     1  UNL1        0.0320
      2  C         22.8250  -22.8490  -11.0390 C.2     1  UNL1        0.0180
      3  C         21.6360  -23.0580  -10.3260 C.2     1  UNL1        0.0150
      4  C         20.4280  -22.4500  -10.7160 C.2     1  UNL1       -0.0070
      5  C         20.4630  -21.6150  -11.8490 C.2     1  UNL1        0.0150
      6  C         21.6460  -21.4030  -12.5670 C.2     1  UNL1        0.0180
      7  C         19.1610  -22.6660   -9.9810 C.2     1  UNL1        0.0720
      8  C         19.1180  -23.1630   -8.6900 C.2     1  UNL1        0.0900
      9  C         17.8680  -23.3310   -8.1250 C.2     1  UNL1        0.1730
     10  N         16.7330  -22.9970   -8.7640 N.2     1  UNL1       -0.2170
     11  C         16.8760  -22.5350  -10.0080 C.2     1  UNL1        0.2360
     12  N         18.0340  -22.3540  -10.6550 N.2     1  UNL1       -0.2410
     13  O         17.6570  -23.7920   -6.8420 O.2     1  UNL1       -0.2890
     14  C         17.9140  -22.9450   -5.7880 C.2     1  UNL1        0.1110
     15  C         18.7370  -21.8450   -6.0530 C.2     1  UNL1        0.0400
     16  C         19.0190  -20.9330   -5.0400 C.2     1  UNL1        0.0030
     17  C         18.4620  -21.1110   -3.7750 C.2     1  UNL1        0.0030
     18  C         17.6180  -22.1980   -3.5170 C.2     1  UNL1        0.0390
     19  C         17.3260  -23.1210   -4.5250 C.2     1  UNL1        0.1020
     20  O         16.5060  -24.2070   -4.3810 O.2     1  UNL1       -0.3530
     21  C         15.1040  -23.9890   -4.4710 C.3     1  UNL1        0.2100
     22  C         24.0730  -21.7660  -12.9510 C.2     1  UNL1        0.2560
     23  N         23.9030  -20.9530  -14.0500 N.am    1  UNL1       -0.3210
     24  H         22.9640  -20.6680  -14.3040 H       1  UNL1        0.1690
     25  O         25.1100  -22.3100  -12.5910 O.2     1  UNL1       -0.2670
     26  C         24.8800  -20.5140  -14.9730 C.2     1  UNL1        0.0680
     27  C         25.7670  -19.4670  -14.7170 C.2     1  UNL1        0.0320
     28  C         26.7080  -19.0930  -15.6780 C.2     1  UNL1        0.0020
     29  C         26.7660  -19.7620  -16.8980 C.2     1  UNL1        0.0030
     30  C         25.8810  -20.8080  -17.1680 C.2     1  UNL1        0.0390
     31  C         24.9300  -21.1870  -16.2160 C.2     1  UNL1        0.0950
     32  O         24.0080  -22.1960  -16.3700 O.2     1  UNL1       -0.3490
     33  C         24.4600  -23.4940  -16.7570 C.3     1  UNL1        0.1710
     34  C         25.1860  -24.1750  -15.6100 C.3     1  UNL1        0.0340
@<TRIPOS>BOND
     1    30    29    2
     2    30    31    1
     3    29    28    1
     4    33    32    1
     5    33    34    1
     6    32    31    1
     7    31    26    2
     8    28    27    2
     9    26    27    1
    10    26    23    1
    11    24    23    1
    12    23    22   am
    13    22    25    2
    14    22     1    1
    15     6     1    2
    16     6     5    1
    17     1     2    1
    18     5     4    2
    19     2     3    2
    20     4     3    1
    21     4     7    1
    22    12    11    2
    23    12     7    1
    24    11    10    1
    25     7     8    2
    26    10     9    2
    27     8     9    1
    28     9    13    1
    29    13    14    1
    30    15    14    2
    31    15    16    1
    32    14    19    1
    33    16    17    2
    34    19    20    1
    35    19    18    2
    36    21    20    1
    37    17    18    1
