@<TRIPOS>MOLECULE
28099_out_ligand_01.pdbqt
 33 36 0 0 0
SMALL
GASTEIGER

@<TRIPOS>ATOM
      1  C         19.2400  -22.1620  -10.2400 C.2     1  UNL1        0.0720
      2  C         18.7790  -22.9830   -9.1990 C.2     1  UNL1        0.0450
      3  C         17.4100  -23.0390   -8.9050 C.2     1  UNL1        0.0760
      4  C         16.4850  -22.2970   -9.6430 C.2     1  UNL1        0.0280
      5  C         16.9410  -21.4830  -10.6790 C.2     1  UNL1        0.0450
      6  C         18.3040  -21.4190  -10.9700 C.2     1  UNL1        0.1320
      7  F         18.6900  -20.6180  -11.9740 F       1  UNL1       -0.2050
      8  C         20.7110  -22.1180  -10.5110 C.2     1  UNL1        0.2590
      9  N         21.0970  -22.1190  -11.8380 N.am    1  UNL1       -0.3230
     10  H         20.3600  -22.1350  -12.5350 H       1  UNL1        0.1690
     11  O         21.4640  -22.0810   -9.5430 O.2     1  UNL1       -0.2670
     12  C         22.4090  -22.0990  -12.3560 C.2     1  UNL1        0.0350
     13  C         22.6310  -21.3210  -13.4990 C.2     1  UNL1        0.0300
     14  C         23.9020  -21.2490  -14.0820 C.2     1  UNL1        0.0100
     15  C         24.9800  -21.9550  -13.5370 C.2     1  UNL1       -0.0550
     16  C         24.7520  -22.7310  -12.3910 C.2     1  UNL1        0.0100
     17  C         23.4810  -22.8010  -11.8070 C.2     1  UNL1        0.0300
     18  C         26.3670  -21.9000  -14.1480 C.3     1  UNL1        0.0100
     19  C         26.3330  -21.3120  -15.5610 C.3     1  UNL1        0.0150
     20  C         27.0410  -23.2740  -14.1450 C.3     1  UNL1        0.0150
     21  S         16.8560  -24.0990   -7.5790 S.O2    1  UNL1        0.2480
     22  O         18.0590  -24.7190   -7.0670 O.2     1  UNL1       -0.2050
     23  O         15.7650  -24.9000   -8.1000 O.2     1  UNL1       -0.2050
     24  N         16.1850  -22.9600   -6.4440 N.pl3   1  UNL1       -0.1720
     25  C         14.9900  -23.5250   -5.7370 C.3     1  UNL1        0.1140
     26  C         14.5780  -22.6750   -4.5500 C.3     1  UNL1        0.0200
     27  C         15.7220  -22.6460   -3.5540 C.3     1  UNL1        0.0420
     28  C         16.9610  -22.1190   -4.2210 C.2     1  UNL1       -0.0360
     29  C         17.9190  -21.4660   -3.4270 C.2     1  UNL1        0.0090
     30  C         17.1740  -22.2770   -5.6040 C.2     1  UNL1        0.0310
     31  C         19.0500  -20.8980   -4.0050 C.2     1  UNL1        0.0010
     32  C         19.2210  -20.9670   -5.3810 C.2     1  UNL1        0.0020
     33  C         18.2820  -21.6360   -6.1720 C.2     1  UNL1        0.0250
@<TRIPOS>BOND
     1    19    18    1
     2    18    20    1
     3    18    15    1
     4    14    15    2
     5    14    13    1
     6    15    16    1
     7    13    12    2
     8    10     9    1
     9    16    17    2
    10    12     9    1
    11    12    17    1
    12     7     6    1
    13     9     8   am
    14     6     5    1
    15     6     1    2
    16     5     4    2
    17     8     1    1
    18     8    11    2
    19     1     2    1
    20     4     3    1
    21     2     3    2
    22     3    21    1
    23    23    21    2
    24    21    22    2
    25    21    24    1
    26    24    25    1
    27    24    30    1
    28    33    30    1
    29    33    32    2
    30    25    26    1
    31    30    28    2
    32    32    31    1
    33    26    27    1
    34    28    27    1
    35    28    29    1
    36    31    29    2
