@<TRIPOS>MOLECULE
28101_out_ligand_01.pdbqt
 38 41 0 0 0
SMALL
GASTEIGER

@<TRIPOS>ATOM
      1  N         22.0860  -22.3170   -9.7620 N.am    1  UNL1       -0.3160
      2  C         21.3860  -23.4550   -9.4190 C.2     1  UNL1        0.2560
      3  O         21.5530  -24.5720   -9.8950 O.2     1  UNL1       -0.2670
      4  H         22.1720  -21.5750   -9.0790 H       1  UNL1        0.1690
      5  C         22.9560  -22.2420  -10.8260 C.ar    1  UNL1        0.0930
      6  S         22.1960  -21.6040  -12.2160 S.2     1  UNL1       -0.0740
      7  C         23.6430  -21.6570  -13.1050 C.ar    1  UNL1        0.0100
      8  C         24.6770  -22.2110  -12.3790 C.ar    1  UNL1       -0.0240
      9  C         23.7210  -21.1580  -14.5150 C.3     1  UNL1        0.1720
     10  C         26.0190  -22.4130  -13.0100 C.3     1  UNL1        0.0600
     11  C         24.2770  -22.5850  -11.0440 C.ar    1  UNL1        0.0670
     12  C         26.2000  -21.4710  -14.2110 C.3     1  UNL1        0.1310
     13  N         25.0300  -21.4660  -15.1100 N.am    1  UNL1       -0.3470
     14  C         25.1230  -21.2800  -16.4850 C.2     1  UNL1        0.2160
     15  C         26.4770  -21.4600  -17.1210 C.3     1  UNL1        0.1170
     16  O         24.1490  -20.9860  -17.1780 O.2     1  UNL1       -0.2740
     17  C         25.1330  -23.3130  -10.1240 C.2     1  UNL1        0.2320
     18  N         24.4730  -23.9510   -9.1130 N.am    1  UNL1       -0.2680
     19  H         25.0710  -24.6060   -8.6270 H       1  UNL1        0.1270
     20  H         23.5960  -24.3760   -9.4090 H       1  UNL1        0.1270
     21  O         26.3560  -23.3180  -10.2050 O.2     1  UNL1       -0.2740
     22  C         20.4280  -23.2850   -8.2880 C.2     1  UNL1        0.0320
     23  C         19.5680  -24.3480   -7.9720 C.2     1  UNL1        0.0180
     24  C         18.6530  -24.2270   -6.9240 C.2     1  UNL1        0.0260
     25  C         18.5990  -23.0360   -6.1940 C.2     1  UNL1        0.0750
     26  C         19.4340  -21.9610   -6.5160 C.2     1  UNL1        0.0260
     27  C         20.3480  -22.0850   -7.5650 C.2     1  UNL1        0.0180
     28  S         17.4240  -22.8470   -4.8670 S.O2    1  UNL1        0.2470
     29  O         17.9230  -21.8130   -3.9820 O.2     1  UNL1       -0.2050
     30  O         17.1400  -24.1810   -4.3820 O.2     1  UNL1       -0.2050
     31  N         16.0500  -22.2320   -5.6940 N.pl3   1  UNL1       -0.1760
     32  C         14.7950  -22.2210   -4.9020 C.3     1  UNL1        0.1360
     33  C         15.8850  -22.7560   -7.0280 C.2     1  UNL1        0.0250
     34  C         16.2440  -22.0280   -8.1660 C.2     1  UNL1        0.0240
     35  C         16.1390  -22.6130   -9.4300 C.2     1  UNL1        0.0020
     36  C         15.6990  -23.9310   -9.5550 C.2     1  UNL1        0.0000
     37  C         15.3690  -24.6680   -8.4180 C.2     1  UNL1        0.0020
     38  C         15.4720  -24.0840   -7.1540 C.2     1  UNL1        0.0240
@<TRIPOS>BOND
     1    16    14    2
     2    15    14    1
     3    14    13   am
     4    13     9    1
     5    13    12    1
     6     9     7    1
     7    12    10    1
     8     7     8   ar
     9     7     6   ar
    10    10     8    1
    11     8    11   ar
    12     6     5   ar
    13    11     5   ar
    14    11    17    1
    15     5     1    1
    16    21    17    2
    17    17    18   am
    18     3     2    2
    19     1     2   am
    20     1     4    1
    21    36    35    2
    22    36    37    1
    23    35    34    1
    24     2    22    1
    25    20    18    1
    26    18    19    1
    27    37    38    2
    28    22    23    2
    29    22    27    1
    30    34    33    2
    31    23    24    1
    32    27    26    2
    33    38    33    1
    34    33    31    1
    35    24    25    2
    36    26    25    1
    37    25    28    1
    38    31    32    1
    39    31    28    1
    40    28    30    2
    41    28    29    2
