@<TRIPOS>MOLECULE
28109_out_ligand_01.pdbqt
 36 39 0 0 0
SMALL
GASTEIGER

@<TRIPOS>ATOM
      1  N         21.7760  -22.7190   -9.9680 N.am    1  UNL1       -0.3160
      2  C         21.8650  -22.0630   -8.7570 C.2     1  UNL1        0.2560
      3  O         22.7990  -21.3630   -8.3810 O.2     1  UNL1       -0.2670
      4  H         21.2170  -23.5600  -10.0300 H       1  UNL1        0.1690
      5  C         20.7470  -22.3400   -7.8100 C.2     1  UNL1        0.0320
      6  C         20.4230  -21.3690   -6.8500 C.2     1  UNL1        0.0180
      7  C         19.3740  -21.5850   -5.9530 C.2     1  UNL1        0.0260
      8  C         18.6400  -22.7720   -6.0330 C.2     1  UNL1        0.0750
      9  C         18.9510  -23.7470   -6.9870 C.2     1  UNL1        0.0260
     10  C         20.0010  -23.5270   -7.8810 C.2     1  UNL1        0.0180
     11  S         17.2940  -23.0740   -4.9060 S.O2    1  UNL1        0.2470
     12  O         17.2060  -24.5120   -4.7580 O.2     1  UNL1       -0.2050
     13  O         17.4780  -22.2100   -3.7550 O.2     1  UNL1       -0.2050
     14  N         15.9450  -22.5030   -5.7990 N.pl3   1  UNL1       -0.1760
     15  C         14.6470  -22.5580   -5.0840 C.3     1  UNL1        0.1360
     16  C         15.8820  -23.0020   -7.1500 C.2     1  UNL1        0.0250
     17  C         16.0920  -22.0910   -8.1870 C.2     1  UNL1        0.0240
     18  C         15.9760  -22.5060   -9.5150 C.2     1  UNL1        0.0020
     19  C         15.6330  -23.8250   -9.8060 C.2     1  UNL1        0.0000
     20  C         15.3980  -24.7310   -8.7710 C.2     1  UNL1        0.0020
     21  C         15.5130  -24.3180   -7.4430 C.2     1  UNL1        0.0240
     22  C         22.6510  -22.5010  -11.0080 C.ar    1  UNL1        0.0930
     23  S         21.9420  -21.6140  -12.2760 S.2     1  UNL1       -0.0750
     24  C         23.3410  -21.7530  -13.2280 C.ar    1  UNL1       -0.0080
     25  C         23.4170  -21.1890  -14.6120 C.3     1  UNL1        0.0470
     26  C         24.3630  -22.4230  -12.5780 C.ar    1  UNL1       -0.0270
     27  C         24.8810  -21.0520  -15.0550 C.3     1  UNL1        0.0090
     28  C         25.6980  -22.3190  -14.7270 C.3     1  UNL1       -0.0140
     29  C         27.1200  -22.2020  -15.2690 C.3     1  UNL1        0.0100
     30  C         25.7210  -22.5850  -13.2040 C.3     1  UNL1        0.0450
     31  C         23.9750  -22.8230  -11.2420 C.ar    1  UNL1        0.0670
     32  C         24.8650  -23.3980  -10.2450 C.2     1  UNL1        0.2320
     33  N         24.2310  -24.0010   -9.1940 N.am    1  UNL1       -0.2680
     34  H         24.8430  -24.1490   -8.4040 H       1  UNL1        0.1270
     35  H         23.3110  -23.6480   -8.9680 H       1  UNL1        0.1270
     36  O         26.0870  -23.3600  -10.3240 O.2     1  UNL1       -0.2740
@<TRIPOS>BOND
     1    29    28    1
     2    27    28    1
     3    27    25    1
     4    28    30    1
     5    25    24    1
     6    24    26   ar
     7    24    23   ar
     8    30    26    1
     9    26    31   ar
    10    23    22   ar
    11    31    22   ar
    12    31    32    1
    13    22     1    1
    14    36    32    2
    15    32    33   am
    16     4     1    1
    17     1     2   am
    18    19    18    2
    19    19    20    1
    20    18    17    1
    21    33    35    1
    22    33    34    1
    23    20    21    2
    24     2     3    2
    25     2     5    1
    26    17    16    2
    27    10     5    2
    28    10     9    1
    29     5     6    1
    30    21    16    1
    31    16    14    1
    32     9     8    2
    33     6     7    2
    34     8     7    1
    35     8    11    1
    36    14    15    1
    37    14    11    1
    38    11    12    2
    39    11    13    2
