@<TRIPOS>MOLECULE
28128_out_ligand_01.pdbqt
 27 30 0 0 0
SMALL
GASTEIGER

@<TRIPOS>ATOM
      1  C         17.9130  -22.1600  -10.3910 C.2     1  UNL1       -0.0400
      2  C         18.9630  -22.9500   -9.9090 C.2     1  UNL1        0.0100
      3  C         20.2460  -22.8290  -10.4520 C.2     1  UNL1        0.0160
      4  C         20.5130  -21.9140  -11.4800 C.2     1  UNL1        0.0170
      5  C         19.4600  -21.1180  -11.9530 C.2     1  UNL1        0.0160
      6  C         18.1750  -21.2360  -11.4120 C.2     1  UNL1        0.0100
      7  C         16.5310  -22.2630   -9.7980 C.3     1  UNL1        0.1610
      8  N         16.5930  -22.2680   -8.3550 N.am    1  UNL1       -0.3530
      9  C         16.1440  -23.3300   -7.6060 C.2     1  UNL1        0.2550
     10  O         15.7600  -24.3830   -8.1070 O.2     1  UNL1       -0.2680
     11  H         16.7950  -21.3880   -7.8960 H       1  UNL1        0.1630
     12  C         16.1280  -23.1700   -6.1240 C.2     1  UNL1        0.0700
     13  C         17.1850  -23.7200   -5.3830 C.2     1  UNL1        0.0200
     14  C         17.2180  -23.5980   -3.9900 C.2     1  UNL1        0.0010
     15  C         16.1950  -22.9260   -3.3240 C.2     1  UNL1        0.0030
     16  C         15.1400  -22.3760   -4.0500 C.2     1  UNL1        0.0430
     17  C         15.1110  -22.4990   -5.4390 C.2     1  UNL1        0.1320
     18  F         14.0730  -21.9560   -6.0940 F       1  UNL1       -0.2050
     19  C         21.8660  -21.8130  -12.0220 C.2     1  UNL1        0.1820
     20  N         23.0090  -22.1800  -11.4650 N.2     1  UNL1       -0.2010
     21  C         23.9400  -21.8580  -12.4080 C.2     1  UNL1        0.1860
     22  N         25.2780  -22.0390  -12.3130 N.2     1  UNL1       -0.2390
     23  C         23.3260  -21.3020  -13.5170 C.2     1  UNL1        0.1250
     24  C         25.9600  -21.6250  -13.4090 C.2     1  UNL1        0.1190
     25  C         25.4010  -21.0570  -14.5550 C.3     1  UNL1        0.0220
     26  C         24.0200  -20.8760  -14.6380 C.2     1  UNL1        0.0430
     27  O         21.9860  -21.2670  -13.2810 O.2     1  UNL1       -0.2870
@<TRIPOS>BOND
     1    26    25    1
     2    26    23    2
     3    25    24    1
     4    23    27    1
     5    23    21    1
     6    24    22    2
     7    27    19    1
     8    21    22    1
     9    21    20    2
    10    19     4    1
    11    19    20    2
    12     5     4    2
    13     5     6    1
    14     4     3    1
    15     6     1    2
    16     3     2    2
    17     1     2    1
    18     1     7    1
    19     7     8    1
    20     8    11    1
    21     8     9   am
    22    10     9    2
    23     9    12    1
    24    12    17    2
    25    12    13    1
    26    18    17    1
    27    17    16    1
    28    13    14    2
    29    16    15    2
    30    14    15    1
