@<TRIPOS>MOLECULE
28123_out_ligand_01.pdbqt
 32 34 0 0 0
SMALL
GASTEIGER

@<TRIPOS>ATOM
      1  C         26.1500  -20.4000  -16.3860 C.3     1  UNL1        0.0500
      2  C         25.9160  -21.0770  -15.0600 C.2     1  UNL1       -0.0340
      3  C         26.3130  -20.3010  -13.9020 C.2     1  UNL1        0.0330
      4  C         26.0950  -20.7300  -12.6480 C.2     1  UNL1        0.0120
      5  C         26.5140  -19.8870  -11.4730 C.3     1  UNL1        0.0680
      6  N         25.5000  -21.9800  -12.4450 N.am    1  UNL1       -0.3080
      7  C         25.2100  -22.8420  -13.5080 C.2     1  UNL1        0.2690
      8  O         24.8680  -24.0130  -13.3230 O.2     1  UNL1       -0.2660
      9  C         25.3800  -22.3030  -14.8910 C.2     1  UNL1        0.1180
     10  C         24.9750  -23.1240  -15.9810 C.1     1  UNL1        0.1050
     11  N         24.6640  -23.7370  -16.9160 N.1     1  UNL1       -0.1910
     12  C         25.1640  -22.4490  -11.0890 C.3     1  UNL1        0.2350
     13  C         23.7970  -21.9920  -10.5660 C.2     1  UNL1        0.2400
     14  O         23.7310  -21.1050   -9.7170 O.2     1  UNL1       -0.2710
     15  N         22.7260  -22.5680  -11.2230 N.am    1  UNL1       -0.3260
     16  H         22.9600  -23.1270  -12.0410 H       1  UNL1        0.1690
     17  C         21.3520  -22.3880  -10.9670 C.2     1  UNL1        0.0350
     18  C         20.6270  -21.6160  -11.8960 C.2     1  UNL1        0.0290
     19  C         19.2580  -21.3950  -11.7310 C.2     1  UNL1        0.0030
     20  C         18.5970  -21.9360  -10.6270 C.2     1  UNL1        0.0170
     21  C         19.3100  -22.7050   -9.6890 C.2     1  UNL1        0.0340
     22  C         20.6820  -22.9420   -9.8720 C.2     1  UNL1        0.0460
     23  C         18.6390  -23.3060   -8.5030 C.2     1  UNL1        0.2520
     24  O         19.0330  -24.3700   -8.0410 O.2     1  UNL1       -0.2680
     25  N         17.5990  -22.5760   -7.9610 N.am    1  UNL1       -0.3520
     26  H         17.5070  -21.6080   -8.2350 H       1  UNL1        0.1630
     27  C         16.9500  -22.9770   -6.7240 C.3     1  UNL1        0.0840
     28  C         15.5070  -22.4670   -6.6990 C.3     1  UNL1        0.0250
     29  C         14.7570  -22.9010   -5.4390 C.3     1  UNL1        0.0020
     30  C         15.6570  -23.0720   -4.2180 C.3     1  UNL1        0.0000
     31  C         16.8790  -22.1660   -4.2860 C.3     1  UNL1        0.0020
     32  C         17.7480  -22.4840   -5.5070 C.3     1  UNL1        0.0250
@<TRIPOS>BOND
     1    11    10    3
     2     1     2    1
     3    10     9    1
     4     2     9    2
     5     2     3    1
     6     9     7    1
     7     3     4    2
     8     7     8    2
     9     7     6   am
    10     4     6    1
    11     4     5    1
    12     6    12    1
    13    16    15    1
    14    18    19    1
    15    18    17    2
    16    19    20    2
    17    15    17    1
    18    15    13   am
    19    12    13    1
    20    17    22    1
    21    20    21    1
    22    13    14    2
    23    22    21    2
    24    21    23    1
    25    23    24    2
    26    23    25   am
    27    26    25    1
    28    25    27    1
    29    27    28    1
    30    27    32    1
    31    28    29    1
    32    32    31    1
    33    29    30    1
    34    31    30    1
