@<TRIPOS>MOLECULE
28130_out_ligand_01.pdbqt
 38 41 0 0 0
SMALL
GASTEIGER

@<TRIPOS>ATOM
      1  N         21.5830  -22.8950   -9.4680 N.3     1  UNL1        0.1040
      2  C         20.7470  -23.6950   -8.5520 C.3     1  UNL1        0.3120
      3  C         20.1140  -22.8770   -7.4380 C.2     1  UNL1       -0.0240
      4  C         20.7530  -21.6870   -7.0410 C.2     1  UNL1        0.0100
      5  C         20.2190  -20.8810   -6.0360 C.2     1  UNL1        0.0070
      6  C         19.0320  -21.2440   -5.4000 C.2     1  UNL1       -0.0610
      7  C         18.4370  -20.3620   -4.3430 C.3     1  UNL1        0.0480
      8  C         18.3750  -22.4120   -5.8060 C.2     1  UNL1        0.0140
      9  C         18.9010  -23.2390   -6.8160 C.2     1  UNL1       -0.0530
     10  C         18.1430  -24.4790   -7.2020 C.3     1  UNL1        0.0490
     11  C         21.0330  -22.9290  -10.8350 C.3     1  UNL1        0.3110
     12  C         19.6970  -22.2230  -10.9370 C.2     1  UNL1       -0.0290
     13  C         19.5830  -21.0420  -11.6890 C.2     1  UNL1        0.0090
     14  C         18.3570  -20.3870  -11.8060 C.2     1  UNL1        0.0010
     15  C         17.2280  -20.9030  -11.1710 C.2     1  UNL1        0.0160
     16  C         17.3120  -22.0820  -10.4160 C.2     1  UNL1        0.0480
     17  C         18.5550  -22.7310  -10.2990 C.2     1  UNL1        0.0250
     18  C         16.1000  -22.6330   -9.7070 C.3     1  UNL1        0.4170
     19  F         16.0110  -22.2500   -8.4040 F       1  UNL1       -0.1660
     20  F         14.9270  -22.2450  -10.2860 F       1  UNL1       -0.1660
     21  F         16.0760  -23.9950   -9.6990 F       1  UNL1       -0.1660
     22  C         22.9860  -23.3630   -9.4510 C.3     1  UNL1        0.3590
     23  C         23.8990  -22.6360  -10.4050 C.2     1  UNL1        0.1740
     24  N         24.4360  -21.4340  -10.3260 N.2     1  UNL1       -0.2190
     25  C         25.1910  -21.3050  -11.4810 C.2     1  UNL1        0.1490
     26  C         25.0500  -22.4610  -12.2200 C.2     1  UNL1        0.1810
     27  O         24.2310  -23.3150  -11.5470 O.2     1  UNL1       -0.3030
     28  C         25.9760  -20.1090  -11.7950 C.2     1  UNL1        0.2720
     29  O         26.4440  -19.3780  -10.9260 O.2     1  UNL1       -0.2660
     30  N         26.1670  -19.8450  -13.1380 N.am    1  UNL1       -0.3510
     31  H         25.8630  -20.5040  -13.8430 H       1  UNL1        0.1630
     32  C         26.9980  -18.7390  -13.5480 C.3     1  UNL1        0.1630
     33  C         26.7440  -18.3770  -14.9800 C.2     1  UNL1       -0.0230
     34  C         26.8720  -17.0590  -15.4310 C.2     1  UNL1        0.0120
     35  C         26.6110  -16.7550  -16.7650 C.2     1  UNL1        0.0200
     36  C         26.2190  -17.7850  -17.6040 C.2     1  UNL1        0.1160
     37  N         26.0690  -19.0660  -17.2030 N.2     1  UNL1       -0.2730
     38  C         26.3380  -19.3330  -15.9050 C.2     1  UNL1        0.1240
@<TRIPOS>BOND
     1    36    37    2
     2    36    35    1
     3    37    38    1
     4    35    34    2
     5    38    33    2
     6    34    33    1
     7    33    32    1
     8    31    30    1
     9    32    30    1
    10    30    28   am
    11    26    27    1
    12    26    25    2
    13    14    13    1
    14    14    15    2
    15    28    25    1
    16    28    29    2
    17    13    12    2
    18    27    23    1
    19    25    24    1
    20    15    16    1
    21    12    11    1
    22    12    17    1
    23    11     1    1
    24    16    17    2
    25    16    18    1
    26    23    24    2
    27    23    22    1
    28    20    18    1
    29    18    21    1
    30    18    19    1
    31     1    22    1
    32     1     2    1
    33     2     3    1
    34     3     4    2
    35     3     9    1
    36    10     9    1
    37     4     5    1
    38     9     8    2
    39     5     6    2
    40     8     6    1
    41     6     7    1
