@<TRIPOS>MOLECULE
28138_out_ligand_01.pdbqt
 33 36 0 0 0
SMALL
GASTEIGER

@<TRIPOS>ATOM
      1  C         19.5360  -23.6600  -10.0580 C.3     1  UNL1        0.1690
      2  N         18.3280  -22.8460   -9.9920 N.pl3   1  UNL1       -0.3250
      3  C         17.9460  -21.8680  -10.9300 C.2     1  UNL1        0.0170
      4  C         16.7330  -21.3400  -10.7050 C.2     1  UNL1        0.0780
      5  C         18.7940  -21.4820  -12.0990 C.3     1  UNL1        0.0690
      6  S         15.9640  -22.0350   -9.3070 S.3     1  UNL1       -0.0620
      7  C         17.3530  -23.1250   -9.0320 C.2     1  UNL1        0.1770
      8  N         17.4380  -24.0120   -8.0950 N.am    1  UNL1       -0.1840
      9  C         16.3440  -24.2160   -7.2990 C.2     1  UNL1        0.2790
     10  O         15.3950  -24.9110   -7.6410 O.2     1  UNL1       -0.2650
     11  C         16.3740  -23.6090   -5.9330 C.2     1  UNL1        0.0340
     12  C         15.3250  -23.8870   -5.0470 C.2     1  UNL1        0.0170
     13  C         15.3170  -23.3270   -3.7690 C.2     1  UNL1        0.0020
     14  C         16.3550  -22.4840   -3.3690 C.2     1  UNL1        0.0070
     15  C         17.4170  -22.2040   -4.2390 C.2     1  UNL1       -0.0610
     16  C         18.5210  -21.2740   -3.8290 C.3     1  UNL1        0.0480
     17  C         17.4170  -22.7660   -5.5250 C.2     1  UNL1        0.0240
     18  C         20.7500  -22.9270   -9.5210 C.2     1  UNL1       -0.0390
     19  C         20.7740  -22.4530   -8.2000 C.2     1  UNL1        0.0090
     20  C         21.9150  -21.8360   -7.6780 C.2     1  UNL1        0.0020
     21  C         23.0500  -21.6830   -8.4710 C.2     1  UNL1        0.0170
     22  C         23.0280  -22.1180   -9.7980 C.2     1  UNL1        0.0320
     23  C         21.8850  -22.7390  -10.3220 C.2     1  UNL1        0.0260
     24  C         24.2490  -21.9780  -10.6250 C.2     1  UNL1        0.2510
     25  O         24.9720  -20.9980  -10.5020 O.2     1  UNL1       -0.2680
     26  N         24.4780  -23.0110  -11.5140 N.am    1  UNL1       -0.3540
     27  H         23.6690  -23.5430  -11.8130 H       1  UNL1        0.1620
     28  C         25.5550  -22.9040  -12.4850 C.3     1  UNL1        0.1550
     29  C         24.9970  -22.7000  -13.8990 C.3     1  UNL1        0.1390
     30  C         25.8230  -21.7310  -14.7310 C.3     1  UNL1        0.0350
     31  C         25.2260  -20.3920  -14.3700 C.3     1  UNL1        0.0290
     32  C         23.7590  -20.7310  -14.1890 C.3     1  UNL1        0.1680
     33  O         23.6830  -22.1080  -13.7830 O.3     1  UNL1       -0.3840
@<TRIPOS>BOND
     1    30    31    1
     2    30    29    1
     3    31    32    1
     4    32    33    1
     5    29    33    1
     6    29    28    1
     7    28    26    1
     8     5     3    1
     9    27    26    1
    10    26    24   am
    11     3     4    2
    12     3     2    1
    13     4     6    1
    14    24    25    2
    15    24    22    1
    16    23    22    1
    17    23    18    2
    18     1     2    1
    19     1    18    1
    20     2     7    1
    21    22    21    2
    22    18    19    1
    23     6     7    1
    24     7     8    2
    25    21    20    1
    26    19    20    2
    27     8     9    1
    28    10     9    2
    29     9    11    1
    30    11    17    2
    31    11    12    1
    32    17    15    1
    33    12    13    2
    34    15    16    1
    35    15    14    2
    36    13    14    1
