@<TRIPOS>MOLECULE
2813_out_ligand_01.pdbqt
 34 37 0 0 0
SMALL
GASTEIGER

@<TRIPOS>ATOM
      1  N         21.4270  -23.4430   -8.5010 N.3     1  UNL1        0.0960
      2  H         21.4100  -23.9350   -9.3920 H       1  UNL1        0.3170
      3  C         20.0660  -23.0370   -8.1190 C.3     1  UNL1        0.2560
      4  C         20.0050  -22.1140   -6.8830 C.3     1  UNL1        0.0600
      5  C         18.5880  -21.7010   -6.4780 C.3     1  UNL1        0.1280
      6  N         17.6380  -22.8020   -6.5910 N.am    1  UNL1       -0.3480
      7  C         17.1870  -23.5680   -5.5250 C.2     1  UNL1        0.2160
      8  C         17.0760  -23.1140   -7.9080 C.3     1  UNL1        0.1650
      9  C         17.7930  -23.3050   -4.1690 C.3     1  UNL1        0.1170
     10  O         16.3210  -24.4340   -5.6570 O.2     1  UNL1       -0.2740
     11  C         17.7800  -22.5220   -9.1200 C.2     1  UNL1       -0.0290
     12  C         16.9750  -22.0330  -10.1660 C.2     1  UNL1        0.0510
     13  C         19.1960  -22.5040   -9.2610 C.2     1  UNL1       -0.0170
     14  C         17.5540  -21.5150  -11.3160 C.2     1  UNL1        0.1170
     15  C         18.9300  -21.4780  -11.4630 C.2     1  UNL1        0.0430
     16  F         16.7710  -21.0500  -12.2980 F       1  UNL1       -0.2060
     17  C         19.7460  -21.9700  -10.4440 C.2     1  UNL1        0.0130
     18  C         22.4600  -22.4180   -8.4780 C.3     1  UNL1        0.3090
     19  C         23.1490  -22.3250   -9.8210 C.2     1  UNL1       -0.0300
     20  C         22.8490  -23.2280  -10.8470 C.2     1  UNL1        0.0110
     21  C         23.5010  -23.1390  -12.0820 C.2     1  UNL1        0.0300
     22  C         24.4630  -22.1480  -12.3160 C.2     1  UNL1        0.0350
     23  C         24.7680  -21.2540  -11.2900 C.2     1  UNL1        0.0300
     24  C         24.1180  -21.3430  -10.0550 C.2     1  UNL1        0.0110
     25  N         25.0770  -22.1330  -13.5870 N.am    1  UNL1       -0.3230
     26  C         24.5230  -21.6940  -14.7770 C.2     1  UNL1        0.2570
     27  O         23.3720  -21.3180  -14.9610 O.2     1  UNL1       -0.2670
     28  H         25.9920  -22.5610  -13.6280 H       1  UNL1        0.1690
     29  C         25.4300  -21.7380  -15.9480 C.2     1  UNL1        0.0490
     30  C         25.6450  -20.5860  -16.7060 C.2     1  UNL1        0.0200
     31  C         26.5030  -20.6390  -17.8030 C.2     1  UNL1        0.0200
     32  C         27.1200  -21.8450  -18.0980 C.2     1  UNL1        0.1160
     33  N         26.9470  -22.9740  -17.3750 N.2     1  UNL1       -0.2720
     34  C         26.1170  -22.8910  -16.3060 C.2     1  UNL1        0.1330
@<TRIPOS>BOND
     1    32    31    2
     2    32    33    1
     3    31    30    1
     4    33    34    2
     5    30    29    2
     6    34    29    1
     7    29    26    1
     8    27    26    2
     9    26    25   am
    10    28    25    1
    11    25    22    1
    12    22    21    2
    13    22    23    1
    14    16    14    1
    15    21    20    1
    16    15    14    2
    17    15    17    1
    18    14    12    1
    19    23    24    2
    20    20    19    2
    21    17    13    2
    22    12    11    2
    23    24    19    1
    24    19    18    1
    25     2     1    1
    26    13    11    1
    27    13     3    1
    28    11     8    1
    29     1    18    1
    30     1     3    1
    31     3     4    1
    32     8     6    1
    33     4     5    1
    34     6     5    1
    35     6     7   am
    36    10     7    2
    37     7     9    1
