@<TRIPOS>MOLECULE
28141_out_ligand_01.pdbqt
 28 30 0 0 0
SMALL
GASTEIGER

@<TRIPOS>ATOM
      1  C         19.1210  -23.1940   -7.2310 C.2     1  UNL1       -0.0050
      2  C         20.0640  -22.1630   -7.0910 C.2     1  UNL1        0.0150
      3  C         21.2870  -22.2110   -7.7670 C.2     1  UNL1        0.0180
      4  C         21.5960  -23.2960   -8.5950 C.2     1  UNL1        0.0320
      5  C         20.6830  -24.3510   -8.7130 C.2     1  UNL1        0.0180
      6  C         19.4580  -24.2950   -8.0390 C.2     1  UNL1        0.0150
      7  C         17.8260  -23.1530   -6.5260 C.2     1  UNL1        0.0930
      8  N         17.8410  -23.8170   -5.3380 N.2     1  UNL1       -0.2580
      9  C         16.7120  -23.8060   -4.6010 C.2     1  UNL1        0.1170
     10  C         15.5520  -23.1690   -4.9960 C.2     1  UNL1        0.0220
     11  C         15.5400  -22.5100   -6.2230 C.2     1  UNL1        0.0330
     12  C         16.6820  -22.4930   -7.0260 C.2     1  UNL1        0.0640
     13  N         16.7140  -21.8750   -8.3040 N.am    1  UNL1       -0.3250
     14  C         16.4490  -22.4540   -9.5320 C.2     1  UNL1        0.2180
     15  C         16.6070  -21.4740  -10.6690 C.3     1  UNL1        0.1170
     16  O         16.1400  -23.6190   -9.7460 O.2     1  UNL1       -0.2740
     17  H         16.9910  -20.9020   -8.3170 H       1  UNL1        0.1690
     18  C         22.9150  -23.3050   -9.2930 C.2     1  UNL1        0.2560
     19  O         23.8040  -24.0140   -8.8370 O.2     1  UNL1       -0.2670
     20  N         23.0080  -22.4560  -10.3810 N.am    1  UNL1       -0.3230
     21  H         22.2280  -21.8370  -10.5520 H       1  UNL1        0.1690
     22  C         24.1110  -22.2870  -11.2460 C.2     1  UNL1        0.0350
     23  C         24.2600  -23.2210  -12.2790 C.2     1  UNL1        0.0290
     24  C         25.3220  -23.1250  -13.1800 C.2     1  UNL1        0.0030
     25  C         26.2530  -22.0960  -13.0530 C.2     1  UNL1        0.0070
     26  C         26.1340  -21.1650  -12.0160 C.2     1  UNL1       -0.0600
     27  C         27.1140  -20.0360  -11.8900 C.3     1  UNL1        0.0480
     28  C         25.0520  -21.2620  -11.1250 C.2     1  UNL1        0.0360
@<TRIPOS>BOND
     1    24    25    2
     2    24    23    1
     3    25    26    1
     4    23    22    2
     5    26    27    1
     6    26    28    2
     7    22    28    1
     8    22    20    1
     9    15    14    1
    10    21    20    1
    11    20    18   am
    12    16    14    2
    13    14    13   am
    14    18    19    2
    15    18     4    1
    16     5     4    2
    17     5     6    1
    18     4     3    1
    19    17    13    1
    20    13    12    1
    21     6     1    2
    22     3     2    2
    23     1     2    1
    24     1     7    1
    25    12     7    2
    26    12    11    1
    27     7     8    1
    28    11    10    2
    29     8     9    2
    30    10     9    1
