@<TRIPOS>MOLECULE
28140_out_ligand_01.pdbqt
 32 35 0 0 0
SMALL
GASTEIGER

@<TRIPOS>ATOM
      1  N         22.4690  -22.2940  -10.4870 N.ar    1  UNL1       -0.1590
      2  C         23.7830  -22.0560  -11.0030 C.ar    1  UNL1        0.1400
      3  N         24.9290  -22.1910  -10.3180 N.2     1  UNL1       -0.2460
      4  C         26.0680  -21.9570  -11.0180 C.2     1  UNL1        0.1180
      5  C         26.1070  -21.5980  -12.3680 C.2     1  UNL1        0.0200
      6  C         24.9080  -21.4720  -13.0620 C.2     1  UNL1        0.0220
      7  C         23.7540  -21.7120  -12.3460 C.ar    1  UNL1        0.0750
      8  C         22.3600  -21.7220  -12.7600 C.ar    1  UNL1        0.2760
      9  O         22.0110  -21.4540  -13.8960 O.2     1  UNL1       -0.2660
     10  N         21.6150  -22.0620  -11.6240 N.ar    1  UNL1       -0.2330
     11  C         22.4290  -23.6300   -9.8390 C.3     1  UNL1        0.2250
     12  C         21.2810  -23.8310   -8.8380 C.2     1  UNL1        0.2370
     13  N         20.9140  -22.6620   -8.1900 N.am    1  UNL1       -0.3260
     14  H         21.4130  -21.8250   -8.4700 H       1  UNL1        0.1690
     15  O         20.7970  -24.9430   -8.6400 O.2     1  UNL1       -0.2720
     16  C         19.8880  -22.4780   -7.2430 C.2     1  UNL1        0.0340
     17  C         18.8550  -23.4240   -7.2360 C.2     1  UNL1        0.0300
     18  C         17.7990  -23.3280   -6.3220 C.2     1  UNL1        0.0190
     19  C         17.7680  -22.2780   -5.3990 C.2     1  UNL1        0.0320
     20  C         18.7880  -21.3220   -5.4170 C.2     1  UNL1        0.0190
     21  C         19.8450  -21.4240   -6.3290 C.2     1  UNL1        0.0300
     22  C         16.6700  -22.1270   -4.4090 C.2     1  UNL1        0.2490
     23  N         17.0090  -21.7030   -3.1530 N.am    1  UNL1       -0.3660
     24  H         17.8850  -21.2370   -2.9670 H       1  UNL1        0.1590
     25  H         16.2300  -21.4780   -2.5470 H       1  UNL1        0.1590
     26  O         15.5010  -22.3360   -4.7040 O.2     1  UNL1       -0.2680
     27  C         20.2190  -21.8710  -11.4460 C.2     1  UNL1        0.0550
     28  C         19.3880  -22.9350  -11.0680 C.2     1  UNL1        0.0310
     29  C         18.0160  -22.7420  -10.8670 C.2     1  UNL1        0.0020
     30  C         17.4540  -21.4830  -11.0450 C.2     1  UNL1        0.0000
     31  C         18.2590  -20.4170  -11.4330 C.2     1  UNL1        0.0020
     32  C         19.6290  -20.6120  -11.6330 C.2     1  UNL1        0.0310
@<TRIPOS>BOND
     1     9     8    2
     2     6     5    2
     3     6     7    1
     4     8     7   ar
     5     8    10   ar
     6     5     4    1
     7     7     2   ar
     8    32    27    2
     9    32    31    1
    10    10    27    1
    11    10     1   ar
    12    27    28    1
    13    31    30    2
    14    28    29    2
    15    30    29    1
    16     4     3    2
    17     2     1   ar
    18     2     3    1
    19     1    11    1
    20    11    12    1
    21    12    15    2
    22    12    13   am
    23    14    13    1
    24    13    16    1
    25    16    17    2
    26    16    21    1
    27    17    18    1
    28    21    20    2
    29    18    19    2
    30    20    19    1
    31    19    22    1
    32    26    22    2
    33    22    23   am
    34    23    24    1
    35    23    25    1
