@<TRIPOS>MOLECULE
28163_out_ligand_01.pdbqt
 36 40 0 0 0
SMALL
GASTEIGER

@<TRIPOS>ATOM
      1  N         23.6820  -22.6960  -10.4700 N.3     1  UNL1        0.1040
      2  C         22.7850  -22.9570  -11.6200 C.3     1  UNL1        0.3590
      3  C         21.5260  -22.1340  -11.6810 C.2     1  UNL1        0.1740
      4  O         21.5690  -20.9360  -12.3460 O.2     1  UNL1       -0.3030
      5  C         20.3070  -20.4420  -12.2380 C.2     1  UNL1        0.1810
      6  C         19.5450  -21.3530  -11.5450 C.2     1  UNL1        0.1490
      7  N         20.3350  -22.4390  -11.1920 N.2     1  UNL1       -0.2190
      8  C         18.1310  -21.2350  -11.2230 C.2     1  UNL1        0.2720
      9  O         17.3760  -20.4460  -11.7790 O.2     1  UNL1       -0.2660
     10  N         17.7320  -22.1160  -10.2440 N.am    1  UNL1       -0.3510
     11  H         18.4170  -22.8150   -9.9690 H       1  UNL1        0.1630
     12  C         16.3410  -22.3050   -9.9370 C.3     1  UNL1        0.1630
     13  C         16.1550  -22.8230   -8.5440 C.2     1  UNL1       -0.0230
     14  C         15.8900  -24.1730   -8.2940 C.2     1  UNL1        0.0120
     15  C         15.7400  -24.6130   -6.9830 C.2     1  UNL1        0.0200
     16  C         15.8700  -23.6890   -5.9600 C.2     1  UNL1        0.1160
     17  N         16.1350  -22.3810   -6.1620 N.2     1  UNL1       -0.2730
     18  C         16.2740  -21.9790   -7.4460 C.2     1  UNL1        0.1240
     19  C         25.0890  -22.7330  -10.9160 C.3     1  UNL1        0.3120
     20  C         25.5120  -21.5310  -11.7400 C.2     1  UNL1       -0.0270
     21  C         26.2180  -20.4710  -11.1190 C.2     1  UNL1        0.0120
     22  C         26.6630  -19.3690  -11.8550 C.2     1  UNL1        0.0400
     23  C         26.4050  -19.3560  -13.2080 C.2     1  UNL1        0.1050
     24  C         25.7360  -20.3850  -13.8280 C.2     1  UNL1        0.1050
     25  O         26.7690  -18.3750  -14.0760 O.2     1  UNL1       -0.3230
     26  C         25.2860  -21.4840  -13.1280 C.2     1  UNL1        0.0480
     27  O         25.5990  -20.1830  -15.1640 O.2     1  UNL1       -0.3230
     28  C         26.2720  -18.9170  -15.3170 C.3     1  UNL1        0.3520
     29  C         23.4100  -23.6550   -9.3740 C.3     1  UNL1        0.3150
     30  C         22.0480  -23.5080   -8.7360 C.2     1  UNL1        0.0090
     31  C         21.0750  -24.5130   -8.8550 C.2     1  UNL1        0.0120
     32  C         19.8330  -24.3760   -8.2290 C.2     1  UNL1        0.0010
     33  C         19.5440  -23.2310   -7.4850 C.2     1  UNL1        0.0030
     34  C         20.4950  -22.2180   -7.3740 C.2     1  UNL1        0.0430
     35  C         21.7320  -22.3620   -7.9970 C.2     1  UNL1        0.1240
     36  F         22.6220  -21.3670   -7.8870 F       1  UNL1       -0.2050
@<TRIPOS>BOND
     1    28    27    1
     2    28    25    1
     3    27    24    1
     4    25    23    1
     5    24    23    2
     6    24    26    1
     7    23    22    1
     8    26    20    2
     9     4     5    1
    10     4     3    1
    11     5     6    2
    12    22    21    2
    13     9     8    2
    14    20    21    1
    15    20    19    1
    16     3     2    1
    17     3     7    2
    18     2     1    1
    19     6     8    1
    20     6     7    1
    21     8    10   am
    22    19     1    1
    23     1    29    1
    24    10    11    1
    25    10    12    1
    26    12    13    1
    27    29    30    1
    28    31    30    2
    29    31    32    1
    30    30    35    1
    31    13    14    2
    32    13    18    1
    33    14    15    1
    34    32    33    2
    35    35    36    1
    36    35    34    2
    37    33    34    1
    38    18    17    2
    39    15    16    2
    40    17    16    1
