@<TRIPOS>MOLECULE
28168_out_ligand_01.pdbqt
 27 31 0 0 0
SMALL
GASTEIGER

@<TRIPOS>ATOM
      1  C         17.5690  -22.7450   -9.5660 C.2     1  UNL1        0.1730
      2  N         16.9980  -22.0140  -10.6080 N.2     1  UNL1       -0.2340
      3  C         18.0100  -21.6700  -11.3750 C.2     1  UNL1        0.2170
      4  N         19.1980  -22.1390  -10.8880 N.pl3   1  UNL1       -0.2850
      5  C         18.9410  -22.8330   -9.7310 C.2     1  UNL1        0.1920
      6  N         19.9450  -23.4150   -9.0290 N.2     1  UNL1       -0.1280
      7  N         21.1440  -23.3450   -9.4000 N.2     1  UNL1       -0.1450
      8  C         21.4790  -22.6420  -10.5900 C.2     1  UNL1        0.1170
      9  C         22.8320  -22.5670  -11.0040 C.2     1  UNL1        0.0070
     10  C         23.8860  -23.1680  -10.2800 C.2     1  UNL1        0.0150
     11  C         25.2100  -23.0790  -10.7110 C.2     1  UNL1        0.0010
     12  C         25.5140  -22.3860  -11.8760 C.2     1  UNL1        0.0010
     13  C         24.4950  -21.7820  -12.6110 C.2     1  UNL1        0.0120
     14  C         23.1570  -21.8620  -12.1920 C.2     1  UNL1       -0.0240
     15  C         22.1400  -21.2490  -12.9430 C.2     1  UNL1        0.0140
     16  C         20.8070  -21.3180  -12.5420 C.2     1  UNL1        0.0330
     17  C         20.5000  -22.0120  -11.3740 C.2     1  UNL1        0.0730
     18  C         16.7730  -23.3210   -8.4840 C.2     1  UNL1        0.2740
     19  O         15.6840  -23.8590   -8.6450 O.2     1  UNL1       -0.2660
     20  N         17.3830  -23.1760   -7.2550 N.am    1  UNL1       -0.3510
     21  H         18.2190  -22.5970   -7.2560 H       1  UNL1        0.1630
     22  C         16.7170  -23.4980   -6.0070 C.3     1  UNL1        0.0840
     23  C         15.8420  -22.3340   -5.5320 C.3     1  UNL1        0.0250
     24  C         15.0550  -22.6920   -4.2700 C.3     1  UNL1        0.0020
     25  C         15.7450  -23.7370   -3.3920 C.3     1  UNL1        0.0000
     26  C         17.2610  -23.6560   -3.5020 C.3     1  UNL1        0.0020
     27  C         17.7460  -23.8910   -4.9350 C.3     1  UNL1        0.0250
@<TRIPOS>BOND
     1    15    16    2
     2    15    14    1
     3    13    14    1
     4    13    12    2
     5    16    17    1
     6    14     9    2
     7    12    11    1
     8     3     4    1
     9     3     2    2
    10    17     4    1
    11    17     8    2
    12     9     8    1
    13     9    10    1
    14     4     5    1
    15    11    10    2
    16     2     1    1
    17     8     7    1
    18     5     1    2
    19     5     6    1
    20     1    18    1
    21     7     6    2
    22    19    18    2
    23    18    20   am
    24    21    20    1
    25    20    22    1
    26    22    23    1
    27    22    27    1
    28    23    24    1
    29    27    26    1
    30    24    25    1
    31    26    25    1
