@<TRIPOS>MOLECULE
28161_out_ligand_01.pdbqt
 34 37 0 0 0
SMALL
GASTEIGER

@<TRIPOS>ATOM
      1  N         21.9160  -22.8880  -10.7880 N.pl3   1  UNL1       -0.1810
      2  H         21.6320  -23.8700  -10.8200 H       1  UNL1        0.1460
      3  C         22.7530  -22.5060  -11.8780 C.2     1  UNL1        0.0220
      4  C         22.3000  -21.5640  -12.8020 C.2     1  UNL1        0.0250
      5  C         23.1000  -21.2290  -13.8980 C.2     1  UNL1        0.0190
      6  C         24.3510  -21.8360  -14.0750 C.2     1  UNL1        0.0320
      7  C         24.7850  -22.8030  -13.1570 C.2     1  UNL1        0.0190
      8  C         23.9840  -23.1370  -12.0600 C.2     1  UNL1        0.0250
      9  C         25.1610  -21.4520  -15.2670 C.2     1  UNL1        0.2510
     10  O         26.0340  -22.2020  -15.6870 O.2     1  UNL1       -0.2680
     11  N         24.8450  -20.2510  -15.8680 N.am    1  UNL1       -0.3540
     12  H         23.9330  -19.8490  -15.6890 H       1  UNL1        0.1620
     13  C         25.4670  -19.8680  -17.1250 C.3     1  UNL1        0.1550
     14  C         26.4400  -18.7010  -16.9400 C.3     1  UNL1        0.1390
     15  C         26.4320  -18.1350  -15.5300 C.3     1  UNL1        0.0350
     16  C         26.9040  -16.7230  -15.7680 C.3     1  UNL1        0.0290
     17  C         26.2140  -16.3780  -17.0700 C.3     1  UNL1        0.1680
     18  O         26.0600  -17.6040  -17.8040 O.3     1  UNL1       -0.3840
     19  S         22.5430  -22.6050   -9.2300 S.O2    1  UNL1        0.2450
     20  O         23.0600  -21.2610   -9.1150 O.2     1  UNL1       -0.2060
     21  O         23.3530  -23.7640   -8.9230 O.2     1  UNL1       -0.2060
     22  C         21.0640  -22.7060   -8.2490 C.2     1  UNL1        0.0740
     23  C         20.1390  -23.7210   -8.4980 C.2     1  UNL1        0.0250
     24  C         18.9640  -23.7840   -7.7420 C.2     1  UNL1        0.0140
     25  C         18.6920  -22.8340   -6.7410 C.2     1  UNL1       -0.0260
     26  C         19.6340  -21.8110   -6.5240 C.2     1  UNL1        0.0140
     27  C         20.8130  -21.7410   -7.2720 C.2     1  UNL1        0.0250
     28  C         17.4540  -22.9010   -5.9450 C.2     1  UNL1       -0.0230
     29  C         17.4320  -23.5170   -4.6780 C.2     1  UNL1        0.0120
     30  C         16.2540  -23.5890   -3.9250 C.2     1  UNL1        0.0040
     31  C         15.0750  -23.0440   -4.4290 C.2     1  UNL1        0.0420
     32  C         15.0860  -22.4310   -5.6760 C.2     1  UNL1        0.1170
     33  F         13.9540  -21.9050   -6.1630 F       1  UNL1       -0.2060
     34  C         16.2530  -22.3560   -6.4310 C.2     1  UNL1        0.0540
@<TRIPOS>BOND
     1    18    17    1
     2    18    14    1
     3    13    14    1
     4    13    11    1
     5    17    16    1
     6    14    15    1
     7    11    12    1
     8    11     9   am
     9    16    15    1
    10    10     9    2
    11     9     6    1
    12     6     5    2
    13     6     7    1
    14     5     4    1
    15     7     8    2
    16     4     3    2
    17     8     3    1
    18     3     1    1
    19     2     1    1
    20     1    19    1
    21    19    20    2
    22    19    21    2
    23    19    22    1
    24    23    22    2
    25    23    24    1
    26    22    27    1
    27    24    25    2
    28    27    26    2
    29    25    26    1
    30    25    28    1
    31    34    28    2
    32    34    32    1
    33    33    32    1
    34    28    29    1
    35    32    31    2
    36    29    30    2
    37    31    30    1
