@<TRIPOS>MOLECULE
28172_out_ligand_01.pdbqt
 34 37 0 0 0
SMALL
GASTEIGER

@<TRIPOS>ATOM
      1  C         23.5540  -22.9050   -9.3100 C.2     1  UNL1       -0.0400
      2  C         23.1610  -21.7960   -8.5320 C.2     1  UNL1        0.0110
      3  C         21.9120  -21.7610   -7.9030 C.2     1  UNL1        0.0310
      4  C         21.0570  -22.8370   -8.0680 C.2     1  UNL1        0.0430
      5  C         21.4360  -23.9360   -8.8400 C.2     1  UNL1       -0.0290
      6  C         22.6730  -23.9850   -9.4670 C.2     1  UNL1        0.0180
      7  C         20.3790  -24.9900   -8.8440 C.2     1  UNL1        0.0610
      8  C         19.2360  -24.2980   -8.0890 C.2     1  UNL1        0.1370
      9  N         19.7580  -23.0240   -7.5590 N.am    1  UNL1       -0.3130
     10  C         19.1050  -22.1620   -6.6950 C.2     1  UNL1        0.2580
     11  O         19.5700  -21.1450   -6.1850 O.2     1  UNL1       -0.2670
     12  C         24.8890  -22.9120  -10.0130 C.3     1  UNL1        0.1610
     13  N         24.7690  -22.3490  -11.3390 N.am    1  UNL1       -0.3530
     14  C         25.4020  -21.1730  -11.6790 C.2     1  UNL1        0.2520
     15  O         26.0200  -20.4760  -10.8820 O.2     1  UNL1       -0.2680
     16  H         24.5010  -22.9870  -12.0750 H       1  UNL1        0.1630
     17  C         25.3440  -20.7840  -13.1150 C.2     1  UNL1        0.0340
     18  C         25.9590  -19.6250  -13.5990 C.2     1  UNL1        0.0170
     19  C         25.8690  -19.3090  -14.9540 C.2     1  UNL1        0.0030
     20  C         25.1730  -20.1490  -15.8300 C.2     1  UNL1        0.0290
     21  C         24.5700  -21.3200  -15.3650 C.2     1  UNL1        0.0350
     22  C         24.6660  -21.6330  -14.0030 C.2     1  UNL1        0.0460
     23  N         23.8660  -22.2260  -16.1850 N.am    1  UNL1       -0.3270
     24  C         24.3940  -23.1110  -17.1080 C.2     1  UNL1        0.2180
     25  C         23.3360  -23.9480  -17.7850 C.3     1  UNL1        0.1170
     26  O         25.5750  -23.2390  -17.4110 O.2     1  UNL1       -0.2740
     27  H         22.8590  -22.2170  -16.0860 H       1  UNL1        0.1690
     28  C         17.7180  -22.5100   -6.3210 C.2     1  UNL1        0.0320
     29  C         16.6740  -22.1240   -7.1700 C.2     1  UNL1        0.0200
     30  C         15.3600  -22.4580   -6.8390 C.2     1  UNL1        0.0430
     31  C         15.1090  -23.1800   -5.6750 C.2     1  UNL1        0.1160
     32  F         13.8470  -23.4980   -5.3600 F       1  UNL1       -0.2060
     33  C         16.1440  -23.5830   -4.8360 C.2     1  UNL1        0.0430
     34  C         17.4610  -23.2530   -5.1620 C.2     1  UNL1        0.0200
@<TRIPOS>BOND
     1    25    24    1
     2    26    24    2
     3    24    23   am
     4    23    27    1
     5    23    21    1
     6    20    21    2
     7    20    19    1
     8    21    22    1
     9    19    18    2
    10    22    17    2
    11    18    17    1
    12    17    14    1
    13    16    13    1
    14    14    13   am
    15    14    15    2
    16    13    12    1
    17    12     1    1
    18     6     1    2
    19     6     5    1
    20     1     2    1
    21     7     5    1
    22     7     8    2
    23     5     4    2
    24     2     3    2
    25     8     9    1
    26     4     3    1
    27     4     9    1
    28     9    10   am
    29    29    30    1
    30    29    28    2
    31    30    31    2
    32    10    28    1
    33    10    11    2
    34    28    34    1
    35    31    32    1
    36    31    33    1
    37    34    33    2
