@<TRIPOS>MOLECULE
28182_out_ligand_01.pdbqt
 33 36 0 0 0
SMALL
GASTEIGER

@<TRIPOS>ATOM
      1  C         21.6580  -23.0610   -9.4250 C.3     1  UNL1        0.1770
      2  N         22.8960  -23.4180   -9.1750 N.2     1  UNL1       -0.2040
      3  C         23.7110  -23.1860  -10.2310 C.ar    1  UNL1        0.1620
      4  N         25.0400  -23.4880  -10.2810 N.ar    1  UNL1       -0.2600
      5  N         25.6170  -23.1550  -11.4520 N.ar    1  UNL1       -0.1770
      6  C         24.6140  -22.6310  -12.1760 C.ar    1  UNL1        0.0680
      7  C         24.8590  -22.1390  -13.5550 C.3     1  UNL1        0.0730
      8  C         23.3990  -22.6360  -11.4540 C.ar    1  UNL1        0.0830
      9  C         22.0460  -22.2170  -11.7300 C.2     1  UNL1        0.1450
     10  N         21.8120  -21.6970  -12.8870 N.pl3   1  UNL1       -0.2820
     11  N         21.2050  -22.4640  -10.6320 N.pl3   1  UNL1       -0.2740
     12  H         25.6080  -23.9220   -9.5630 H       1  UNL1        0.1910
     13  H         20.8280  -21.4230  -12.9650 H       1  UNL1        0.1880
     14  S         20.5220  -23.3870   -8.0990 S.3     1  UNL1       -0.0820
     15  C         20.6320  -21.8310   -7.1650 C.3     1  UNL1        0.1850
     16  C         19.4350  -21.6350   -6.2420 C.2     1  UNL1        0.2310
     17  N         18.4810  -22.6290   -6.3540 N.am    1  UNL1       -0.3270
     18  H         18.7230  -23.4000   -6.9740 H       1  UNL1        0.1690
     19  O         19.3650  -20.6420   -5.5220 O.2     1  UNL1       -0.2720
     20  C         17.2530  -22.7430   -5.6750 C.2     1  UNL1        0.0350
     21  C         17.2430  -23.5100   -4.5030 C.2     1  UNL1        0.0290
     22  C         16.0670  -23.6720   -3.7680 C.2     1  UNL1        0.0030
     23  C         14.8860  -23.0730   -4.2010 C.2     1  UNL1        0.0070
     24  C         14.8720  -22.3160   -5.3770 C.2     1  UNL1       -0.0600
     25  C         13.6120  -21.6390   -5.8310 C.3     1  UNL1        0.0480
     26  C         16.0640  -22.1460   -6.1030 C.2     1  UNL1        0.0360
     27  C         19.8330  -22.0930  -10.7810 C.2     1  UNL1        0.0450
     28  C         19.4900  -20.9120  -11.4610 C.2     1  UNL1        0.0300
     29  C         18.1530  -20.5310  -11.5920 C.2     1  UNL1        0.0040
     30  C         17.1470  -21.3230  -11.0420 C.2     1  UNL1        0.0240
     31  C         17.4800  -22.4930  -10.3620 C.2     1  UNL1        0.0360
     32 CL         16.2370  -23.4650   -9.6770 Cl      1  UNL1       -0.0840
     33  C         18.8130  -22.8810  -10.2240 C.2     1  UNL1        0.0540
@<TRIPOS>BOND
     1     7     6    1
     2    13    10    1
     3    10     9    1
     4     6     8   ar
     5     6     5   ar
     6     9     8    2
     7     9    11    1
     8    29    28    1
     9    29    30    2
    10    28    27    2
    11     8     3   ar
    12     5     4   ar
    13    30    31    1
    14    27    11    1
    15    27    33    1
    16    11     1    1
    17    31    33    2
    18    31    32    1
    19     4     3   ar
    20     4    12    1
    21     3     2    2
    22     1     2    1
    23     1    14    1
    24    14    15    1
    25    15    16    1
    26    18    17    1
    27    17    16   am
    28    17    20    1
    29    16    19    2
    30    26    20    2
    31    26    24    1
    32    25    24    1
    33    20    21    1
    34    24    23    2
    35    21    22    2
    36    23    22    1
