@<TRIPOS>MOLECULE
28186_out_ligand_01.pdbqt
 29 32 0 0 0
SMALL
GASTEIGER

@<TRIPOS>ATOM
      1  C         20.8320  -22.1350  -11.1450 C.2     1  UNL1        0.0350
      2  C         19.9810  -21.1730  -11.6870 C.2     1  UNL1        0.0300
      3  C         18.6270  -21.1410  -11.3330 C.2     1  UNL1        0.0090
      4  C         18.1040  -22.0690  -10.4250 C.2     1  UNL1       -0.0580
      5  C         18.9570  -23.0380   -9.8870 C.2     1  UNL1        0.0090
      6  C         20.3070  -23.0740  -10.2490 C.2     1  UNL1        0.0300
      7  C         16.6530  -22.0010  -10.0080 C.3     1  UNL1        0.0460
      8  C         16.1630  -23.2830   -9.3260 C.3     1  UNL1        0.0830
      9  C         16.1780  -23.1850   -7.8370 C.ar    1  UNL1        0.1050
     10  N         15.3110  -22.5370   -7.0860 N.ar    1  UNL1       -0.2330
     11  C         15.7340  -22.7190   -5.7920 C.ar    1  UNL1        0.0850
     12  C         15.1870  -22.2420   -4.5930 C.2     1  UNL1        0.0340
     13  C         16.8830  -23.4990   -5.7500 C.ar    1  UNL1        0.0620
     14  C         15.8240  -22.5660   -3.3880 C.2     1  UNL1        0.0020
     15  C         16.9820  -23.3490   -3.3780 C.2     1  UNL1        0.0020
     16  C         17.5410  -23.8350   -4.5650 C.2     1  UNL1        0.0320
     17  N         17.1400  -23.7920   -7.0640 N.ar    1  UNL1       -0.3430
     18  H         17.9260  -24.3240   -7.4100 H       1  UNL1        0.1670
     19  N         22.2050  -22.2380  -11.4560 N.am    1  UNL1       -0.3230
     20  C         23.2650  -21.7240  -10.7310 C.2     1  UNL1        0.2560
     21  O         23.2110  -21.1670   -9.6430 O.2     1  UNL1       -0.2670
     22  H         22.4310  -22.8130  -12.2560 H       1  UNL1        0.1690
     23  C         24.6040  -21.9320  -11.3490 C.2     1  UNL1        0.0350
     24  C         25.6540  -21.0190  -11.1610 C.2     1  UNL1        0.0170
     25  C         26.8980  -21.2520  -11.7530 C.2     1  UNL1        0.0040
     26  C         27.0970  -22.3960  -12.5240 C.2     1  UNL1        0.0420
     27  C         26.0560  -23.3050  -12.6910 C.2     1  UNL1        0.1170
     28  F         26.2560  -24.4050  -13.4270 F       1  UNL1       -0.2060
     29  C         24.8140  -23.0890  -12.1070 C.2     1  UNL1        0.0590
@<TRIPOS>BOND
     1    28    27    1
     2    27    26    2
     3    27    29    1
     4    26    25    1
     5    22    19    1
     6    29    23    2
     7    25    24    2
     8     2     3    1
     9     2     1    2
    10    19     1    1
    11    19    20   am
    12    23    24    1
    13    23    20    1
    14     3     4    2
    15     1     6    1
    16    20    21    2
    17     4     7    1
    18     4     5    1
    19     6     5    2
    20     7     8    1
    21     8     9    1
    22     9    10   ar
    23     9    17   ar
    24    18    17    1
    25    10    11   ar
    26    17    13   ar
    27    11    13   ar
    28    11    12    1
    29    13    16    1
    30    12    14    2
    31    16    15    2
    32    14    15    1
