@<TRIPOS>MOLECULE
28194_out_ligand_01.pdbqt
 35 39 0 0 0
SMALL
GASTEIGER

@<TRIPOS>ATOM
      1  C         18.9370  -22.1850  -10.6290 C.2     1  UNL1        0.0320
      2  C         19.9120  -22.9620  -10.0000 C.2     1  UNL1        0.0190
      3  C         21.2360  -22.9500  -10.4590 C.2     1  UNL1        0.0300
      4  C         21.6000  -22.1470  -11.5410 C.2     1  UNL1        0.0360
      5  C         20.6240  -21.3550  -12.1570 C.2     1  UNL1        0.0300
      6  C         19.3000  -21.3670  -11.7040 C.2     1  UNL1        0.0190
      7  N         22.9010  -22.0830  -12.0750 N.am    1  UNL1       -0.3090
      8  C         24.0620  -21.6520  -11.4620 C.2     1  UNL1        0.3270
      9  O         24.1110  -21.1260  -10.3490 O.2     1  UNL1       -0.2460
     10  N         25.1950  -21.7530  -12.2750 N.am    1  UNL1       -0.2960
     11  C         26.3550  -20.9300  -11.9510 C.3     1  UNL1        0.1540
     12  C         25.4480  -22.7230  -13.2960 C.2     1  UNL1        0.0600
     13  C         26.9690  -20.2940  -13.1930 C.3     1  UNL1        0.0820
     14  C         26.1680  -19.1180  -13.7550 C.3     1  UNL1        0.0230
     15  N         27.1210  -21.2090  -14.3470 N.pl3   1  UNL1       -0.2750
     16  C         26.7410  -18.9980  -15.1580 C.3     1  UNL1        0.0170
     17  C         26.8640  -20.4560  -15.5950 C.3     1  UNL1        0.0960
     18  C         26.4150  -22.4310  -14.2930 C.2     1  UNL1        0.0380
     19  C         26.6720  -23.4020  -15.2800 C.2     1  UNL1        0.0260
     20  C         26.0050  -24.6270  -15.2890 C.2     1  UNL1        0.0020
     21  C         25.0750  -24.9150  -14.2980 C.2     1  UNL1        0.0020
     22  C         24.8010  -23.9710  -13.3030 C.2     1  UNL1        0.0310
     23  H         22.9890  -22.2370  -13.0690 H       1  UNL1        0.1700
     24  C         17.5380  -22.2400  -10.1230 C.2     1  UNL1        0.2510
     25  O         16.7340  -21.3680  -10.4280 O.2     1  UNL1       -0.2680
     26  N         17.2470  -23.2960   -9.2820 N.am    1  UNL1       -0.3530
     27  H         18.0190  -23.8030   -8.8760 H       1  UNL1        0.1630
     28  C         15.9790  -23.3780   -8.5960 C.3     1  UNL1        0.1610
     29  C         16.1280  -23.0090   -7.1410 C.2     1  UNL1       -0.0400
     30  C         17.4050  -22.8850   -6.5670 C.2     1  UNL1        0.0120
     31  C         17.5410  -22.5350   -5.2210 C.2     1  UNL1        0.0430
     32  C         16.4040  -22.3150   -4.4500 C.2     1  UNL1        0.1160
     33  F         16.5370  -21.9910   -3.1560 F       1  UNL1       -0.2060
     34  C         15.1320  -22.4250   -4.9990 C.2     1  UNL1        0.0430
     35  C         14.9920  -22.7630   -6.3470 C.2     1  UNL1        0.0120
@<TRIPOS>BOND
     1    17    16    1
     2    17    15    1
     3    20    19    2
     4    20    21    1
     5    19    18    1
     6    16    14    1
     7    15    18    1
     8    15    13    1
     9    21    22    2
    10    18    12    2
    11    14    13    1
    12    22    12    1
    13    12    10    1
    14    13    11    1
    15    23     7    1
    16    10    11    1
    17    10     8   am
    18     5     6    1
    19     5     4    2
    20     7     4    1
    21     7     8   am
    22     6     1    2
    23     4     3    1
    24     8     9    2
    25     1    24    1
    26     1     2    1
    27     3     2    2
    28    25    24    2
    29    24    26   am
    30    26    27    1
    31    26    28    1
    32    28    29    1
    33    29    30    2
    34    29    35    1
    35    30    31    1
    36    35    34    2
    37    31    32    2
    38    34    32    1
    39    32    33    1
