@<TRIPOS>MOLECULE
28237_out_ligand_01.pdbqt
 34 37 0 0 0
SMALL
GASTEIGER

@<TRIPOS>ATOM
      1  C         22.1400  -22.1180  -11.4970 C.2     1  UNL1        0.0320
      2  C         21.0990  -21.3650  -12.0410 C.2     1  UNL1        0.0190
      3  C         19.7990  -21.4970  -11.5370 C.2     1  UNL1        0.0320
      4  C         19.4960  -22.3720  -10.4740 C.2     1  UNL1        0.0620
      5  C         20.5670  -23.0950   -9.9240 C.2     1  UNL1        0.0320
      6  C         21.8740  -22.9700  -10.4240 C.2     1  UNL1        0.0190
      7  N         18.1390  -22.4920   -9.9990 N.am    1  UNL1       -0.1950
      8  N         18.0020  -23.3680   -8.9270 N.2     1  UNL1       -0.1390
      9  C         16.8260  -23.5200   -8.4260 C.2     1  UNL1        0.1840
     10  C         15.5960  -22.8760   -8.8680 C.2     1  UNL1        0.0650
     11  C         15.7300  -22.0390   -9.8950 C.2     1  UNL1        0.0810
     12  C         17.0470  -21.7890  -10.5360 C.2     1  UNL1        0.2680
     13  O         17.0460  -20.9930  -11.4730 O.2     1  UNL1       -0.2660
     14  O         16.5390  -24.3340   -7.3840 O.2     1  UNL1       -0.3290
     15  C         17.6090  -24.6680   -6.4850 C.3     1  UNL1        0.2160
     16  C         17.7510  -23.6100   -5.4210 C.2     1  UNL1       -0.0340
     17  C         17.2380  -23.8210   -4.1350 C.2     1  UNL1        0.0090
     18  C         17.3680  -22.8380   -3.1530 C.2     1  UNL1        0.0010
     19  C         18.0080  -21.6350   -3.4490 C.2     1  UNL1        0.0070
     20  C         18.5190  -21.3990   -4.7290 C.2     1  UNL1       -0.0610
     21  C         19.2380  -20.1180   -5.0310 C.3     1  UNL1        0.0480
     22  C         18.3960  -22.3970   -5.7060 C.2     1  UNL1        0.0160
     23  C         23.5070  -21.9720  -12.0690 C.2     1  UNL1        0.2560
     24  N         23.5380  -21.6060  -13.4030 N.am    1  UNL1       -0.3230
     25  H         22.6530  -21.3700  -13.8330 H       1  UNL1        0.1690
     26  O         24.4680  -22.1420  -11.3290 O.2     1  UNL1       -0.2670
     27  C         24.6770  -21.4160  -14.2140 C.2     1  UNL1        0.0360
     28  C         25.8300  -20.7550  -13.7950 C.2     1  UNL1        0.0290
     29  C         26.9130  -20.6040  -14.6660 C.2     1  UNL1        0.0040
     30  C         26.8530  -21.1190  -15.9600 C.2     1  UNL1        0.0180
     31  C         25.7160  -21.8040  -16.3890 C.2     1  UNL1        0.0020
     32  C         24.6310  -21.9400  -15.5130 C.2     1  UNL1        0.0480
     33  S         25.5570  -22.4820  -18.0340 S.3     1  UNL1       -0.1340
     34  C         23.9410  -23.2960  -17.9290 C.3     1  UNL1        0.0950
@<TRIPOS>BOND
     1    33    34    1
     2    33    31    1
     3    31    30    2
     4    31    32    1
     5    30    29    1
     6    32    27    2
     7    29    28    2
     8    27    28    1
     9    27    24    1
    10    25    24    1
    11    24    23   am
    12    23     1    1
    13    23    26    2
    14     2     3    1
    15     2     1    2
    16     3     4    2
    17     1     6    1
    18    13    12    2
    19    12     7   am
    20    12    11    1
    21     4     7    1
    22     4     5    1
    23     6     5    2
    24     7     8    1
    25    11    10    2
    26     8     9    2
    27    10     9    1
    28     9    14    1
    29    14    15    1
    30    15    16    1
    31    22    16    2
    32    22    20    1
    33    16    17    1
    34    21    20    1
    35    20    19    2
    36    17    18    2
    37    19    18    1
