@<TRIPOS>MOLECULE
28233_out_ligand_01.pdbqt
 27 30 0 0 0
SMALL
GASTEIGER

@<TRIPOS>ATOM
      1  C         17.0010  -22.1430  -10.5740 C.ar    1  UNL1        0.1780
      2  N         17.0070  -20.9210  -11.0610 N.ar    1  UNL1       -0.1260
      3  N         18.3140  -20.6540  -11.4120 N.ar    1  UNL1       -0.1210
      4  C         19.0150  -21.7310  -11.1130 C.ar    1  UNL1        0.2020
      5  O         18.2380  -22.7250  -10.5690 O.2     1  UNL1       -0.2730
      6  C         15.8620  -22.9260  -10.0660 C.3     1  UNL1        0.1910
      7  C         16.0730  -23.2220   -8.5950 C.2     1  UNL1        0.2290
      8  O         15.8850  -24.3560   -8.1630 O.2     1  UNL1       -0.2730
      9  N         16.5270  -22.1360   -7.8620 N.am    1  UNL1       -0.3270
     10  H         16.5460  -21.2370   -8.3380 H       1  UNL1        0.1690
     11  C         16.8660  -22.1040   -6.4930 C.2     1  UNL1        0.0370
     12  C         18.1740  -21.7100   -6.1690 C.2     1  UNL1        0.0290
     13  C         18.5990  -21.6540   -4.8390 C.2     1  UNL1        0.0050
     14  C         17.7180  -21.9920   -3.8180 C.2     1  UNL1        0.0420
     15  C         16.4240  -22.3840   -4.1380 C.2     1  UNL1        0.1180
     16  F         15.5780  -22.7140   -3.1530 F       1  UNL1       -0.2060
     17  C         15.9900  -22.4430   -5.4610 C.2     1  UNL1        0.0710
     18  C         20.4380  -21.9990  -11.2730 C.2     1  UNL1        0.0200
     19  C         21.1310  -22.6950  -10.2760 C.2     1  UNL1        0.0180
     20  C         22.4990  -22.9630  -10.4110 C.2     1  UNL1        0.0330
     21  C         23.2170  -22.5520  -11.5230 C.2     1  UNL1        0.0660
     22  N         24.5280  -22.8340  -11.6060 N.2     1  UNL1       -0.2600
     23  C         22.5290  -21.8480  -12.5340 C.2     1  UNL1       -0.0060
     24  C         25.1990  -22.4170  -12.7030 C.2     1  UNL1        0.1170
     25  C         24.6150  -21.7220  -13.7440 C.2     1  UNL1        0.0200
     26  C         23.2590  -21.4330  -13.6560 C.2     1  UNL1        0.0150
     27  C         21.1520  -21.5770  -12.4020 C.2     1  UNL1        0.0290
@<TRIPOS>BOND
     1    25    26    2
     2    25    24    1
     3    26    23    1
     4    24    22    2
     5    23    27    1
     6    23    21    2
     7    27    18    2
     8    22    21    1
     9    21    20    1
    10     3     4   ar
    11     3     2   ar
    12    18     4    1
    13    18    19    1
    14     4     5   ar
    15     2     1   ar
    16     1     5   ar
    17     1     6    1
    18    20    19    2
    19     6     7    1
    20     7     8    2
    21     7     9   am
    22    10     9    1
    23     9    11    1
    24    11    12    2
    25    11    17    1
    26    12    13    1
    27    17    15    2
    28    13    14    2
    29    15    14    1
    30    15    16    1
