@<TRIPOS>MOLECULE
28261_out_ligand_01.pdbqt
 38 42 0 0 0
SMALL
GASTEIGER

@<TRIPOS>ATOM
      1  C         21.0030  -23.8650   -9.3170 C.ar    1  UNL1        0.1530
      2  N         22.2860  -24.1770   -9.3180 N.ar    1  UNL1       -0.1320
      3  N         22.9010  -23.4570  -10.3020 N.ar    1  UNL1       -0.1220
      4  C         21.9910  -22.7100  -10.8860 C.ar    1  UNL1        0.1960
      5  N         20.7460  -22.9280  -10.3130 N.ar    1  UNL1       -0.2740
      6  S         22.3460  -21.4650  -12.0440 S.3     1  UNL1       -0.0800
      7  C         23.9300  -22.0500  -12.7130 C.3     1  UNL1        0.1850
      8  C         25.1090  -21.1840  -12.2940 C.2     1  UNL1        0.2340
      9  O         25.5430  -21.1920  -11.1350 O.2     1  UNL1       -0.2720
     10  N         25.7030  -20.3680  -13.2440 N.am    1  UNL1       -0.3170
     11  C         26.7500  -19.4230  -12.8280 C.3     1  UNL1        0.1370
     12  C         25.5830  -20.2980  -14.6490 C.2     1  UNL1        0.0430
     13  C         27.0260  -18.4960  -14.0120 C.3     1  UNL1        0.0610
     14  C         26.3680  -19.2420  -15.1300 C.2     1  UNL1       -0.0300
     15  C         26.4510  -18.9390  -16.4850 C.2     1  UNL1        0.0090
     16  C         25.7450  -19.7330  -17.3810 C.2     1  UNL1        0.0010
     17  C         24.9710  -20.8050  -16.9150 C.2     1  UNL1        0.0020
     18  C         24.8860  -21.0910  -15.5440 C.2     1  UNL1        0.0300
     19  C         19.4930  -22.3310  -10.6360 C.2     1  UNL1        0.0440
     20  C         19.4470  -21.2310  -11.5030 C.2     1  UNL1        0.0300
     21  C         18.2180  -20.6370  -11.8090 C.2     1  UNL1        0.0030
     22  C         17.0360  -21.1280  -11.2460 C.2     1  UNL1        0.0160
     23  C         17.0640  -22.2320  -10.3770 C.2     1  UNL1        0.0500
     24  C         18.3020  -22.8340  -10.0810 C.2     1  UNL1        0.0460
     25  C         15.7900  -22.7160   -9.7190 C.3     1  UNL1        0.4170
     26  F         15.6180  -24.0660   -9.8110 F       1  UNL1       -0.1660
     27  F         14.6790  -22.1510  -10.2750 F       1  UNL1       -0.1660
     28  F         15.7310  -22.4210   -8.3930 F       1  UNL1       -0.1660
     29  C         19.9790  -24.4980   -8.4490 C.3     1  UNL1        0.2040
     30  N         19.7220  -23.6350   -7.3210 N.am    1  UNL1       -0.3490
     31  C         18.5110  -23.6940   -6.6550 C.2     1  UNL1        0.2580
     32  O         17.6550  -24.5100   -6.9990 O.2     1  UNL1       -0.2670
     33  H         20.3430  -22.8460   -7.1890 H       1  UNL1        0.1630
     34  C         18.3530  -22.7440   -5.5600 C.2     1  UNL1        0.0720
     35  C         18.8250  -21.4460   -5.4290 C.2     1  UNL1        0.0250
     36  C         18.4600  -20.8520   -4.1850 C.2     1  UNL1        0.0090
     37  C         17.7230  -21.7100   -3.4000 C.2     1  UNL1        0.0500
     38  S         17.4770  -23.2210   -4.1580 S.3     1  UNL1       -0.0970
@<TRIPOS>BOND
     1    16    17    2
     2    16    15    1
     3    17    18    1
     4    15    14    2
     5    18    12    2
     6    14    12    1
     7    14    13    1
     8    12    10    1
     9    13    11    1
    10    10    11    1
    11    10     8   am
    12     7     8    1
    13     7     6    1
    14     8     9    2
    15     6     4    1
    16    21    20    1
    17    21    22    2
    18    20    19    2
    19    22    23    1
    20     4     5   ar
    21     4     3   ar
    22    19     5    1
    23    19    24    1
    24    23    24    2
    25    23    25    1
    26     5     1   ar
    27     3     2   ar
    28    27    25    1
    29    26    25    1
    30    25    28    1
    31     2     1   ar
    32     1    29    1
    33    29    30    1
    34    30    33    1
    35    30    31   am
    36    32    31    2
    37    31    34    1
    38    34    35    2
    39    34    38    1
    40    35    36    1
    41    36    37    2
    42    38    37    1
