@<TRIPOS>MOLECULE
28267_out_ligand_01.pdbqt
 32 35 0 0 0
SMALL
GASTEIGER

@<TRIPOS>ATOM
      1  C         17.3030  -22.5230   -9.4790 C.2     1  UNL1        0.0770
      2  C         16.5730  -21.6480  -10.2840 C.2     1  UNL1        0.0250
      3  C         17.2110  -21.0170  -11.3490 C.2     1  UNL1        0.0040
      4  C         18.5650  -21.2630  -11.6050 C.2     1  UNL1        0.0290
      5  C         19.2940  -22.1500  -10.8090 C.2     1  UNL1        0.0360
      6  C         18.6490  -22.7970   -9.7520 C.2     1  UNL1        0.0540
      7  S         16.5070  -23.3260   -8.1070 S.O2    1  UNL1        0.2460
      8  O         15.7440  -22.3190   -7.4000 O.2     1  UNL1       -0.2060
      9  O         15.8720  -24.5270   -8.6070 O.2     1  UNL1       -0.2060
     10  N         17.8000  -23.7500   -7.0960 N.pl3   1  UNL1       -0.1790
     11  H         17.6910  -24.7170   -6.7830 H       1  UNL1        0.1460
     12  C         18.1150  -22.8560   -6.0200 C.2     1  UNL1        0.0560
     13  C         18.9410  -21.7540   -6.2500 C.2     1  UNL1        0.0270
     14  C         19.1970  -20.8540   -5.2180 C.2     1  UNL1        0.0020
     15  C         18.6240  -21.0560   -3.9620 C.2     1  UNL1        0.0030
     16  C         17.7940  -22.1570   -3.7300 C.2     1  UNL1        0.0380
     17  C         17.5270  -23.0600   -4.7600 C.2     1  UNL1        0.0900
     18  O         16.7260  -24.1700   -4.6520 O.2     1  UNL1       -0.3540
     19  C         15.3720  -23.9380   -4.2780 C.3     1  UNL1        0.2100
     20  N         20.6560  -22.4520  -11.0100 N.am    1  UNL1       -0.3230
     21  C         21.6740  -22.3950  -10.0760 C.2     1  UNL1        0.2560
     22  O         21.5560  -22.1560   -8.8790 O.2     1  UNL1       -0.2670
     23  H         20.8920  -22.8280  -11.9210 H       1  UNL1        0.1690
     24  C         23.0310  -22.7140  -10.6040 C.2     1  UNL1        0.0330
     25  C         24.1040  -23.0310   -9.7410 C.2     1  UNL1        0.0200
     26  C         25.3700  -23.3190  -10.2610 C.2     1  UNL1        0.0380
     27  C         25.5250  -23.3030  -11.6320 C.2     1  UNL1        0.0750
     28  C         24.4760  -23.0100  -12.4880 C.2     1  UNL1       -0.0220
     29  O         26.7060  -23.5620  -12.2770 O.2     1  UNL1       -0.3500
     30  C         23.2180  -22.7110  -11.9960 C.2     1  UNL1        0.0270
     31  C         24.9690  -23.0180  -13.8830 C.3     1  UNL1        0.0680
     32  C         26.3090  -23.7210  -13.6610 C.3     1  UNL1        0.1800
@<TRIPOS>BOND
     1    31    32    1
     2    31    28    1
     3    32    29    1
     4    28    30    1
     5    28    27    2
     6    29    27    1
     7    30    24    2
     8    23    20    1
     9    27    26    1
    10     4     3    2
    11     4     5    1
    12     3     2    1
    13    20     5    1
    14    20    21   am
    15     5     6    2
    16    24    21    1
    17    24    25    1
    18     2     1    2
    19    26    25    2
    20    21    22    2
    21     6     1    1
    22     1     7    1
    23     9     7    2
    24     7     8    2
    25     7    10    1
    26    10    11    1
    27    10    12    1
    28    13    12    2
    29    13    14    1
    30    12    17    1
    31    14    15    2
    32    17    18    1
    33    17    16    2
    34    18    19    1
    35    15    16    1
