@<TRIPOS>MOLECULE
28262_out_ligand_01.pdbqt
 32 35 0 0 0
SMALL
GASTEIGER

@<TRIPOS>ATOM
      1  N         18.4140  -22.4760   -8.2560 N.am    1  UNL1       -0.3090
      2  C         18.0270  -22.1860   -9.5430 C.2     1  UNL1        0.3270
      3  O         16.8610  -22.0560   -9.9110 O.2     1  UNL1       -0.2460
      4  N         19.0730  -21.9550  -10.4220 N.am    1  UNL1       -0.2990
      5  C         18.8170  -21.3280  -11.7220 C.3     1  UNL1        0.1380
      6  C         20.1860  -20.9730  -12.3050 C.3     1  UNL1        0.0620
      7  C         21.0970  -21.8550  -11.5010 C.2     1  UNL1       -0.0140
      8  C         22.4350  -22.1670  -11.7250 C.2     1  UNL1        0.0400
      9  C         23.0620  -23.0850  -10.8720 C.2     1  UNL1        0.0180
     10  C         22.3590  -23.6560   -9.8020 C.2     1  UNL1        0.0030
     11  C         21.0230  -23.3200   -9.5690 C.2     1  UNL1        0.0300
     12  C         20.4070  -22.4060  -10.4130 C.2     1  UNL1        0.0460
     13  H         19.3400  -22.1530   -8.0200 H       1  UNL1        0.1700
     14  C         23.2240  -21.6110  -12.8500 C.2     1  UNL1        0.2520
     15  O         22.7010  -21.4460  -13.9440 O.2     1  UNL1       -0.2680
     16  N         24.5530  -21.3560  -12.5860 N.am    1  UNL1       -0.3570
     17  H         24.9580  -21.7370  -11.7410 H       1  UNL1        0.1620
     18  C         25.4540  -20.9240  -13.6390 C.3     1  UNL1        0.1270
     19  C         26.0590  -22.0990  -14.4100 C.3     1  UNL1        0.0600
     20  C         25.3780  -22.3040  -15.7330 C.2     1  UNL1       -0.0390
     21  C         24.8400  -23.5400  -16.0970 C.2     1  UNL1        0.0100
     22  C         24.1980  -23.6770  -17.3250 C.2     1  UNL1        0.0200
     23  C         24.1110  -22.5680  -18.1480 C.2     1  UNL1        0.1160
     24  N         24.6110  -21.3550  -17.8280 N.2     1  UNL1       -0.2730
     25  C         25.2340  -21.2500  -16.6330 C.2     1  UNL1        0.1230
     26  C         17.5980  -22.8770   -7.1800 C.2     1  UNL1        0.0360
     27  C         16.5720  -23.8150   -7.2950 C.2     1  UNL1        0.0300
     28  C         15.8140  -24.1770   -6.1750 C.2     1  UNL1        0.0090
     29  C         16.0690  -23.6050   -4.9250 C.2     1  UNL1       -0.0620
     30  C         15.2770  -24.0210   -3.7220 C.3     1  UNL1        0.0480
     31  C         17.1150  -22.6850   -4.8050 C.2     1  UNL1        0.0090
     32  C         17.8710  -22.3230   -5.9250 C.2     1  UNL1        0.0300
@<TRIPOS>BOND
     1    23    24    2
     2    23    22    1
     3    24    25    1
     4    22    21    2
     5    25    20    2
     6    21    20    1
     7    20    19    1
     8    19    18    1
     9    15    14    2
    10    18    16    1
    11    14    16   am
    12    14     8    1
    13    16    17    1
    14     6     5    1
    15     6     7    1
    16     8     7    2
    17     8     9    1
    18     5     4    1
    19     7    12    1
    20     9    10    2
    21     4    12    1
    22     4     2   am
    23    12    11    2
    24     3     2    2
    25    10    11    1
    26     2     1   am
    27     1    13    1
    28     1    26    1
    29    27    26    2
    30    27    28    1
    31    26    32    1
    32    28    29    2
    33    32    31    2
    34    29    31    1
    35    29    30    1
