@<TRIPOS>MOLECULE
28275_out_ligand_01.pdbqt
 32 35 0 0 0
SMALL
GASTEIGER

@<TRIPOS>ATOM
      1  C         21.5590  -22.0810   -7.7000 C.3     1  UNL1        0.0530
      2  C         21.2470  -22.6100   -9.1040 C.3     1  UNL1        0.3100
      3  C         22.2850  -21.9610  -10.0580 C.2     1  UNL1        0.2550
      4  O         22.9290  -20.9720   -9.7230 O.2     1  UNL1       -0.2710
      5  N         22.3170  -22.5940  -11.2920 N.am    1  UNL1       -0.3250
      6  H         21.7680  -23.4560  -11.3250 H       1  UNL1        0.1690
      7  C         23.0820  -22.2720  -12.4220 C.2     1  UNL1        0.0340
      8  C         22.5390  -21.3370  -13.3120 C.2     1  UNL1        0.0300
      9  C         23.2420  -20.9520  -14.4580 C.2     1  UNL1        0.0190
     10  C         24.5040  -21.4940  -14.7240 C.2     1  UNL1        0.0320
     11  C         25.0430  -22.4410  -13.8450 C.2     1  UNL1        0.0190
     12  C         24.3340  -22.8230  -12.6990 C.2     1  UNL1        0.0300
     13  C         25.2160  -21.0550  -15.9540 C.2     1  UNL1        0.2490
     14  N         24.4990  -20.3600  -16.8870 N.am    1  UNL1       -0.3660
     15  H         24.9720  -20.1870  -17.7650 H       1  UNL1        0.1590
     16  H         23.4890  -20.3570  -16.8970 H       1  UNL1        0.1590
     17  O         26.3920  -21.3350  -16.1480 O.2     1  UNL1       -0.2680
     18  N         19.8900  -22.3000   -9.6170 N.3     1  UNL1        0.1020
     19  C         19.9300  -21.3810  -10.7700 C.3     1  UNL1        0.2730
     20  C         18.6140  -21.3350  -11.5610 C.3     1  UNL1        0.0310
     21  C         17.4140  -21.5280  -10.6440 C.3     1  UNL1        0.0160
     22  C         17.5090  -22.8690   -9.8900 C.3     1  UNL1        0.0910
     23  C         18.9580  -23.4070   -9.8160 C.3     1  UNL1        0.2860
     24  C         16.9280  -22.7340   -8.5160 C.ar    1  UNL1        0.1520
     25  N         15.6570  -22.7270   -8.1470 N.ar    1  UNL1       -0.2250
     26  C         15.7190  -22.5690   -6.7850 C.ar    1  UNL1        0.0930
     27  C         14.7100  -22.4870   -5.8180 C.2     1  UNL1        0.0340
     28  C         17.0430  -22.4860   -6.3800 C.ar    1  UNL1        0.1060
     29  C         15.0900  -22.3270   -4.4750 C.2     1  UNL1        0.0020
     30  C         16.4410  -22.2460   -4.1100 C.2     1  UNL1        0.0030
     31  C         17.4620  -22.3250   -5.0660 C.2     1  UNL1        0.0400
     32  O         17.8270  -22.5900   -7.4920 O.2     1  UNL1       -0.2930
@<TRIPOS>BOND
     1    15    14    1
     2    16    14    1
     3    14    13   am
     4    17    13    2
     5    13    10    1
     6    10     9    2
     7    10    11    1
     8     9     8    1
     9    11    12    2
    10     8     7    2
    11    12     7    1
    12     7     5    1
    13    20    19    1
    14    20    21    1
    15     6     5    1
    16     5     3   am
    17    19    18    1
    18    21    22    1
    19     3     4    2
    20     3     2    1
    21    22    23    1
    22    22    24    1
    23    23    18    1
    24    18     2    1
    25     2     1    1
    26    24    25   ar
    27    24    32   ar
    28    25    26   ar
    29    32    28   ar
    30    26    28   ar
    31    26    27    1
    32    28    31    1
    33    27    29    2
    34    31    30    2
    35    29    30    1
