@<TRIPOS>MOLECULE
28297_out_ligand_01.pdbqt
 35 38 0 0 0
SMALL
GASTEIGER

@<TRIPOS>ATOM
      1  C         19.7640  -20.7210  -12.1510 C.3     1  UNL1        0.0490
      2  C         18.8800  -21.4680  -11.1890 C.2     1  UNL1       -0.0460
      3  C         17.5140  -21.1510  -11.1150 C.2     1  UNL1        0.0090
      4  C         16.6770  -21.8130  -10.2150 C.2     1  UNL1        0.0250
      5  C         17.2070  -22.7890   -9.3670 C.2     1  UNL1        0.0750
      6  C         18.5610  -23.1260   -9.4210 C.2     1  UNL1        0.0420
      7  C         19.3920  -22.4630  -10.3330 C.2     1  UNL1        0.0390
      8  C         20.8320  -22.8200  -10.3590 C.2     1  UNL1        0.2560
      9  O         21.2110  -23.7500   -9.6620 O.2     1  UNL1       -0.2670
     10  N         21.5840  -22.0280  -11.2060 N.am    1  UNL1       -0.3230
     11  H         21.0900  -21.3010  -11.7110 H       1  UNL1        0.1690
     12  C         22.9750  -22.0880  -11.4220 C.2     1  UNL1        0.0350
     13  C         23.7960  -21.4760  -10.4660 C.2     1  UNL1        0.0290
     14  C         25.1860  -21.4920  -10.6010 C.2     1  UNL1        0.0030
     15  C         25.7700  -22.1230  -11.6970 C.2     1  UNL1        0.0150
     16  C         24.9660  -22.7370  -12.6630 C.2     1  UNL1        0.0140
     17  C         23.5700  -22.7240  -12.5160 C.2     1  UNL1        0.0440
     18  C         25.5680  -23.4060  -13.8090 C.2     1  UNL1        0.1630
     19  N         25.7820  -24.7020  -13.9370 N.2     1  UNL1       -0.1300
     20  N         26.3670  -24.9290  -15.1620 N.2     1  UNL1       -0.1430
     21  C         26.4800  -23.7700  -15.7660 C.2     1  UNL1        0.2350
     22  N         25.9890  -22.7890  -14.9620 N.pl3   1  UNL1       -0.3270
     23  C         25.8940  -21.3910  -15.2890 C.3     1  UNL1        0.1590
     24  S         16.1310  -23.6120   -8.2200 S.O2    1  UNL1        0.2450
     25  O         15.5440  -24.7470   -8.9030 O.2     1  UNL1       -0.2060
     26  O         15.3240  -22.5920   -7.5890 O.2     1  UNL1       -0.2060
     27  N         17.2700  -24.2370   -7.1130 N.pl3   1  UNL1       -0.1810
     28  H         16.8840  -25.0980   -6.7240 H       1  UNL1        0.1460
     29  C         17.6320  -23.3180   -6.0740 C.2     1  UNL1        0.0230
     30  C         16.9920  -23.3780   -4.8330 C.2     1  UNL1        0.0270
     31  C         17.3190  -22.4520   -3.8420 C.2     1  UNL1        0.0440
     32  C         18.2680  -21.4690   -4.1060 C.2     1  UNL1        0.1160
     33  F         18.5780  -20.5810   -3.1540 F       1  UNL1       -0.2060
     34  C         18.8940  -21.3910   -5.3450 C.2     1  UNL1        0.0440
     35  C         18.5690  -22.3170   -6.3380 C.2     1  UNL1        0.0270
@<TRIPOS>BOND
     1    21    20    2
     2    21    22    1
     3    23    22    1
     4    20    19    1
     5    22    18    1
     6    19    18    2
     7    18    16    1
     8    16    17    1
     9    16    15    2
    10    17    12    2
    11     1     2    1
    12    11    10    1
    13    15    14    1
    14    12    10    1
    15    12    13    1
    16    10     8   am
    17     2     3    2
    18     2     7    1
    19     3     4    1
    20    14    13    2
    21     8     7    1
    22     8     9    2
    23     7     6    2
    24     4     5    2
    25     6     5    1
    26     5    24    1
    27    25    24    2
    28    24    26    2
    29    24    27    1
    30    27    28    1
    31    27    29    1
    32    35    29    2
    33    35    34    1
    34    29    30    1
    35    34    32    2
    36    30    31    2
    37    32    31    1
    38    32    33    1
