@<TRIPOS>MOLECULE
28326_out_ligand_01.pdbqt
 29 32 0 0 0
SMALL
GASTEIGER

@<TRIPOS>ATOM
      1  O         21.0810  -22.8130   -7.8890 O.2     1  UNL1       -0.2680
      2  C         20.4720  -23.0630   -8.9220 C.2     1  UNL1        0.2530
      3  N         19.3300  -23.8340   -8.9760 N.am    1  UNL1       -0.3560
      4  H         18.7210  -23.7340   -9.7800 H       1  UNL1        0.1620
      5  C         20.9490  -22.4960  -10.2040 C.2     1  UNL1        0.0500
      6  C         20.1400  -21.7020  -11.0110 C.2     1  UNL1        0.1360
      7  N         20.5360  -21.1670  -12.1960 N.2     1  UNL1       -0.2410
      8  C         21.7900  -21.4570  -12.6010 C.ar    1  UNL1        0.1460
      9  N         22.1990  -20.9160  -13.8090 N.ar    1  UNL1       -0.2920
     10  C         22.6600  -22.2530  -11.8710 C.ar    1  UNL1        0.0790
     11  C         23.4290  -21.1250  -14.3470 C.ar    1  UNL1        0.3280
     12  H         21.5420  -20.3380  -14.3160 H       1  UNL1        0.1720
     13  O         23.7630  -20.6280  -15.4170 O.2     1  UNL1       -0.2470
     14  N         24.2780  -21.9180  -13.6270 N.ar    1  UNL1       -0.2750
     15  C         24.0030  -22.4980  -12.4140 C.ar    1  UNL1        0.2630
     16  H         25.1960  -22.0710  -14.0160 H       1  UNL1        0.1730
     17  O         24.8240  -23.1750  -11.8080 O.2     1  UNL1       -0.2670
     18  C         22.2380  -22.7890  -10.6550 C.2     1  UNL1        0.0390
     19  C         18.7010  -24.3130   -7.7560 C.3     1  UNL1        0.1370
     20  C         17.5630  -23.3420   -7.3720 C.3     1  UNL1        0.0030
     21  C         16.1550  -24.0370   -7.4300 C.3     1  UNL1        0.0160
     22  C         16.0260  -23.5690   -8.8890 C.3     1  UNL1        0.0020
     23  C         17.0440  -22.4620   -8.5660 C.3     1  UNL1        0.0160
     24  C         17.9030  -22.5900   -5.9840 C.2     1  UNL1       -0.0480
     25  C         17.4820  -23.1110   -4.7420 C.2     1  UNL1        0.0080
     26  C         17.7890  -22.4830   -3.5300 C.2     1  UNL1        0.0010
     27  C         18.5280  -21.3060   -3.5260 C.2     1  UNL1        0.0000
     28  C         18.9580  -20.7590   -4.7290 C.2     1  UNL1        0.0010
     29  C         18.6490  -21.3930   -5.9350 C.2     1  UNL1        0.0080
@<TRIPOS>BOND
     1    13    11    2
     2    11     9   ar
     3    11    14   ar
     4    12     9    1
     5    16    14    1
     6     9     8   ar
     7    14    15   ar
     8     8     7    2
     9     8    10   ar
    10    15    10   ar
    11    15    17    2
    12     7     6    1
    13    10    18    2
    14     6     5    2
    15    18     5    1
    16     5     2    1
    17     4     3    1
    18     3     2   am
    19     3    19    1
    20     2     1    2
    21    22    23    1
    22    22    21    1
    23    23    20    1
    24    19    20    1
    25    21    20    1
    26    20    24    1
    27    24    29    2
    28    24    25    1
    29    29    28    1
    30    25    26    2
    31    28    27    2
    32    26    27    1
