@<TRIPOS>MOLECULE
28332_out_ligand_01.pdbqt
 33 36 0 0 0
SMALL
GASTEIGER

@<TRIPOS>ATOM
      1  C         20.6370  -22.2750  -10.9230 C.ar    1  UNL1        0.0730
      2  C         21.7660  -22.9560  -10.5100 C.ar    1  UNL1        0.0930
      3  S         21.5030  -23.9380   -9.1450 S.2     1  UNL1       -0.0730
      4  C         19.8410  -23.5900   -9.1530 C.ar    1  UNL1        0.0200
      5  C         19.4930  -22.6970  -10.1470 C.ar    1  UNL1       -0.0230
      6  C         18.0790  -22.2050  -10.2440 C.3     1  UNL1        0.0710
      7  C         17.1140  -23.1050   -9.4370 C.3     1  UNL1        0.2780
      8  N         17.6300  -23.4090   -8.0840 N.3     1  UNL1        0.0970
      9  C         18.8850  -24.1960   -8.1620 C.3     1  UNL1        0.3190
     10  N         23.0690  -23.0020  -10.9490 N.am    1  UNL1       -0.3200
     11  C         24.0550  -22.1480  -10.4920 C.2     1  UNL1        0.2260
     12  O         23.8570  -21.1180   -9.8500 O.2     1  UNL1       -0.2730
     13  H         23.2540  -23.5840  -11.7570 H       1  UNL1        0.1690
     14  C         25.4540  -22.5160  -10.9620 C.3     1  UNL1        0.1410
     15  C         25.5630  -22.8370  -12.4350 C.2     1  UNL1       -0.0460
     16  C         26.1390  -24.0450  -12.8640 C.2     1  UNL1        0.0080
     17  C         26.2460  -24.3390  -14.2260 C.2     1  UNL1        0.0040
     18  C         25.7890  -23.4250  -15.1730 C.2     1  UNL1        0.0420
     19  C         25.2290  -22.2270  -14.7510 C.2     1  UNL1        0.1160
     20  F         24.7900  -21.3460  -15.6590 F       1  UNL1       -0.2060
     21  C         25.1150  -21.9230  -13.3970 C.2     1  UNL1        0.0490
     22  C         20.6400  -21.2180  -11.9250 C.2     1  UNL1        0.2520
     23  N         19.6970  -20.2460  -11.7360 N.am    1  UNL1       -0.3660
     24  H         19.5510  -19.6760  -12.5590 H       1  UNL1        0.1590
     25  H         18.8610  -20.5180  -11.2380 H       1  UNL1        0.1590
     26  O         21.4150  -21.1840  -12.8740 O.2     1  UNL1       -0.2680
     27  C         16.6110  -24.1210   -7.2950 C.3     1  UNL1        0.3110
     28  C         16.4210  -23.5570   -5.9020 C.2     1  UNL1       -0.0300
     29  C         15.2560  -22.8520   -5.5690 C.2     1  UNL1        0.0090
     30  C         15.0890  -22.3280   -4.2860 C.2     1  UNL1        0.0010
     31  C         16.0830  -22.4990   -3.3250 C.2     1  UNL1        0.0000
     32  C         17.2490  -23.1930   -3.6460 C.2     1  UNL1        0.0010
     33  C         17.4180  -23.7160   -4.9280 C.2     1  UNL1        0.0090
@<TRIPOS>BOND
     1    20    19    1
     2    18    19    2
     3    18    17    1
     4    19    21    1
     5    17    16    2
     6    21    15    2
     7    26    22    2
     8    16    15    1
     9    24    23    1
    10    15    14    1
    11    22    23   am
    12    22     1    1
    13    13    10    1
    14    23    25    1
    15    14    11    1
    16    10     2    1
    17    10    11   am
    18     1     2   ar
    19     1     5   ar
    20     2     3   ar
    21    11    12    2
    22     6     5    1
    23     6     7    1
    24     5     4   ar
    25     7     8    1
    26     4     3   ar
    27     4     9    1
    28     9     8    1
    29     8    27    1
    30    27    28    1
    31    28    29    2
    32    28    33    1
    33    29    30    1
    34    33    32    2
    35    30    31    2
    36    32    31    1
