@<TRIPOS>MOLECULE
28349_out_ligand_01.pdbqt
 35 37 0 0 0
SMALL
GASTEIGER

@<TRIPOS>ATOM
      1  C         22.6230  -22.8100  -10.9920 C.2     1  UNL1        0.0350
      2  C         22.0090  -22.0310  -11.9820 C.2     1  UNL1        0.0290
      3  C         20.6680  -21.6480  -11.8670 C.2     1  UNL1        0.0030
      4  C         19.9290  -22.0320  -10.7530 C.2     1  UNL1        0.0170
      5  C         20.5420  -22.7940   -9.7550 C.2     1  UNL1        0.0340
      6  C         21.8850  -23.1770   -9.8650 C.2     1  UNL1        0.0460
      7  N         23.9710  -23.1620  -11.1980 N.am    1  UNL1       -0.3270
      8  C         25.0860  -22.3550  -11.0470 C.2     1  UNL1        0.2310
      9  O         25.0830  -21.1860  -10.6740 O.2     1  UNL1       -0.2720
     10  H         24.1480  -24.1460  -11.3990 H       1  UNL1        0.1690
     11  C         26.3930  -23.0400  -11.4170 C.3     1  UNL1        0.1850
     12  S         27.0020  -22.4740  -13.0350 S.3     1  UNL1       -0.0800
     13  C         26.5850  -23.8170  -14.0300 C.ar    1  UNL1        0.1990
     14  N         26.9750  -25.0530  -13.8120 N.ar    1  UNL1       -0.1350
     15  N         26.4430  -25.8020  -14.8230 N.ar    1  UNL1        0.0180
     16  N         25.7440  -25.0470  -15.6540 N.ar    1  UNL1       -0.0020
     17  N         25.8160  -23.7850  -15.1700 N.ar    1  UNL1       -0.2450
     18  C         25.1320  -22.6900  -15.8720 C.3     1  UNL1        0.0430
     19  C         26.1630  -21.6990  -16.4460 C.3     1  UNL1        0.0390
     20  C         24.2920  -23.2170  -17.0660 C.3     1  UNL1        0.0390
     21  C         24.1480  -21.9570  -14.9390 C.3     1  UNL1        0.0390
     22  C         19.7880  -23.1780   -8.5410 C.2     1  UNL1        0.2560
     23  O         19.7290  -24.3620   -8.2400 O.2     1  UNL1       -0.2670
     24  N         19.1890  -22.1120   -7.8980 N.am    1  UNL1       -0.3230
     25  H         19.2200  -21.2210   -8.3760 H       1  UNL1        0.1690
     26  C         18.4050  -22.1650   -6.7250 C.2     1  UNL1        0.0350
     27  C         18.9290  -21.5580   -5.5770 C.2     1  UNL1        0.0290
     28  C         18.2050  -21.5460   -4.3820 C.2     1  UNL1        0.0030
     29  C         16.9510  -22.1500   -4.3240 C.2     1  UNL1        0.0160
     30  C         16.4170  -22.7870   -5.4550 C.2     1  UNL1        0.0500
     31  C         17.1510  -22.7790   -6.6570 C.2     1  UNL1        0.0450
     32  C         15.0560  -23.4330   -5.3830 C.3     1  UNL1        0.4170
     33  F         14.0500  -22.5210   -5.4780 F       1  UNL1       -0.1660
     34  F         14.8490  -24.3210   -6.3920 F       1  UNL1       -0.1660
     35  F         14.8230  -24.1180   -4.2290 F       1  UNL1       -0.1660
@<TRIPOS>BOND
     1    20    18    1
     2    19    18    1
     3    18    17    1
     4    18    21    1
     5    16    17   ar
     6    16    15   ar
     7    17    13   ar
     8    15    14   ar
     9    13    14   ar
    10    13    12    1
    11    12    11    1
    12     2     3    1
    13     2     1    2
    14     3     4    2
    15    11     8    1
    16    10     7    1
    17     7     8   am
    18     7     1    1
    19     8     9    2
    20     1     6    1
    21     4     5    1
    22     6     5    2
    23     5    22    1
    24    22    23    2
    25    22    24   am
    26    25    24    1
    27    24    26    1
    28    26    31    2
    29    26    27    1
    30    31    30    1
    31    34    32    1
    32    27    28    2
    33    33    32    1
    34    30    32    1
    35    30    29    2
    36    32    35    1
    37    28    29    1
