@<TRIPOS>MOLECULE
28357_out_ligand_01.pdbqt
 33 36 0 0 0
SMALL
GASTEIGER

@<TRIPOS>ATOM
      1  N         22.0620  -21.9320  -12.0980 N.am    1  UNL1       -0.3230
      2  C         21.4970  -21.6450  -10.8710 C.2     1  UNL1        0.2560
      3  O         22.0540  -21.3520   -9.8240 O.2     1  UNL1       -0.2670
      4  H         21.4160  -22.1640  -12.8420 H       1  UNL1        0.1690
      5  C         23.4320  -21.9400  -12.4280 C.2     1  UNL1        0.0350
      6  C         24.2610  -22.7870  -11.6800 C.2     1  UNL1        0.0290
      7  C         25.6310  -22.8600  -11.9400 C.2     1  UNL1        0.0030
      8  C         26.1880  -22.0900  -12.9570 C.2     1  UNL1        0.0150
      9  C         25.3700  -21.2470  -13.7160 C.2     1  UNL1        0.0120
     10  C         23.9950  -21.1650  -13.4430 C.2     1  UNL1        0.0440
     11  C         25.9360  -20.4080  -14.8040 C.2     1  UNL1        0.1410
     12  N         26.2030  -21.0430  -15.9920 N.am    1  UNL1       -0.3070
     13  C         26.6950  -20.3810  -17.0760 C.2     1  UNL1        0.2480
     14  H         25.9750  -22.0130  -16.1430 H       1  UNL1        0.1700
     15  C         26.9590  -18.9520  -16.8720 C.2     1  UNL1        0.1010
     16  O         26.9030  -20.9280  -18.1530 O.2     1  UNL1       -0.2680
     17  C         26.6700  -18.4220  -15.6750 C.2     1  UNL1        0.0380
     18  C         26.9010  -16.9650  -15.3950 C.3     1  UNL1        0.0700
     19  N         26.1480  -19.1420  -14.6270 N.2     1  UNL1       -0.2350
     20  C         20.0200  -21.7310  -10.8820 C.2     1  UNL1        0.0380
     21  C         19.3250  -20.6430  -11.4240 C.2     1  UNL1        0.0170
     22  C         17.9330  -20.6510  -11.4430 C.2     1  UNL1        0.0010
     23  C         17.2390  -21.7450  -10.9290 C.2     1  UNL1        0.0010
     24  C         17.9350  -22.8350  -10.3990 C.2     1  UNL1        0.0080
     25  C         19.3390  -22.8480  -10.3670 C.2     1  UNL1       -0.0420
     26  C         20.0540  -24.0750   -9.8430 C.3     1  UNL1        0.0440
     27  C         20.5550  -23.9350   -8.3980 C.3     1  UNL1        0.0430
     28  C         19.5150  -23.3820   -7.4540 C.2     1  UNL1       -0.0580
     29  C         18.4080  -24.1560   -7.0790 C.2     1  UNL1        0.0070
     30  C         17.4600  -23.6480   -6.1900 C.2     1  UNL1        0.0010
     31  C         17.6090  -22.3650   -5.6670 C.2     1  UNL1        0.0000
     32  C         18.7060  -21.5880   -6.0330 C.2     1  UNL1        0.0010
     33  C         19.6560  -22.0940   -6.9220 C.2     1  UNL1        0.0070
@<TRIPOS>BOND
     1    16    13    2
     2    13    15    1
     3    13    12   am
     4    15    17    2
     5    14    12    1
     6    12    11    1
     7    17    18    1
     8    17    19    1
     9    11    19    2
    10    11     9    1
    11     9    10    1
    12     9     8    2
    13    10     5    2
    14     8     7    1
    15     4     1    1
    16     5     1    1
    17     5     6    1
    18     1     2   am
    19     7     6    2
    20    22    21    1
    21    22    23    2
    22    21    20    2
    23    23    24    1
    24    20     2    1
    25    20    25    1
    26     2     3    2
    27    24    25    2
    28    25    26    1
    29    26    27    1
    30    27    28    1
    31    28    29    2
    32    28    33    1
    33    29    30    1
    34    33    32    2
    35    30    31    2
    36    32    31    1
