@<TRIPOS>MOLECULE
28384_out_ligand_01.pdbqt
 31 34 0 0 0
SMALL
GASTEIGER

@<TRIPOS>ATOM
      1  C         19.6630  -24.2310   -9.4700 C.3     1  UNL1        0.1530
      2  N         19.0270  -23.0400  -10.0190 N.am    1  UNL1       -0.3480
      3  C         19.7170  -21.9410  -10.5280 C.2     1  UNL1        0.2530
      4  O         19.1690  -20.9700  -11.0460 O.2     1  UNL1       -0.2670
      5  C         21.1920  -21.9190  -10.4370 C.2     1  UNL1        0.0330
      6  C         21.8170  -21.8050   -9.1930 C.2     1  UNL1        0.0190
      7  C         23.2110  -21.7710   -9.1010 C.2     1  UNL1        0.0310
      8  C         23.9410  -21.8370  -10.2950 C.ar    1  UNL1        0.0430
      9  N         25.3010  -21.8190  -10.5000 N.ar    1  UNL1       -0.3580
     10  C         23.3410  -21.9280  -11.5510 C.ar    1  UNL1       -0.0000
     11  C         25.5890  -21.8890  -11.8390 C.ar    1  UNL1        0.0170
     12  H         25.9870  -21.7530   -9.7610 H       1  UNL1        0.1660
     13  C         24.3890  -21.9600  -12.5280 C.ar    1  UNL1       -0.0230
     14  C         26.9980  -21.8770  -12.3400 C.3     1  UNL1        0.0570
     15  C         24.2170  -22.0410  -14.0150 C.3     1  UNL1        0.0410
     16  C         25.3470  -22.7950  -14.7170 C.3     1  UNL1        0.0050
     17  C         26.6420  -21.9930  -14.8900 C.3     1  UNL1        0.0010
     18  C         27.1210  -21.1700  -13.6890 C.3     1  UNL1        0.0060
     19  C         21.9340  -21.9590  -11.6250 C.2     1  UNL1        0.0310
     20  C         17.5780  -22.9350   -9.8790 C.3     1  UNL1        0.1640
     21  C         17.1390  -23.0460   -8.4370 C.2     1  UNL1       -0.0400
     22  C         16.1750  -23.9950   -8.0640 C.2     1  UNL1        0.0100
     23  C         15.7450  -24.0940   -6.7380 C.2     1  UNL1        0.0170
     24  C         16.2830  -23.2450   -5.7640 C.2     1  UNL1        0.0310
     25  C         17.2300  -22.2830   -6.1330 C.2     1  UNL1        0.0170
     26  C         17.6590  -22.1860   -7.4590 C.2     1  UNL1        0.0100
     27  C         15.8620  -23.3100   -4.3390 C.2     1  UNL1        0.2490
     28  N         15.9630  -22.1630   -3.5990 N.am    1  UNL1       -0.3660
     29  H         16.0610  -21.2560   -4.0290 H       1  UNL1        0.1590
     30  H         15.5470  -22.1970   -2.6780 H       1  UNL1        0.1590
     31  O         15.4070  -24.3350   -3.8460 O.2     1  UNL1       -0.2680
@<TRIPOS>BOND
     1    17    16    1
     2    17    18    1
     3    16    15    1
     4    15    13    1
     5    18    14    1
     6    13    11   ar
     7    13    10   ar
     8    14    11    1
     9    11     9   ar
    10    19    10    1
    11    19     5    2
    12    10     8   ar
    13     4     3    2
    14     3     5    1
    15     3     2   am
    16     9     8   ar
    17     9    12    1
    18     5     6    1
    19     8     7    1
    20     2    20    1
    21     2     1    1
    22    20    21    1
    23     6     7    2
    24    21    22    2
    25    21    26    1
    26    22    23    1
    27    26    25    2
    28    23    24    2
    29    25    24    1
    30    24    27    1
    31    27    31    2
    32    27    28   am
    33    29    28    1
    34    28    30    1
