@<TRIPOS>MOLECULE
28383_out_ligand_01.pdbqt
 29 31 0 0 0
SMALL
GASTEIGER

@<TRIPOS>ATOM
      1  C         22.4120  -21.7000  -12.3510 C.2     1  UNL1       -0.0400
      2  C         22.5840  -21.0740  -13.5940 C.2     1  UNL1        0.0100
      3  C         23.6160  -21.4690  -14.4490 C.2     1  UNL1        0.0230
      4  C         24.4920  -22.4900  -14.0670 C.2     1  UNL1        0.0440
      5  C         25.5480  -22.9000  -14.9460 C.1     1  UNL1        0.0990
      6  N         26.4010  -23.2370  -15.6570 N.1     1  UNL1       -0.1910
      7  C         24.3340  -23.1100  -12.8240 C.2     1  UNL1        0.0230
      8  C         23.3020  -22.7140  -11.9690 C.2     1  UNL1        0.0100
      9  C         21.3130  -21.2510  -11.4110 C.3     1  UNL1        0.1750
     10  N         21.2740  -22.0690  -10.2230 N.am    1  UNL1       -0.2630
     11  C         22.1490  -21.9610   -9.1880 C.2     1  UNL1        0.3260
     12  N         21.7680  -22.8340   -8.1960 N.am    1  UNL1       -0.3210
     13  O         23.1090  -21.2150   -9.1010 O.2     1  UNL1       -0.2470
     14  C         20.5450  -23.5400   -8.5170 C.3     1  UNL1        0.1400
     15  H         22.2240  -22.8310   -7.2930 H       1  UNL1        0.1650
     16  C         20.8530  -25.0330   -8.6760 C.3     1  UNL1        0.0540
     17  C         20.2780  -22.9590   -9.9260 C.2     1  UNL1        0.2610
     18  O         19.3350  -23.2510  -10.6510 O.2     1  UNL1       -0.2700
     19  C         19.4400  -23.1740   -7.5260 C.2     1  UNL1       -0.0210
     20  C         19.4690  -21.9880   -6.7710 C.2     1  UNL1        0.0110
     21  C         18.4440  -21.6760   -5.8670 C.2     1  UNL1        0.0170
     22  C         17.3590  -22.5420   -5.7040 C.2     1  UNL1        0.0310
     23  C         17.3200  -23.7300   -6.4360 C.2     1  UNL1        0.0170
     24  C         18.3430  -24.0390   -7.3380 C.2     1  UNL1        0.0110
     25  C         16.2500  -22.2590   -4.7540 C.2     1  UNL1        0.2490
     26  N         16.5840  -21.9600   -3.4620 N.am    1  UNL1       -0.3660
     27  H         15.8190  -21.6470   -2.8760 H       1  UNL1        0.1590
     28  H         17.5140  -21.6680   -3.2000 H       1  UNL1        0.1590
     29  O         15.0800  -22.2550   -5.1140 O.2     1  UNL1       -0.2680
@<TRIPOS>BOND
     1     6     5    3
     2     5     4    1
     3     3     4    2
     4     3     2    1
     5     4     7    1
     6     2     1    2
     7     7     8    2
     8     1     8    1
     9     1     9    1
    10     9    10    1
    11    18    17    2
    12    10    17   am
    13    10    11   am
    14    17    14    1
    15    11    13    2
    16    11    12   am
    17    16    14    1
    18    14    12    1
    19    14    19    1
    20    12    15    1
    21    19    24    2
    22    19    20    1
    23    24    23    1
    24    20    21    2
    25    23    22    2
    26    21    22    1
    27    22    25    1
    28    29    25    2
    29    25    26   am
    30    26    28    1
    31    26    27    1
