@<TRIPOS>MOLECULE
28380_out_ligand_01.pdbqt
 30 33 0 0 0
SMALL
GASTEIGER

@<TRIPOS>ATOM
      1  C         19.0420  -22.5460  -10.4290 C.2     1  UNL1        0.0360
      2  C         18.8560  -21.6380  -11.4760 C.2     1  UNL1        0.0290
      3  C         19.9520  -21.0070  -12.0770 C.2     1  UNL1        0.0040
      4  C         21.2460  -21.2890  -11.6470 C.2     1  UNL1        0.0250
      5  C         21.4350  -22.2110  -10.6150 C.2     1  UNL1        0.0820
      6  C         20.3420  -22.8210   -9.9930 C.2     1  UNL1        0.0540
      7  N         17.9910  -23.2140   -9.7680 N.am    1  UNL1       -0.3270
      8  C         16.6810  -22.7900   -9.6150 C.2     1  UNL1        0.2280
      9  O         16.1900  -21.7530  -10.0550 O.2     1  UNL1       -0.2730
     10  H         18.2380  -24.0970   -9.3270 H       1  UNL1        0.1690
     11  C         15.8280  -23.7710   -8.8350 C.3     1  UNL1        0.1650
     12  C         16.3450  -23.9280   -7.4540 C.ar    1  UNL1        0.0840
     13  N         17.4040  -24.7170   -7.2170 N.ar    1  UNL1       -0.1310
     14  O         17.6220  -24.6480   -5.8480 O.2     1  UNL1       -0.2120
     15  C         16.7030  -23.8210   -5.2820 C.ar    1  UNL1        0.1130
     16  C         16.5970  -23.5060   -3.9300 C.2     1  UNL1        0.0400
     17  C         15.8650  -23.3260   -6.2650 C.ar    1  UNL1        0.0270
     18  C         15.5670  -22.6220   -3.5800 C.2     1  UNL1        0.0030
     19  C         14.7060  -22.0920   -4.5480 C.2     1  UNL1        0.0010
     20  C         14.8410  -22.4330   -5.9010 C.2     1  UNL1        0.0160
     21  S         23.0750  -22.5650  -10.0440 S.O2    1  UNL1        0.2640
     22  O         23.0050  -23.4480   -8.9020 O.2     1  UNL1       -0.2000
     23  O         23.7870  -21.3050   -9.9620 O.2     1  UNL1       -0.2000
     24  N         23.7640  -23.3660  -11.3330 N.3     1  UNL1       -0.2680
     25  H         23.3340  -24.2720  -11.4930 H       1  UNL1        0.1800
     26  C         24.7780  -22.8990  -12.1610 C.3     1  UNL1        0.1080
     27  N         26.0390  -23.0730  -11.9390 N.3     1  UNL1       -0.2760
     28  C         26.7210  -22.4350  -13.0830 C.3     1  UNL1        0.1510
     29  C         25.7050  -21.4860  -13.6950 C.3     1  UNL1        0.0290
     30  C         24.3940  -22.1760  -13.4100 C.3     1  UNL1        0.0800
@<TRIPOS>BOND
     1    29    30    1
     2    29    28    1
     3    30    26    1
     4    28    27    1
     5    26    27    1
     6    26    24    1
     7     3     4    2
     8     3     2    1
     9     4     5    1
    10    25    24    1
    11     2     1    2
    12    24    21    1
    13     5    21    1
    14     5     6    2
    15     1     6    1
    16     1     7    1
    17     9     8    2
    18    21    23    2
    19    21    22    2
    20     7     8   am
    21     7    10    1
    22     8    11    1
    23    11    12    1
    24    12    13   ar
    25    12    17   ar
    26    13    14   ar
    27    17    20    1
    28    17    15   ar
    29    20    19    2
    30    14    15   ar
    31    15    16    1
    32    19    18    1
    33    16    18    2
