@<TRIPOS>MOLECULE
283_out_ligand_01.pdbqt
 37 41 0 0 0
SMALL
GASTEIGER

@<TRIPOS>ATOM
      1  N         20.6220  -21.9000  -11.6130 N.am    1  UNL1       -0.3230
      2  C         19.4540  -21.1670  -11.7160 C.2     1  UNL1        0.2610
      3  O         19.2450  -20.2430  -12.4910 O.2     1  UNL1       -0.2670
      4  H         20.6120  -22.6850  -10.9760 H       1  UNL1        0.1690
      5  C         18.4340  -21.6120  -10.7790 C.2     1  UNL1        0.0970
      6  C         17.0420  -21.4290  -10.9220 C.3     1  UNL1        0.1600
      7  N         16.3340  -22.0320   -9.9720 N.3     1  UNL1       -0.1770
      8  N         17.2670  -22.5300   -9.1130 N.pl3   1  UNL1       -0.2160
      9  C         18.5400  -22.4380   -9.6650 C.2     1  UNL1        0.1530
     10  C         16.8350  -22.8890   -7.7980 C.2     1  UNL1        0.0600
     11  C         15.9480  -23.9700   -7.6470 C.2     1  UNL1        0.0340
     12  C         15.4870  -24.3340   -6.3790 C.2     1  UNL1        0.0440
     13  C         15.8960  -23.6080   -5.2680 C.2     1  UNL1        0.1160
     14  F         15.4530  -23.9550   -4.0530 F       1  UNL1       -0.2060
     15  C         16.7480  -22.5190   -5.4020 C.2     1  UNL1        0.0440
     16  C         17.2130  -22.1490   -6.6680 C.2     1  UNL1        0.0340
     17  N         19.6730  -23.1010   -9.1870 N.pl3   1  UNL1       -0.3170
     18  C         19.9620  -24.4470   -9.3080 C.2     1  UNL1        0.0980
     19  C         21.1760  -24.7140   -8.7140 C.2     1  UNL1        0.0190
     20  C         21.6560  -23.5010   -8.1850 C.2     1  UNL1        0.0190
     21  C         20.7170  -22.5360   -8.4740 C.2     1  UNL1        0.0980
     22  C         21.8160  -21.7190  -12.3410 C.2     1  UNL1        0.0350
     23  C         21.9020  -21.0320  -13.5500 C.2     1  UNL1        0.0300
     24  C         23.1320  -20.8930  -14.2090 C.2     1  UNL1        0.0120
     25  C         24.3130  -21.4350  -13.6760 C.2     1  UNL1       -0.0210
     26  C         24.2110  -22.1250  -12.4560 C.2     1  UNL1        0.0120
     27  C         22.9840  -22.2620  -11.7980 C.2     1  UNL1        0.0300
     28  C         25.6610  -21.3110  -14.3780 C.3     1  UNL1        0.1390
     29  C         26.7250  -22.2200  -13.7590 C.3     1  UNL1        0.0540
     30  N         25.5870  -21.5450  -15.8080 N.am    1  UNL1       -0.3210
     31  C         25.9670  -20.4570  -16.5490 C.2     1  UNL1        0.3240
     32  H         25.3580  -22.4250  -16.2520 H       1  UNL1        0.1650
     33  O         26.0320  -20.4300  -17.7650 O.2     1  UNL1       -0.2470
     34  N         26.2730  -19.4450  -15.7100 N.am    1  UNL1       -0.2770
     35  C         26.1750  -19.8480  -14.4140 C.2     1  UNL1        0.2580
     36  H         26.6130  -18.5480  -16.0090 H       1  UNL1        0.1730
     37  O         26.4750  -19.1540  -13.4520 O.2     1  UNL1       -0.2700
@<TRIPOS>BOND
     1    33    31    2
     2    31    30   am
     3    31    34   am
     4    32    30    1
     5    36    34    1
     6    30    28    1
     7    34    35   am
     8    35    28    1
     9    35    37    2
    10    28    29    1
    11    28    25    1
    12    24    25    2
    13    24    23    1
    14    25    26    1
    15    23    22    2
    16     3     2    2
    17    26    27    2
    18    22    27    1
    19    22     1    1
    20     2     1   am
    21     2     5    1
    22     1     4    1
    23     6     5    1
    24     6     7    1
    25     5     9    2
    26     7     8    1
    27     9    17    1
    28     9     8    1
    29    18    17    1
    30    18    19    2
    31    17    21    1
    32     8    10    1
    33    19    20    1
    34    21    20    2
    35    10    11    2
    36    10    16    1
    37    11    12    1
    38    16    15    2
    39    12    13    2
    40    15    13    1
    41    13    14    1
