@<TRIPOS>MOLECULE
28405_out_ligand_01.pdbqt
 33 37 0 0 0
SMALL
GASTEIGER

@<TRIPOS>ATOM
      1  C         20.7060  -23.1870   -9.6000 C.3     1  UNL1        0.1630
      2  C         20.2100  -24.3090   -8.6670 C.2     1  UNL1        0.1800
      3  O         20.6820  -25.4440   -8.7940 O.2     1  UNL1       -0.2910
      4  C         19.1820  -24.0540   -7.6430 C.2     1  UNL1        0.0390
      5  C         19.1190  -22.9210   -6.7570 C.2     1  UNL1        0.0060
      6  C         19.9210  -21.7740   -6.5820 C.2     1  UNL1        0.0150
      7  C         17.9880  -23.0670   -5.9500 C.2     1  UNL1        0.0490
      8  C         19.5690  -20.8230   -5.6210 C.2     1  UNL1        0.0020
      9  C         18.4340  -20.9990   -4.8360 C.2     1  UNL1        0.0090
     10  C         17.6090  -22.1310   -4.9680 C.2     1  UNL1       -0.0310
     11  N         17.3940  -24.2510   -6.3170 N.pl3   1  UNL1       -0.3640
     12  C         18.0910  -24.8450   -7.3340 C.2     1  UNL1        0.1040
     13  H         16.5570  -24.6260   -5.8910 H       1  UNL1        0.1650
     14  C         16.3830  -22.2730   -4.1030 C.3     1  UNL1        0.0360
     15  C         15.1030  -22.1810   -4.9220 C.3     1  UNL1        0.0100
     16  S         21.9980  -22.1980   -8.7520 S.3     1  UNL1       -0.0650
     17  C         23.1680  -22.0660  -10.0250 C.ar    1  UNL1        0.2320
     18  N         24.1400  -21.1810  -10.0610 N.ar    1  UNL1       -0.1140
     19  N         24.8450  -21.4250  -11.2220 N.ar    1  UNL1       -0.1190
     20  C         24.2580  -22.4430  -11.8210 C.ar    1  UNL1        0.2200
     21  O         23.1810  -22.9070  -11.1040 O.2     1  UNL1       -0.2620
     22  C         24.6820  -23.0080  -13.0580 C.2     1  UNL1        0.0870
     23  C         24.8340  -22.4200  -14.2990 C.2     1  UNL1        0.0350
     24  C         25.2890  -23.4210  -15.1950 C.2     1  UNL1        0.0190
     25  C         25.3980  -24.5910  -14.4810 C.2     1  UNL1        0.0880
     26  N         25.0260  -24.3310  -13.1860 N.pl3   1  UNL1       -0.3620
     27  H         25.0060  -25.0080  -12.4340 H       1  UNL1        0.1650
     28  C         19.5540  -22.4070  -10.2370 C.2     1  UNL1       -0.0360
     29  C         19.8720  -21.3040  -11.0550 C.2     1  UNL1        0.0090
     30  C         18.8740  -20.5410  -11.6660 C.2     1  UNL1        0.0010
     31  C         17.5360  -20.8560  -11.4640 C.2     1  UNL1        0.0000
     32  C         17.1960  -21.9310  -10.6480 C.2     1  UNL1        0.0010
     33  C         18.1940  -22.6970  -10.0360 C.2     1  UNL1        0.0090
@<TRIPOS>BOND
     1    24    25    2
     2    24    23    1
     3    25    26    1
     4    23    22    2
     5    26    22    1
     6    26    27    1
     7    22    20    1
     8    20    19   ar
     9    20    21   ar
    10    30    31    2
    11    30    29    1
    12    31    32    1
    13    19    18   ar
    14    21    17   ar
    15    29    28    2
    16    32    33    2
    17    28    33    1
    18    28     1    1
    19    18    17   ar
    20    17    16    1
    21     1    16    1
    22     1     2    1
    23     3     2    2
    24     2     4    1
    25     4    12    2
    26     4     5    1
    27    12    11    1
    28     5     6    2
    29     5     7    1
    30     6     8    1
    31    11     7    1
    32    11    13    1
    33     7    10    2
    34     8     9    2
    35    10     9    1
    36    10    14    1
    37    15    14    1
