@<TRIPOS>MOLECULE
2840_out_ligand_01.pdbqt
 31 35 0 0 0
SMALL
GASTEIGER

@<TRIPOS>ATOM
      1  O         23.3770  -21.0950   -9.4890 O.2     1  UNL1       -0.2710
      2  C         22.7820  -22.1480   -9.6980 C.2     1  UNL1        0.2460
      3  N         22.7080  -22.8350  -10.8970 N.am    1  UNL1       -0.3250
      4  H         22.1260  -23.6660  -10.8790 H       1  UNL1        0.1690
      5  C         22.0370  -22.8600   -8.5630 C.3     1  UNL1        0.2780
      6  O         21.0480  -23.7930   -8.9850 O.2     1  UNL1       -0.3420
      7  C         19.7290  -23.4390   -8.8490 C.2     1  UNL1        0.0700
      8  C         18.8590  -23.1140   -9.8950 C.2     1  UNL1        0.0390
      9  C         17.5170  -22.7890   -9.6480 C.2     1  UNL1        0.0410
     10  C         17.0980  -22.8100   -8.3210 C.ar    1  UNL1        0.0860
     11  O         15.8370  -22.5230   -7.8840 O.2     1  UNL1       -0.3140
     12  C         17.9290  -23.1340   -7.2500 C.ar    1  UNL1        0.0090
     13  C         15.8690  -22.6590   -6.5390 C.ar    1  UNL1        0.0610
     14  C         17.1160  -23.0360   -6.0920 C.ar    1  UNL1       -0.0150
     15  C         14.6460  -22.4380   -5.7370 C.3     1  UNL1        0.0660
     16  C         17.4080  -23.2380   -4.6490 C.3     1  UNL1        0.0420
     17  C         16.1000  -23.3730   -3.8380 C.3     1  UNL1        0.0050
     18  C         15.0370  -22.3290   -4.2480 C.3     1  UNL1        0.0070
     19  C         19.2710  -23.4580   -7.5220 C.2     1  UNL1        0.0510
     20  C         23.2790  -22.4850  -12.1340 C.2     1  UNL1        0.0340
     21  C         24.4640  -23.0250  -12.6290 C.2     1  UNL1        0.0300
     22  C         24.9600  -22.6190  -13.8750 C.2     1  UNL1        0.0170
     23  C         24.2910  -21.6640  -14.6510 C.2     1  UNL1        0.0100
     24  C         23.0970  -21.1290  -14.1510 C.2     1  UNL1        0.0170
     25  C         22.5980  -21.5380  -12.9060 C.2     1  UNL1        0.0300
     26  C         24.8560  -21.2700  -15.9480 C.2     1  UNL1        0.1370
     27  N         26.0250  -21.6530  -16.4330 N.2     1  UNL1       -0.2410
     28  C         26.1580  -21.0510  -17.6550 C.2     1  UNL1        0.1360
     29  C         25.0610  -20.2760  -17.9320 C.2     1  UNL1        0.1090
     30  N         24.2460  -20.4200  -16.8440 N.pl3   1  UNL1       -0.3490
     31  H         23.3560  -19.9660  -16.7080 H       1  UNL1        0.1670
@<TRIPOS>BOND
     1    29    28    2
     2    29    30    1
     3    28    27    1
     4    30    31    1
     5    30    26    1
     6    27    26    2
     7    26    23    1
     8    23    24    2
     9    23    22    1
    10    24    25    1
    11    22    21    2
    12    25    20    2
    13    21    20    1
    14    20     3    1
    15     3     4    1
    16     3     2   am
    17     8     9    1
    18     8     7    2
    19     2     1    2
    20     2     5    1
    21     9    10    2
    22     6     7    1
    23     6     5    1
    24     7    19    1
    25    10    11   ar
    26    10    12   ar
    27    11    13   ar
    28    19    12    2
    29    12    14   ar
    30    13    14   ar
    31    13    15    1
    32    14    16    1
    33    15    18    1
    34    16    17    1
    35    18    17    1
