@<TRIPOS>MOLECULE
28425_out_ligand_01.pdbqt
 25 28 0 0 0
SMALL
GASTEIGER

@<TRIPOS>ATOM
      1  N         17.4760  -23.5060   -8.7020 N.pl3   1  UNL1       -0.2890
      2  H         16.6450  -23.1290   -8.2500 H       1  UNL1        0.1280
      3  C         17.8610  -22.7020   -9.7810 C.2     1  UNL1        0.0090
      4  C         17.0250  -21.7610  -10.3850 C.2     1  UNL1        0.0230
      5  C         17.4910  -20.9350  -11.4110 C.2     1  UNL1        0.0030
      6  C         18.8190  -21.0150  -11.8310 C.2     1  UNL1        0.0150
      7  C         19.7000  -21.9120  -11.2170 C.2     1  UNL1        0.0130
      8  C         19.2040  -22.7360  -10.1910 C.2     1  UNL1        0.0380
      9  C         21.1080  -22.0210  -11.6030 C.2     1  UNL1        0.1610
     10  N         21.6900  -21.4590  -12.6480 N.2     1  UNL1       -0.1300
     11  N         23.0200  -21.8140  -12.6590 N.2     1  UNL1       -0.1430
     12  C         23.2260  -22.5930  -11.6260 C.2     1  UNL1        0.2330
     13  N         22.0620  -22.7510  -10.9390 N.pl3   1  UNL1       -0.3320
     14  H         21.9250  -23.3100  -10.1130 H       1  UNL1        0.1680
     15  C         18.4770  -23.9120   -7.7100 C.3     1  UNL1        0.1330
     16  C         18.5230  -22.9250   -6.5570 C.2     1  UNL1       -0.0150
     17  C         19.4450  -21.8590   -6.5790 C.2     1  UNL1        0.0110
     18  C         19.4820  -20.9280   -5.5480 C.2     1  UNL1        0.0020
     19  C         18.5870  -21.0430   -4.4910 C.2     1  UNL1        0.0140
     20  C         17.6430  -22.0820   -4.4710 C.2     1  UNL1       -0.0070
     21  C         16.7240  -22.1930   -3.4190 C.2     1  UNL1        0.0150
     22  C         17.5930  -23.0360   -5.5140 C.2     1  UNL1        0.0740
     23  C         15.7900  -23.2190   -3.4180 C.2     1  UNL1        0.0200
     24  C         15.8050  -24.1020   -4.4770 C.2     1  UNL1        0.1170
     25  N         16.6740  -24.0260   -5.5090 N.2     1  UNL1       -0.2600
@<TRIPOS>BOND
     1    11    10    1
     2    11    12    2
     3    10     9    2
     4     6     5    2
     5     6     7    1
     6    12    13    1
     7     9     7    1
     8     9    13    1
     9     5     4    1
    10     7     8    2
    11    13    14    1
    12     4     3    2
    13     8     3    1
    14     3     1    1
    15     1     2    1
    16     1    15    1
    17    15    16    1
    18    17    16    2
    19    17    18    1
    20    16    22    1
    21    18    19    2
    22    22    25    1
    23    22    20    2
    24    25    24    2
    25    19    20    1
    26    24    23    1
    27    20    21    1
    28    21    23    2
