@<TRIPOS>MOLECULE
28443_out_ligand_01.pdbqt
 35 38 0 0 0
SMALL
GASTEIGER

@<TRIPOS>ATOM
      1  C         18.6610  -22.2890  -10.1830 C.2     1  UNL1        0.0870
      2  C         19.9620  -22.7990  -10.0130 C.2     1  UNL1        0.0550
      3  C         21.0180  -22.3530  -10.8120 C.2     1  UNL1        0.0360
      4  C         20.7540  -21.4140  -11.8040 C.2     1  UNL1        0.0300
      5  C         19.4570  -20.9200  -11.9920 C.2     1  UNL1        0.0100
      6  C         18.3900  -21.3400  -11.1830 C.2     1  UNL1       -0.0390
      7  C         17.0280  -20.7670  -11.4460 C.3     1  UNL1        0.0500
      8  N         22.2940  -22.8930  -10.5490 N.am    1  UNL1       -0.3270
      9  C         23.3960  -22.2390  -10.0180 C.2     1  UNL1        0.2270
     10  O         23.4300  -21.0690   -9.6450 O.2     1  UNL1       -0.2730
     11  H         22.4050  -23.8750  -10.7660 H       1  UNL1        0.1690
     12  C         24.6090  -23.1450   -9.8650 C.3     1  UNL1        0.1630
     13  C         25.3610  -23.2850  -11.1460 C.2     1  UNL1        0.0520
     14  C         26.6350  -23.7980  -11.3120 C.2     1  UNL1        0.0810
     15  S         27.0690  -23.7560  -12.9660 S.3     1  UNL1       -0.0620
     16  C         25.5630  -23.0510  -13.3480 C.2     1  UNL1        0.1750
     17  N         24.7700  -22.8410  -12.3180 N.2     1  UNL1       -0.2280
     18  N         25.2120  -22.7100  -14.6390 N.am    1  UNL1       -0.2960
     19  C         24.7050  -21.4050  -14.9880 C.3     1  UNL1        0.1350
     20  C         24.8450  -21.3520  -16.4930 C.3     1  UNL1        0.0290
     21  C         24.6310  -22.7970  -16.9080 C.3     1  UNL1        0.1050
     22  C         25.1690  -23.5810  -15.7290 C.2     1  UNL1        0.2250
     23  O         25.4470  -24.7680  -15.8020 O.2     1  UNL1       -0.2730
     24  S         17.4010  -22.8960   -9.0650 S.O2    1  UNL1        0.2630
     25  O         16.6780  -21.7640   -8.5280 O.2     1  UNL1       -0.2000
     26  O         16.6950  -23.9730   -9.7270 O.2     1  UNL1       -0.2000
     27  N         18.3070  -23.5410   -7.7890 N.pl3   1  UNL1       -0.2810
     28  H         18.1970  -24.5510   -7.7150 H       1  UNL1        0.1790
     29  C         18.4050  -22.7960   -6.5810 C.2     1  UNL1        0.0430
     30  C         19.2550  -21.6960   -6.4960 C.2     1  UNL1        0.0300
     31  C         19.3010  -20.9420   -5.3240 C.2     1  UNL1        0.0030
     32  C         18.4830  -21.2770   -4.2450 C.2     1  UNL1        0.0070
     33  C         17.6140  -22.3730   -4.3270 C.2     1  UNL1       -0.0600
     34  C         16.7580  -22.7530   -3.1530 C.3     1  UNL1        0.0480
     35  C         17.5910  -23.1400   -5.4980 C.2     1  UNL1        0.0370
@<TRIPOS>BOND
     1    21    20    1
     2    21    22    1
     3    20    19    1
     4    23    22    2
     5    22    18   am
     6    19    18    1
     7    18    16    1
     8    16    15    1
     9    16    17    2
    10    15    14    1
    11    17    13    1
    12     5     4    2
    13     5     6    1
    14     4     3    1
    15     7     6    1
    16    14    13    2
    17     6     1    2
    18    13    12    1
    19     3     8    1
    20     3     2    2
    21    11     8    1
    22     8     9   am
    23     1     2    1
    24     1    24    1
    25     9    12    1
    26     9    10    2
    27    26    24    2
    28    24    25    2
    29    24    27    1
    30    27    28    1
    31    27    29    1
    32    29    30    2
    33    29    35    1
    34    30    31    1
    35    35    33    2
    36    31    32    2
    37    33    32    1
    38    33    34    1
