@<TRIPOS>MOLECULE
28444_out_ligand_01.pdbqt
 33 35 0 0 0
SMALL
GASTEIGER

@<TRIPOS>ATOM
      1  C         20.4920  -22.4810  -10.7220 C.2     1  UNL1        0.0420
      2  C         19.5690  -23.0430   -9.8350 C.2     1  UNL1        0.0550
      3  C         18.2210  -22.6730   -9.8890 C.2     1  UNL1        0.0820
      4  C         17.7660  -21.7530  -10.8300 C.2     1  UNL1        0.0260
      5  C         18.6750  -21.1950  -11.7240 C.2     1  UNL1        0.0100
      6  C         20.0380  -21.5460  -11.6820 C.2     1  UNL1       -0.0350
      7  C         20.9640  -20.9050  -12.6820 C.3     1  UNL1        0.0500
      8  N         21.8650  -22.8090  -10.6910 N.am    1  UNL1       -0.3260
      9  C         22.8850  -22.1820   -9.9940 C.2     1  UNL1        0.2260
     10  O         22.7790  -21.1880   -9.2790 O.2     1  UNL1       -0.2730
     11  H         22.1550  -23.6250  -11.2220 H       1  UNL1        0.1690
     12  C         24.2440  -22.8240  -10.2280 C.3     1  UNL1        0.1440
     13  C         25.0890  -22.0740  -11.2330 C.2     1  UNL1       -0.0160
     14  C         25.6730  -20.8530  -10.8550 C.2     1  UNL1        0.0170
     15  C         26.4650  -20.1260  -11.7500 C.2     1  UNL1       -0.0610
     16  C         26.6980  -20.6480  -13.0240 C.2     1  UNL1        0.0090
     17  C         27.1090  -18.8410  -11.3230 C.3     1  UNL1        0.0480
     18  C         26.1340  -21.8680  -13.4080 C.2     1  UNL1        0.0380
     19  C         25.3270  -22.5850  -12.5220 C.2     1  UNL1        0.0740
     20  O         24.7650  -23.8070  -12.7970 O.2     1  UNL1       -0.3550
     21  C         25.1740  -24.4350  -14.0090 C.3     1  UNL1        0.2100
     22  S         17.0870  -23.3840   -8.7270 S.O2    1  UNL1        0.2630
     23  O         15.9480  -23.9110   -9.4480 O.2     1  UNL1       -0.2000
     24  O         17.8550  -24.2220   -7.8320 O.2     1  UNL1       -0.2000
     25  N         16.5910  -22.0440   -7.8200 N.pl3   1  UNL1       -0.2810
     26  H         17.0080  -21.1870   -8.1780 H       1  UNL1        0.1790
     27  C         16.4630  -22.1980   -6.4140 C.2     1  UNL1        0.0440
     28  C         15.2420  -22.6070   -5.8760 C.2     1  UNL1        0.0300
     29  C         15.0930  -22.7170   -4.4920 C.2     1  UNL1        0.0040
     30  C         16.1620  -22.4100   -3.6500 C.2     1  UNL1        0.0240
     31  C         17.3750  -21.9920   -4.1960 C.2     1  UNL1        0.0360
     32 CL         18.6900  -21.6070   -3.1560 Cl      1  UNL1       -0.0840
     33  C         17.5310  -21.8810   -5.5760 C.2     1  UNL1        0.0540
@<TRIPOS>BOND
     1    21    20    1
     2    18    16    2
     3    18    19    1
     4    16    15    1
     5    20    19    1
     6     7     6    1
     7    19    13    2
     8    15    17    1
     9    15    14    2
    10     5     6    1
    11     5     4    2
    12     6     1    2
    13    13    14    1
    14    13    12    1
    15    11     8    1
    16     4     3    1
    17     1     8    1
    18     1     2    1
    19     8     9   am
    20    12     9    1
    21     9    10    2
    22     3     2    2
    23     3    22    1
    24    23    22    2
    25    22    24    2
    26    22    25    1
    27    26    25    1
    28    25    27    1
    29    27    28    2
    30    27    33    1
    31    28    29    1
    32    33    31    2
    33    29    30    2
    34    31    30    1
    35    31    32    1
