@<TRIPOS>MOLECULE
28451_out_ligand_01.pdbqt
 36 39 0 0 0
SMALL
GASTEIGER

@<TRIPOS>ATOM
      1  C         17.5860  -23.5290   -8.5720 C.2     1  UNL1        0.0830
      2  C         18.9740  -23.7690   -8.5550 C.2     1  UNL1        0.0540
      3  C         19.7980  -23.2220   -9.5360 C.2     1  UNL1        0.0360
      4  C         19.2220  -22.4470  -10.5470 C.2     1  UNL1        0.0300
      5  C         17.8450  -22.2040  -10.5680 C.2     1  UNL1        0.0100
      6  C         17.0050  -22.7280   -9.5750 C.2     1  UNL1       -0.0390
      7  C         15.5320  -22.4380   -9.6660 C.3     1  UNL1        0.0500
      8  N         21.1950  -23.4030   -9.5920 N.am    1  UNL1       -0.3270
      9  C         22.1630  -22.8030   -8.8060 C.2     1  UNL1        0.2260
     10  O         21.9600  -21.9390   -7.9570 O.2     1  UNL1       -0.2730
     11  H         21.5230  -24.0610  -10.2880 H       1  UNL1        0.1690
     12  C         23.5920  -23.2310   -9.1260 C.3     1  UNL1        0.1410
     13  C         24.1470  -22.6920  -10.4240 C.2     1  UNL1       -0.0490
     14  C         23.8780  -23.3330  -11.6330 C.2     1  UNL1        0.0100
     15  C         24.3660  -22.8130  -12.8390 C.2     1  UNL1        0.0300
     16  C         25.1340  -21.6400  -12.8720 C.2     1  UNL1        0.0370
     17  C         25.3970  -21.0090  -11.6510 C.2     1  UNL1        0.0300
     18  C         24.9160  -21.5270  -10.4410 C.2     1  UNL1        0.0100
     19  N         25.6180  -21.1230  -14.1070 N.am    1  UNL1       -0.3180
     20  C         27.0100  -20.8090  -14.3300 C.3     1  UNL1        0.1330
     21  C         27.1200  -20.6480  -15.8300 C.3     1  UNL1        0.0290
     22  C         25.7620  -20.1120  -16.2280 C.3     1  UNL1        0.1050
     23  C         24.8370  -20.7240  -15.2070 C.2     1  UNL1        0.2240
     24  O         23.6270  -20.7820  -15.3650 O.2     1  UNL1       -0.2730
     25  S         16.5990  -24.3100   -7.3000 S.O2    1  UNL1        0.2460
     26  O         15.5410  -25.0590   -7.9420 O.2     1  UNL1       -0.2060
     27  O         17.4870  -24.9410   -6.3480 O.2     1  UNL1       -0.2060
     28  N         15.9720  -22.9370   -6.5070 N.pl3   1  UNL1       -0.1810
     29  H         15.8300  -22.2320   -7.2350 H       1  UNL1        0.1460
     30  C         16.8140  -22.3950   -5.4790 C.2     1  UNL1        0.0230
     31  C         16.5970  -22.6690   -4.1290 C.2     1  UNL1        0.0240
     32  C         17.4610  -22.1420   -3.1710 C.2     1  UNL1        0.0020
     33  C         18.5520  -21.3660   -3.5610 C.2     1  UNL1        0.0070
     34  C         18.7960  -21.1190   -4.9160 C.2     1  UNL1       -0.0600
     35  C         19.9570  -20.2780   -5.3470 C.3     1  UNL1        0.0480
     36  C         17.9150  -21.6400   -5.8720 C.2     1  UNL1        0.0310
@<TRIPOS>BOND
     1    22    21    1
     2    22    23    1
     3    21    20    1
     4    24    23    2
     5    23    19   am
     6    20    19    1
     7    19    16    1
     8    16    15    2
     9    16    17    1
    10    15    14    1
    11    17    18    2
    12    14    13    2
    13     5     4    2
    14     5     6    1
    15     4     3    1
    16    18    13    1
    17    13    12    1
    18    11     8    1
    19     7     6    1
    20     8     3    1
    21     8     9   am
    22     6     1    2
    23     3     2    2
    24    12     9    1
    25     9    10    2
    26     1     2    1
    27     1    25    1
    28    26    25    2
    29    25    28    1
    30    25    27    2
    31    29    28    1
    32    28    30    1
    33    36    30    2
    34    36    34    1
    35    30    31    1
    36    35    34    1
    37    34    33    2
    38    31    32    2
    39    33    32    1
