@<TRIPOS>MOLECULE
28465_out_ligand_01.pdbqt
 31 33 0 0 0
SMALL
GASTEIGER

@<TRIPOS>ATOM
      1  C         19.4710  -22.7310  -10.0150 C.2     1  UNL1        0.0420
      2  C         18.6480  -23.2800   -9.0260 C.2     1  UNL1        0.0550
      3  C         17.2890  -22.9500   -8.9760 C.2     1  UNL1        0.0820
      4  C         16.7290  -22.0660   -9.8940 C.2     1  UNL1        0.0260
      5  C         17.5430  -21.5060  -10.8760 C.2     1  UNL1        0.0100
      6  C         18.9110  -21.8280  -10.9480 C.2     1  UNL1       -0.0350
      7  C         19.7330  -21.1830  -12.0360 C.3     1  UNL1        0.0500
      8  N         20.8450  -23.0450  -10.1180 N.am    1  UNL1       -0.3260
      9  C         21.8710  -22.7240   -9.2440 C.2     1  UNL1        0.2260
     10  O         21.7430  -22.1470   -8.1650 O.2     1  UNL1       -0.2730
     11  H         21.1220  -23.5480  -10.9510 H       1  UNL1        0.1690
     12  C         23.2470  -23.2290   -9.6690 C.3     1  UNL1        0.1410
     13  C         23.9070  -22.4550  -10.7870 C.2     1  UNL1       -0.0490
     14  C         24.9950  -21.6120  -10.5260 C.2     1  UNL1        0.0080
     15  C         25.6250  -20.9260  -11.5670 C.2     1  UNL1        0.0070
     16  C         25.1850  -21.0780  -12.8860 C.2     1  UNL1       -0.0620
     17  C         25.8390  -20.3130  -13.9990 C.3     1  UNL1        0.0480
     18  C         24.0850  -21.9040  -13.1450 C.2     1  UNL1        0.0070
     19  C         23.4530  -22.5890  -12.1050 C.2     1  UNL1        0.0080
     20  S         16.2730  -23.6850   -7.7230 S.O2    1  UNL1        0.2630
     21  O         15.6360  -24.8660   -8.2710 O.2     1  UNL1       -0.2000
     22  O         15.4900  -22.6250   -7.1270 O.2     1  UNL1       -0.2000
     23  N         17.4020  -24.1620   -6.5580 N.pl3   1  UNL1       -0.2810
     24  H         18.1660  -24.6860   -6.9840 H       1  UNL1        0.1790
     25  C         17.7120  -23.2510   -5.5120 C.2     1  UNL1        0.0440
     26  C         17.4270  -23.5980   -4.1910 C.2     1  UNL1        0.0300
     27  C         17.7700  -22.7310   -3.1530 C.2     1  UNL1        0.0040
     28  C         18.4060  -21.5220   -3.4390 C.2     1  UNL1        0.0240
     29  C         18.6980  -21.1880   -4.7610 C.2     1  UNL1        0.0360
     30 CL         19.4890  -19.7000   -5.1120 Cl      1  UNL1       -0.0840
     31  C         18.3560  -22.0490   -5.8020 C.2     1  UNL1        0.0540
@<TRIPOS>BOND
     1    17    16    1
     2    18    16    2
     3    18    19    1
     4    16    15    1
     5    19    13    2
     6     7     6    1
     7    15    14    2
     8    11     8    1
     9     6     5    1
    10     6     1    2
    11     5     4    2
    12    13    14    1
    13    13    12    1
    14     8     1    1
    15     8     9   am
    16     1     2    1
    17     4     3    1
    18    12     9    1
    19     9    10    2
    20     2     3    2
    21     3    20    1
    22    21    20    2
    23    20    22    2
    24    20    23    1
    25    24    23    1
    26    23    25    1
    27    31    25    2
    28    31    29    1
    29    25    26    1
    30    30    29    1
    31    29    28    2
    32    26    27    2
    33    28    27    1
