@<TRIPOS>MOLECULE
2846_out_ligand_01.pdbqt
 34 37 0 0 0
SMALL
GASTEIGER

@<TRIPOS>ATOM
      1  C         20.1130  -22.6550   -9.6860 C.2     1  UNL1        0.0790
      2  C         20.9760  -22.8530   -8.5990 C.2     1  UNL1        0.0260
      3  C         22.3490  -22.6550   -8.7640 C.2     1  UNL1        0.0180
      4  C         22.8450  -22.2390  -10.0080 C.2     1  UNL1        0.0320
      5  C         21.9740  -22.0230  -11.0860 C.2     1  UNL1        0.0180
      6  C         20.6040  -22.2400  -10.9290 C.2     1  UNL1        0.0260
      7  C         24.2960  -22.0200  -10.2110 C.2     1  UNL1        0.2520
      8  O         24.7450  -20.8870  -10.3260 O.2     1  UNL1       -0.2680
      9  N         25.0500  -23.1650  -10.3220 N.am    1  UNL1       -0.3500
     10  H         24.5630  -24.0290  -10.5300 H       1  UNL1        0.1630
     11  C         26.4150  -23.0720  -10.7900 C.3     1  UNL1        0.2030
     12  C         26.4690  -23.6100  -12.1720 C.ar    1  UNL1        0.1480
     13  N         26.8190  -24.8350  -12.5040 N.ar    1  UNL1       -0.1330
     14  N         26.7620  -24.9420  -13.8670 N.ar    1  UNL1       -0.1350
     15  C         26.3760  -23.7820  -14.3620 C.ar    1  UNL1        0.1300
     16  N         26.2010  -22.9030  -13.3190 N.ar    1  UNL1       -0.3190
     17  C         26.1580  -23.5190  -15.8170 C.3     1  UNL1        0.0800
     18  C         25.8690  -21.4990  -13.4320 C.3     1  UNL1        0.1320
     19  C         24.4870  -21.2490  -14.0280 C.3     1  UNL1        0.0200
     20  C         24.2190  -21.8940  -15.3930 C.3     1  UNL1        0.0020
     21  C         25.4760  -22.2080  -16.2090 C.3     1  UNL1        0.0080
     22  S         18.3700  -22.9160   -9.4640 S.O2    1  UNL1        0.2630
     23  O         17.8270  -21.6840   -8.9350 O.2     1  UNL1       -0.2000
     24  O         17.8280  -23.5200  -10.6600 O.2     1  UNL1       -0.2000
     25  N         18.3120  -24.0310   -8.1970 N.pl3   1  UNL1       -0.2810
     26  H         19.2090  -24.5090   -8.1070 H       1  UNL1        0.1790
     27  C         17.6670  -23.6420   -6.9890 C.2     1  UNL1        0.0430
     28  C         16.3970  -24.1290   -6.7020 C.2     1  UNL1        0.0300
     29  C         15.7740  -23.7700   -5.5040 C.2     1  UNL1        0.0090
     30  C         16.4090  -22.9130   -4.5900 C.2     1  UNL1       -0.0560
     31  C         15.7160  -22.5700   -3.3000 C.3     1  UNL1        0.0490
     32  C         17.6830  -22.3940   -4.9020 C.2     1  UNL1       -0.0540
     33  C         18.3000  -22.7640   -6.1090 C.2     1  UNL1        0.0370
     34  C         18.3960  -21.4560   -3.9690 C.3     1  UNL1        0.0490
@<TRIPOS>BOND
     1    21    17    1
     2    21    20    1
     3    17    15    1
     4    20    19    1
     5    15    14   ar
     6    15    16   ar
     7    19    18    1
     8    14    13   ar
     9    18    16    1
    10    16    12   ar
    11    13    12   ar
    12    12    11    1
    13     5     6    1
    14     5     4    2
    15     6     1    2
    16    11     9    1
    17    24    22    2
    18    10     9    1
    19     8     7    2
    20     9     7   am
    21     7     4    1
    22     4     3    1
    23     1    22    1
    24     1     2    1
    25    22    23    2
    26    22    25    1
    27     3     2    2
    28    25    26    1
    29    25    27    1
    30    27    28    2
    31    27    33    1
    32    28    29    1
    33    33    32    2
    34    29    30    2
    35    32    30    1
    36    32    34    1
    37    30    31    1
