@<TRIPOS>MOLECULE
2847_out_ligand_01.pdbqt
 33 36 0 0 0
SMALL
GASTEIGER

@<TRIPOS>ATOM
      1  C         20.3000  -22.5910  -10.1760 C.2     1  UNL1        0.0330
      2  C         19.6880  -21.7610  -11.1490 C.2     1  UNL1        0.0180
      3  C         20.4210  -21.2680  -12.2360 C.2     1  UNL1        0.0190
      4  C         21.7500  -21.6300  -12.3200 C.2     1  UNL1        0.0480
      5  C         22.3480  -22.4520  -11.3810 C.2     1  UNL1        0.0490
      6  C         21.6520  -22.9540  -10.2990 C.2     1  UNL1        0.0350
      7  C         23.7420  -22.6340  -11.7800 C.2     1  UNL1        0.2620
      8  O         24.5480  -23.3090  -11.1680 O.2     1  UNL1       -0.2670
      9  N         23.9140  -21.9120  -12.9290 N.am    1  UNL1       -0.2740
     10  C         22.7610  -21.2940  -13.3230 C.2     1  UNL1        0.2620
     11  O         22.5390  -20.6100  -14.3020 O.2     1  UNL1       -0.2670
     12  C         19.5330  -23.1380   -9.0170 C.2     1  UNL1        0.2560
     13  N         18.6950  -22.2300   -8.4030 N.am    1  UNL1       -0.3160
     14  H         18.7190  -21.2590   -8.7090 H       1  UNL1        0.1690
     15  O         19.7330  -24.3070   -8.7140 O.2     1  UNL1       -0.2670
     16  C         17.8770  -22.4430   -7.3000 C.ar    1  UNL1        0.0930
     17  S         16.4270  -23.2990   -7.4220 S.2     1  UNL1       -0.0760
     18  C         16.1190  -23.1820   -5.7510 C.ar    1  UNL1       -0.0120
     19  C         14.8930  -23.8280   -5.1900 C.3     1  UNL1        0.0570
     20  C         17.1170  -22.4850   -5.0810 C.ar    1  UNL1       -0.0310
     21  C         18.1210  -21.9830   -6.0100 C.ar    1  UNL1        0.0720
     22  C         17.1370  -22.3120   -3.5920 C.3     1  UNL1        0.0500
     23  C         19.2870  -21.1390   -5.7310 C.2     1  UNL1        0.2520
     24  N         19.1070  -20.1020   -4.8630 N.am    1  UNL1       -0.3660
     25  H         18.1790  -19.7540   -4.6720 H       1  UNL1        0.1590
     26  H         19.8670  -19.4370   -4.8120 H       1  UNL1        0.1590
     27  O         20.3670  -21.2770   -6.3040 O.2     1  UNL1       -0.2680
     28  C         25.1720  -21.8050  -13.6320 C.3     1  UNL1        0.2000
     29  C         25.9480  -20.6660  -13.0760 C.2     1  UNL1        0.0700
     30  C         26.3350  -20.3180  -11.7970 C.2     1  UNL1        0.0360
     31  C         27.0590  -19.1070  -11.9150 C.2     1  UNL1        0.0270
     32  C         27.0710  -18.7950  -13.2530 C.2     1  UNL1        0.1420
     33  O         26.3990  -19.7360  -13.9660 O.2     1  UNL1       -0.3250
@<TRIPOS>BOND
     1    11    10    2
     2    33    32    1
     3    33    29    1
     4    28    29    1
     5    28     9    1
     6    10     9   am
     7    10     4    1
     8    32    31    2
     9    29    30    2
    10     9     7   am
    11     4     3    2
    12     4     5    1
    13     3     2    1
    14    31    30    1
    15     7     5    1
    16     7     8    2
    17     5     6    2
    18     2     1    2
    19     6     1    1
    20     1    12    1
    21    12    15    2
    22    12    13   am
    23    14    13    1
    24    13    16    1
    25    17    16   ar
    26    17    18   ar
    27    16    21   ar
    28    27    23    2
    29    21    23    1
    30    21    20   ar
    31    18    19    1
    32    18    20   ar
    33    23    24   am
    34    20    22    1
    35    24    26    1
    36    24    25    1
