@<TRIPOS>MOLECULE
28487_out_ligand_01.pdbqt
 37 40 0 0 0
SMALL
GASTEIGER

@<TRIPOS>ATOM
      1  C         19.8620  -22.8280   -9.9100 C.2     1  UNL1        0.0330
      2  C         19.0330  -22.0890  -10.7610 C.2     1  UNL1        0.0290
      3  C         19.5570  -21.3570  -11.8340 C.2     1  UNL1        0.0040
      4  C         20.9290  -21.3350  -12.0680 C.2     1  UNL1        0.0250
      5  C         21.7700  -22.0390  -11.2080 C.2     1  UNL1        0.0820
      6  C         21.2460  -22.7820  -10.1450 C.2     1  UNL1        0.0540
      7  N         19.4010  -23.5520   -8.7950 N.pl3   1  UNL1       -0.3650
      8  H         20.1150  -24.1360   -8.3700 H       1  UNL1        0.1650
      9  C         18.1080  -23.8470   -8.4240 C.2     1  UNL1        0.1060
     10  C         17.4180  -23.4980   -7.3170 C.2     1  UNL1        0.0590
     11  C         17.8900  -22.6200   -6.2260 C.2     1  UNL1       -0.0030
     12  C         16.1040  -24.2050   -7.1530 C.2     1  UNL1        0.2600
     13  C         18.8250  -21.5870   -6.4050 C.2     1  UNL1        0.0130
     14  C         17.3350  -22.7850   -4.9470 C.2     1  UNL1        0.0430
     15  C         19.2660  -20.8190   -5.3210 C.2     1  UNL1        0.0010
     16  C         18.7550  -21.0490   -4.0440 C.2     1  UNL1        0.0010
     17  C         17.7780  -22.0220   -3.8560 C.2     1  UNL1        0.0180
     18  C         16.2090  -23.7240   -4.7420 C.2     1  UNL1        0.2590
     19  N         15.6070  -24.2210   -5.8730 N.am    1  UNL1       -0.2890
     20  O         15.8170  -24.0250   -3.6180 O.2     1  UNL1       -0.2670
     21  H         14.8010  -24.8120   -5.7200 H       1  UNL1        0.1720
     22  O         15.5220  -24.7840   -8.0650 O.2     1  UNL1       -0.2670
     23  S         23.5210  -22.0300  -11.5020 S.O2    1  UNL1        0.2630
     24  O         24.1620  -21.3130  -10.4170 O.2     1  UNL1       -0.2000
     25  O         23.9020  -23.3900  -11.8310 O.2     1  UNL1       -0.2000
     26  N         23.6780  -21.1500  -12.9220 N.pl3   1  UNL1       -0.2810
     27  H         23.0960  -20.3080  -12.9260 H       1  UNL1        0.1790
     28  C         24.7700  -21.2440  -13.8280 C.2     1  UNL1        0.0430
     29  C         26.0840  -20.9390  -13.4970 C.2     1  UNL1        0.0300
     30  C         27.1110  -21.1160  -14.4320 C.2     1  UNL1        0.0030
     31  C         26.8320  -21.6360  -15.6980 C.2     1  UNL1        0.0160
     32  C         25.5250  -21.9900  -16.0340 C.2     1  UNL1        0.0500
     33  C         24.5010  -21.7830  -15.0910 C.2     1  UNL1        0.0460
     34  C         25.2000  -22.5780  -17.3860 C.3     1  UNL1        0.4170
     35  F         24.5110  -23.7510  -17.3200 F       1  UNL1       -0.1660
     36  F         24.4360  -21.7430  -18.1490 F       1  UNL1       -0.1660
     37  F         26.3190  -22.8380  -18.1200 F       1  UNL1       -0.1660
@<TRIPOS>BOND
     1    36    34    1
     2    37    34    1
     3    34    35    1
     4    34    32    1
     5    32    31    2
     6    32    33    1
     7    31    30    1
     8    33    28    2
     9    30    29    2
    10    28    29    1
    11    28    26    1
    12    27    26    1
    13    26    23    1
    14     4     3    2
    15     4     5    1
    16     3     2    1
    17    25    23    2
    18    23     5    1
    19    23    24    2
    20     5     6    2
    21     2     1    2
    22     6     1    1
    23     1     7    1
    24     7     9    1
    25     7     8    1
    26     9    10    2
    27    22    12    2
    28    10    12    1
    29    10    11    1
    30    12    19   am
    31    13    11    2
    32    13    15    1
    33    11    14    1
    34    19    21    1
    35    19    18   am
    36    15    16    2
    37    14    18    1
    38    14    17    2
    39    18    20    2
    40    16    17    1
