@<TRIPOS>MOLECULE
28486_out_ligand_01.pdbqt
 35 38 0 0 0
SMALL
GASTEIGER

@<TRIPOS>ATOM
      1  C         16.8360  -20.9780  -11.0200 C.3     1  UNL1        0.0500
      2  C         18.2530  -21.4730  -10.9740 C.2     1  UNL1       -0.0390
      3  C         19.1730  -20.9280  -11.8830 C.2     1  UNL1        0.0100
      4  C         20.5160  -21.3290  -11.8970 C.2     1  UNL1        0.0300
      5  C         20.9730  -22.3020  -11.0120 C.2     1  UNL1        0.0360
      6  C         20.0660  -22.8670  -10.1140 C.2     1  UNL1        0.0540
      7  C         18.7220  -22.4450  -10.0740 C.2     1  UNL1        0.0830
      8  N         22.3070  -22.7530  -10.9540 N.am    1  UNL1       -0.3270
      9  C         23.3620  -22.1710  -10.2640 C.2     1  UNL1        0.2270
     10  O         23.3110  -21.1430   -9.5920 O.2     1  UNL1       -0.2730
     11  H         22.5080  -23.6110  -11.4640 H       1  UNL1        0.1690
     12  C         24.6560  -22.9580  -10.3740 C.3     1  UNL1        0.1630
     13  C         25.3880  -22.6180  -11.6250 C.2     1  UNL1        0.0520
     14  C         26.6870  -22.1610  -11.7180 C.2     1  UNL1        0.0810
     15  S         27.1160  -21.9480  -13.3580 S.3     1  UNL1       -0.0620
     16  C         25.5650  -22.4890  -13.8350 C.2     1  UNL1        0.1750
     17  N         24.7490  -22.7960  -12.8450 N.2     1  UNL1       -0.2280
     18  N         25.1900  -22.5800  -15.1620 N.am    1  UNL1       -0.2960
     19  C         24.7270  -21.4430  -15.9180 C.3     1  UNL1        0.1350
     20  C         24.7910  -21.9100  -17.3560 C.3     1  UNL1        0.0290
     21  C         24.4940  -23.3950  -17.2510 C.3     1  UNL1        0.1050
     22  C         25.0450  -23.7650  -15.8900 C.2     1  UNL1        0.2250
     23  O         25.2440  -24.9230  -15.5550 O.2     1  UNL1       -0.2730
     24  S         17.7070  -23.2020   -8.8140 S.O2    1  UNL1        0.2460
     25  O         18.5720  -24.0780   -8.0520 O.2     1  UNL1       -0.2060
     26  O         16.4650  -23.6860   -9.3670 O.2     1  UNL1       -0.2060
     27  N         17.3840  -21.8840   -7.7880 N.pl3   1  UNL1       -0.1780
     28  H         18.2230  -21.2990   -7.7490 H       1  UNL1        0.1460
     29  C         16.8050  -22.1840   -6.5150 C.2     1  UNL1        0.0610
     30  C         15.4560  -22.5230   -6.4110 C.2     1  UNL1        0.0270
     31  C         14.9150  -22.8350   -5.1620 C.2     1  UNL1        0.0020
     32  C         15.7220  -22.8180   -4.0200 C.2     1  UNL1        0.0030
     33  C         17.0760  -22.4940   -4.1260 C.2     1  UNL1        0.0440
     34  C         17.6080  -22.1840   -5.3720 C.2     1  UNL1        0.1380
     35  F         18.9050  -21.8530   -5.4660 F       1  UNL1       -0.2040
@<TRIPOS>BOND
     1    20    21    1
     2    20    19    1
     3    21    22    1
     4    19    18    1
     5    22    23    2
     6    22    18   am
     7    18    16    1
     8    16    15    1
     9    16    17    2
    10    15    14    1
    11    17    13    1
    12     4     3    1
    13     4     5    2
    14     3     2    2
    15    14    13    2
    16    13    12    1
    17    11     8    1
    18     1     2    1
    19     5     8    1
    20     5     6    1
    21     2     7    1
    22     8     9   am
    23    12     9    1
    24     9    10    2
    25     6     7    2
    26     7    24    1
    27    26    24    2
    28    24    25    2
    29    24    27    1
    30    27    28    1
    31    27    29    1
    32    29    30    2
    33    29    34    1
    34    30    31    1
    35    35    34    1
    36    34    33    2
    37    31    32    2
    38    33    32    1
