@<TRIPOS>MOLECULE
28483_out_ligand_01.pdbqt
 34 37 0 0 0
SMALL
GASTEIGER

@<TRIPOS>ATOM
      1  C         19.6710  -22.8890   -9.2220 C.2     1  UNL1        0.0320
      2  C         20.6690  -23.6910   -8.6530 C.2     1  UNL1        0.0190
      3  C         21.9060  -23.8290   -9.2870 C.2     1  UNL1        0.0310
      4  C         22.1520  -23.1480  -10.4790 C.2     1  UNL1        0.0420
      5  C         21.1690  -22.3350  -11.0440 C.2     1  UNL1        0.0310
      6  C         19.9290  -22.1980  -10.4140 C.2     1  UNL1        0.0190
      7  N         23.3910  -23.3290  -11.1480 N.pl3   1  UNL1       -0.2810
      8  H         23.7610  -24.2780  -11.2040 H       1  UNL1        0.1790
      9  S         24.6300  -22.2250  -10.8220 S.O2    1  UNL1        0.2630
     10  O         24.1470  -21.2150   -9.9060 O.2     1  UNL1       -0.2000
     11  O         25.8020  -23.0170  -10.5130 O.2     1  UNL1       -0.2000
     12  C         24.9040  -21.4780  -12.4100 C.2     1  UNL1        0.0820
     13  C         25.7810  -20.3680  -12.5150 C.2     1  UNL1        0.0280
     14  C         26.0210  -19.7640  -13.7540 C.2     1  UNL1        0.0330
     15  C         25.3760  -20.3100  -14.8400 C.ar    1  UNL1        0.0630
     16  N         25.4200  -19.9340  -16.1780 N.ar    1  UNL1       -0.3070
     17  C         24.5260  -21.4110  -14.7310 C.ar    1  UNL1        0.0640
     18  C         24.5990  -20.7990  -16.9170 C.ar    1  UNL1        0.3250
     19  H         25.9460  -19.1800  -16.5870 H       1  UNL1        0.1700
     20  O         24.4010  -20.7650  -18.1170 O.2     1  UNL1       -0.2470
     21  N         24.0490  -21.7090  -16.0020 N.ar    1  UNL1       -0.3060
     22  H         23.4200  -22.4520  -16.2640 H       1  UNL1        0.1700
     23  C         24.2670  -22.0250  -13.5310 C.2     1  UNL1        0.0570
     24  C         18.3630  -22.7750   -8.5170 C.2     1  UNL1        0.2560
     25  N         18.4130  -23.0480   -7.1620 N.am    1  UNL1       -0.3220
     26  H         19.3320  -23.1800   -6.7650 H       1  UNL1        0.1690
     27  O         17.3890  -22.4220   -9.1700 O.2     1  UNL1       -0.2670
     28  C         17.3380  -23.0690   -6.2400 C.2     1  UNL1        0.0410
     29  C         16.2110  -23.8790   -6.4230 C.2     1  UNL1        0.0300
     30  C         15.1690  -23.8860   -5.4930 C.2     1  UNL1        0.0020
     31  C         15.2400  -23.0820   -4.3620 C.2     1  UNL1        0.0010
     32  C         16.3550  -22.2730   -4.1600 C.2     1  UNL1        0.0090
     33  C         17.4130  -22.2560   -5.0870 C.2     1  UNL1       -0.0350
     34  C         18.5880  -21.3570   -4.8060 C.3     1  UNL1        0.0500
@<TRIPOS>BOND
     1    20    18    2
     2    18    16   ar
     3    18    21   ar
     4    19    16    1
     5    22    21    1
     6    16    15   ar
     7    21    17   ar
     8    15    17   ar
     9    15    14    1
    10    17    23    1
    11    14    13    2
    12    23    12    2
    13    13    12    1
    14    12     9    1
    15     8     7    1
    16     7     9    1
    17     7     4    1
    18     5     4    2
    19     5     6    1
    20     9    11    2
    21     9    10    2
    22     4     3    1
    23     6     1    2
    24     3     2    2
    25     1     2    1
    26     1    24    1
    27    27    24    2
    28    24    25   am
    29    25    26    1
    30    25    28    1
    31    29    28    2
    32    29    30    1
    33    28    33    1
    34    30    31    2
    35    33    34    1
    36    33    32    2
    37    31    32    1
