@<TRIPOS>MOLECULE
2848_out_ligand_01.pdbqt
 30 34 0 0 0
SMALL
GASTEIGER

@<TRIPOS>ATOM
      1  C         17.3210  -21.7480  -10.8050 C.ar    1  UNL1        0.2310
      2  N         17.3580  -20.6470  -11.5260 N.ar    1  UNL1       -0.1140
      3  N         18.6830  -20.3900  -11.7940 N.ar    1  UNL1       -0.1230
      4  C         19.3740  -21.3600  -11.2300 C.ar    1  UNL1        0.2010
      5  O         18.5680  -22.2620  -10.5790 O.2     1  UNL1       -0.2650
      6  S         15.8710  -22.4640  -10.1790 S.3     1  UNL1       -0.0750
      7  C         16.5620  -23.8330   -9.2070 C.3     1  UNL1        0.1610
      8  C         16.5930  -23.4660   -7.7360 C.ar    1  UNL1        0.1170
      9  N         15.5510  -23.9150   -6.9690 N.ar    1  UNL1       -0.3100
     10  C         15.4240  -23.6300   -5.6340 C.ar    1  UNL1        0.2590
     11  H         14.7590  -24.3940   -7.3870 H       1  UNL1        0.1700
     12  C         16.5250  -22.8520   -5.0400 C.ar    1  UNL1        0.0610
     13  O         14.4530  -23.9850   -4.9770 O.2     1  UNL1       -0.2670
     14  C         16.5110  -22.5150   -3.6830 C.2     1  UNL1        0.0190
     15  C         17.5660  -22.4510   -5.8850 C.ar    1  UNL1        0.0800
     16  C         17.5550  -21.7640   -3.1530 C.2     1  UNL1        0.0020
     17  C         18.6060  -21.3580   -3.9770 C.2     1  UNL1        0.0090
     18  C         18.6250  -21.7030   -5.3400 C.2     1  UNL1       -0.0320
     19  C         19.7590  -21.2360   -6.2090 C.3     1  UNL1        0.0500
     20  N         17.5720  -22.7670   -7.2570 N.ar    1  UNL1       -0.2330
     21  C         20.8490  -21.5700  -11.1960 C.3     1  UNL1        0.2310
     22  C         21.2520  -22.9340  -10.6410 C.3     1  UNL1        0.2170
     23  O         22.6800  -23.0530  -10.5640 O.2     1  UNL1       -0.3450
     24  C         23.2800  -22.6140  -11.7170 C.2     1  UNL1        0.1020
     25  C         24.6170  -22.9600  -11.8990 C.2     1  UNL1        0.0390
     26  C         22.6170  -21.8490  -12.6820 C.2     1  UNL1        0.1030
     27  C         25.2830  -22.5710  -13.0620 C.2     1  UNL1        0.0030
     28  C         24.6140  -21.8320  -14.0390 C.2     1  UNL1        0.0030
     29  C         23.2780  -21.4700  -13.8490 C.2     1  UNL1        0.0400
     30  O         21.3150  -21.4400  -12.5520 O.2     1  UNL1       -0.3330
@<TRIPOS>BOND
     1    28    29    2
     2    28    27    1
     3    29    26    1
     4    27    25    2
     5    26    30    1
     6    26    24    2
     7    30    21    1
     8    25    24    1
     9     3     2   ar
    10     3     4   ar
    11    24    23    1
    12     2     1   ar
    13     4    21    1
    14     4     5   ar
    15    21    22    1
    16     1     5   ar
    17     1     6    1
    18    22    23    1
    19     6     7    1
    20     7     8    1
    21     8    20   ar
    22     8     9   ar
    23    11     9    1
    24    20    15   ar
    25     9    10   ar
    26    19    18    1
    27    15    18    1
    28    15    12   ar
    29    10    12   ar
    30    10    13    2
    31    18    17    2
    32    12    14    1
    33    17    16    1
    34    14    16    2
