@<TRIPOS>MOLECULE
2849_out_ligand_01.pdbqt
 30 34 0 0 0
SMALL
GASTEIGER

@<TRIPOS>ATOM
      1  C         21.3410  -22.0470  -11.6280 C.2     1  UNL1       -0.0020
      2  C         21.8730  -21.5130  -12.7890 C.2     1  UNL1        0.0650
      3  S         23.5820  -21.6810  -12.8590 S.3     1  UNL1       -0.0800
      4  C         23.6200  -22.4930  -11.3580 C.2     1  UNL1        0.1140
      5  N         24.7920  -22.9160  -10.8430 N.2     1  UNL1       -0.2340
      6  C         24.6370  -23.5490   -9.6750 C.2     1  UNL1        0.2370
      7  N         23.4900  -23.7780   -9.0120 N.2     1  UNL1       -0.2170
      8  C         22.3410  -23.3150   -9.5590 C.2     1  UNL1        0.1850
      9  C         22.3600  -22.6410  -10.7900 C.2     1  UNL1        0.0650
     10  O         21.1280  -23.5890   -8.9340 O.2     1  UNL1       -0.2910
     11  C         20.7470  -22.7640   -7.8970 C.2     1  UNL1        0.0850
     12  C         21.4790  -21.6110   -7.5560 C.2     1  UNL1        0.0380
     13  C         21.0170  -20.7620   -6.5540 C.2     1  UNL1        0.0030
     14  C         19.8220  -21.0670   -5.8910 C.2     1  UNL1        0.0100
     15  C         19.0780  -22.2260   -6.2190 C.2     1  UNL1       -0.0210
     16  C         19.5220  -23.0650   -7.2600 C.2     1  UNL1       -0.0150
     17  C         17.8110  -22.5380   -5.4640 C.3     1  UNL1        0.1510
     18  C         18.7070  -24.2520   -7.7150 C.3     1  UNL1        0.0420
     19  C         17.4940  -24.6170   -6.8440 C.3     1  UNL1        0.0070
     20  C         17.5570  -24.0460   -5.4360 C.3     1  UNL1        0.0370
     21  O         16.7470  -21.8410   -6.0970 O.3     1  UNL1       -0.3910
     22  H         15.9160  -22.2250   -5.7760 H       1  UNL1        0.2100
     23  C         19.9110  -21.9700  -11.3620 C.2     1  UNL1       -0.0240
     24  C         19.1930  -23.1150  -10.9970 C.2     1  UNL1        0.0150
     25  C         17.8390  -23.0150  -10.6720 C.2     1  UNL1        0.0370
     26  C         17.1850  -21.7810  -10.7090 C.2     1  UNL1        0.0680
     27  C         17.8930  -20.6430  -11.1010 C.2     1  UNL1        0.0370
     28  C         19.2460  -20.7370  -11.4340 C.2     1  UNL1        0.0150
     29  O         15.8650  -21.8190  -10.3310 O.2     1  UNL1       -0.3560
     30  C         15.4820  -22.9130   -9.5070 C.3     1  UNL1        0.2100
@<TRIPOS>BOND
     1     3     2    1
     2     3     4    1
     3     2     1    2
     4     1    23    1
     5     1     9    1
     6    28    23    2
     7    28    27    1
     8    23    24    1
     9     4     5    1
    10     4     9    2
    11    27    26    2
    12    24    25    2
    13     5     6    2
    14     9     8    1
    15    26    25    1
    16    26    29    1
    17    29    30    1
    18     6     7    1
    19     8     7    2
    20     8    10    1
    21    10    11    1
    22    11    12    2
    23    11    16    1
    24    18    16    1
    25    18    19    1
    26    12    13    1
    27    16    15    2
    28    19    20    1
    29    13    14    2
    30    15    14    1
    31    15    17    1
    32    21    22    1
    33    21    17    1
    34    17    20    1
