@<TRIPOS>MOLECULE
28495_out_ligand_01.pdbqt
 35 38 0 0 0
SMALL
GASTEIGER

@<TRIPOS>ATOM
      1  C         19.6030  -22.5540  -10.4510 C.2     1  UNL1        0.0360
      2  C         19.0110  -21.6950  -11.3900 C.2     1  UNL1        0.0290
      3  C         17.6810  -21.2850  -11.2530 C.2     1  UNL1        0.0040
      4  C         16.9220  -21.7320  -10.1760 C.2     1  UNL1        0.0250
      5  C         17.5090  -22.5880   -9.2410 C.2     1  UNL1        0.0820
      6  C         18.8400  -23.0050   -9.3750 C.2     1  UNL1        0.0540
      7  N         20.9440  -22.9230  -10.6730 N.am    1  UNL1       -0.3270
      8  C         22.0710  -22.4450  -10.0250 C.2     1  UNL1        0.2260
      9  O         22.1010  -21.5420   -9.1940 O.2     1  UNL1       -0.2730
     10  H         21.0960  -23.6330  -11.3800 H       1  UNL1        0.1690
     11  C         23.3670  -23.1010  -10.4910 C.3     1  UNL1        0.1410
     12  C         23.7770  -22.7450  -11.9010 C.2     1  UNL1       -0.0490
     13  C         23.0820  -21.7720  -12.6240 C.2     1  UNL1        0.0100
     14  C         23.4740  -21.4380  -13.9280 C.2     1  UNL1        0.0300
     15  C         24.5600  -22.0720  -14.5520 C.2     1  UNL1        0.0370
     16  C         25.2370  -23.0560  -13.8190 C.2     1  UNL1        0.0300
     17  C         24.8520  -23.3910  -12.5140 C.2     1  UNL1        0.0100
     18  N         24.9420  -21.7250  -15.8760 N.am    1  UNL1       -0.3180
     19  C         25.4850  -20.4310  -16.2190 C.3     1  UNL1        0.1330
     20  C         25.3850  -20.3700  -17.7290 C.3     1  UNL1        0.0290
     21  C         25.5570  -21.8150  -18.1490 C.3     1  UNL1        0.1050
     22  C         24.9800  -22.5870  -16.9860 C.2     1  UNL1        0.2240
     23  O         24.6720  -23.7660  -17.0640 O.2     1  UNL1       -0.2730
     24  S         16.5550  -23.2090   -7.8820 S.O2    1  UNL1        0.2630
     25  O         15.8980  -24.4110   -8.3520 O.2     1  UNL1       -0.2000
     26  O         15.7910  -22.1220   -7.3050 O.2     1  UNL1       -0.2000
     27  N         17.7260  -23.7260   -6.7800 N.pl3   1  UNL1       -0.2780
     28  H         17.6960  -24.7370   -6.6750 H       1  UNL1        0.1790
     29  C         17.9410  -22.9410   -5.6060 C.2     1  UNL1        0.0810
     30  C         17.3440  -23.3510   -4.4120 C.2     1  UNL1        0.0330
     31  C         17.5000  -22.5870   -3.2530 C.2     1  UNL1        0.0020
     32  C         18.2520  -21.4100   -3.2820 C.2     1  UNL1        0.0030
     33  C         18.8470  -20.9970   -4.4720 C.2     1  UNL1        0.0440
     34  C         18.6860  -21.7590   -5.6270 C.2     1  UNL1        0.1430
     35  F         19.2900  -21.3480   -6.7500 F       1  UNL1       -0.2040
@<TRIPOS>BOND
     1    21    20    1
     2    21    22    1
     3    20    19    1
     4    23    22    2
     5    22    18   am
     6    19    18    1
     7    18    15    1
     8    15    14    2
     9    15    16    1
    10    14    13    1
    11    16    17    2
    12    13    12    2
    13    17    12    1
    14    12    11    1
    15     2     3    1
    16     2     1    2
    17    10     7    1
    18     3     4    2
    19     7     1    1
    20     7     8   am
    21    11     8    1
    22     1     6    1
    23     4     5    1
    24     8     9    2
    25     6     5    2
    26     5    24    1
    27    25    24    2
    28    24    26    2
    29    24    27    1
    30    27    28    1
    31    27    29    1
    32    35    34    1
    33    34    29    2
    34    34    33    1
    35    29    30    1
    36    33    32    2
    37    30    31    2
    38    32    31    1
