@<TRIPOS>MOLECULE
284_out_ligand_01.pdbqt
 35 37 0 0 0
SMALL
GASTEIGER

@<TRIPOS>ATOM
      1  C         23.7000  -21.8920  -11.2420 C.2     1  UNL1        0.0790
      2  C         23.0270  -21.6010  -10.0490 C.2     1  UNL1        0.0260
      3  C         21.6500  -21.3860  -10.0750 C.2     1  UNL1        0.0180
      4  C         20.9540  -21.4950  -11.2850 C.2     1  UNL1        0.0320
      5  C         21.6290  -21.7710  -12.4790 C.2     1  UNL1        0.0180
      6  C         23.0080  -21.9840  -12.4560 C.2     1  UNL1        0.0260
      7  C         19.4920  -21.2820  -11.3260 C.2     1  UNL1        0.2530
      8  O         19.0870  -20.3000  -11.9420 O.2     1  UNL1       -0.2670
      9  N         18.6660  -22.2070  -10.6920 N.am    1  UNL1       -0.3440
     10  C         17.2510  -21.9010  -10.5580 C.3     1  UNL1        0.1530
     11  C         19.1270  -23.4630  -10.0880 C.3     1  UNL1        0.2280
     12  C         19.3490  -23.3950   -8.5640 C.2     1  UNL1        0.2400
     13  O         20.2890  -23.9660   -8.0190 O.2     1  UNL1       -0.2710
     14  N         18.3760  -22.6230   -7.9410 N.am    1  UNL1       -0.3250
     15  H         17.6570  -22.2460   -8.5420 H       1  UNL1        0.1690
     16  C         18.2420  -22.3310   -6.5590 C.2     1  UNL1        0.0410
     17  C         19.0020  -21.3340   -5.9370 C.2     1  UNL1        0.0300
     18  C         18.8640  -21.0700   -4.5760 C.2     1  UNL1        0.0030
     19  C         17.9660  -21.8030   -3.8110 C.2     1  UNL1        0.0070
     20  C         17.1870  -22.8110   -4.3960 C.2     1  UNL1       -0.0540
     21  C         16.2310  -23.5650   -3.5090 C.3     1  UNL1        0.0490
     22  C         17.3080  -23.0740   -5.7850 C.2     1  UNL1       -0.0290
     23  C         16.4640  -24.1500   -6.4310 C.3     1  UNL1        0.0510
     24  S         25.4570  -22.1890  -11.2010 S.O2    1  UNL1        0.2630
     25  O         26.0780  -20.9960  -10.6650 O.2     1  UNL1       -0.2000
     26  O         25.6760  -23.4830  -10.5910 O.2     1  UNL1       -0.2000
     27  N         25.8740  -22.2500  -12.8370 N.pl3   1  UNL1       -0.2810
     28  H         26.4760  -23.0430  -13.0500 H       1  UNL1        0.1790
     29  C         26.1140  -21.0340  -13.5340 C.2     1  UNL1        0.0420
     30  C         26.9150  -20.0580  -12.9430 C.2     1  UNL1        0.0300
     31  C         27.1210  -18.8370  -13.5920 C.2     1  UNL1        0.0090
     32  C         26.5260  -18.5840  -14.8320 C.2     1  UNL1       -0.0620
     33  C         26.7550  -17.2840  -15.5450 C.3     1  UNL1        0.0480
     34  C         25.7360  -19.5780  -15.4230 C.2     1  UNL1        0.0090
     35  C         25.5260  -20.7960  -14.7730 C.2     1  UNL1        0.0300
@<TRIPOS>BOND
     1    33    32    1
     2    34    32    2
     3    34    35    1
     4    32    31    1
     5    35    29    2
     6    31    30    2
     7    29    30    1
     8    29    27    1
     9    28    27    1
    10    27    24    1
    11     5     6    1
    12     5     4    2
    13     6     1    2
    14     8     7    2
    15     7     4    1
    16     7     9   am
    17     4     3    1
    18     1    24    1
    19     1     2    1
    20    24    25    2
    21    24    26    2
    22     9    10    1
    23     9    11    1
    24    11    12    1
    25     3     2    2
    26    12    13    2
    27    12    14   am
    28    15    14    1
    29    14    16    1
    30    16    17    2
    31    16    22    1
    32    23    22    1
    33    17    18    1
    34    22    20    2
    35    18    19    2
    36    20    19    1
    37    20    21    1
