@<TRIPOS>MOLECULE
28510_out_ligand_01.pdbqt
 36 39 0 0 0
SMALL
GASTEIGER

@<TRIPOS>ATOM
      1  C         17.9030  -22.4530   -4.3510 C.2     1  UNL1        0.0230
      2  C         18.1520  -21.2030   -3.7790 C.2     1  UNL1        0.0240
      3  C         19.0240  -20.3020   -4.3940 C.2     1  UNL1        0.0030
      4  C         19.6930  -20.6620   -5.5640 C.2     1  UNL1        0.0170
      5  C         19.5080  -21.9390   -6.1060 C.2     1  UNL1        0.0330
      6  C         18.6090  -22.8280   -5.4950 C.2     1  UNL1        0.0410
      7  C         20.2330  -22.4040   -7.3240 C.2     1  UNL1        0.2510
      8  O         21.3550  -21.9730   -7.5690 O.2     1  UNL1       -0.2680
      9  N         19.5620  -23.2850   -8.1420 N.am    1  UNL1       -0.3530
     10  H         18.5850  -23.4810   -7.9800 H       1  UNL1        0.1630
     11  C         20.1120  -23.7250   -9.4090 C.3     1  UNL1        0.1620
     12  C         20.1420  -22.6610  -10.4900 C.2     1  UNL1       -0.0330
     13  C         18.9570  -21.9780  -10.8450 C.2     1  UNL1        0.0090
     14  C         18.9410  -21.0100  -11.8510 C.2     1  UNL1        0.0010
     15  C         20.1090  -20.7050  -12.5320 C.2     1  UNL1        0.0010
     16  C         21.2870  -21.3740  -12.2120 C.2     1  UNL1        0.0090
     17  C         21.3290  -22.3670  -11.2060 C.2     1  UNL1       -0.0330
     18  C         22.6740  -23.0410  -10.9590 C.3     1  UNL1        0.1560
     19  N         23.8770  -22.3910  -11.4830 N.3     1  UNL1       -0.4040
     20  C         24.5680  -21.5040  -10.5410 C.3     1  UNL1        0.1430
     21  C         26.0230  -21.2240  -10.9580 C.3     1  UNL1        0.1870
     22  O         26.8120  -22.4190  -11.0410 O.3     1  UNL1       -0.3880
     23  C         26.0800  -23.5540  -11.5280 C.3     1  UNL1        0.1870
     24  C         24.8030  -23.1850  -12.2980 C.3     1  UNL1        0.1430
     25  N         17.0630  -23.4370   -3.7300 N.pl3   1  UNL1       -0.1810
     26  H         17.4640  -24.3770   -3.6990 H       1  UNL1        0.1460
     27  S         15.4220  -23.4850   -4.1550 S.O2    1  UNL1        0.2450
     28  O         14.8170  -22.2420   -3.7260 O.2     1  UNL1       -0.2060
     29  O         14.8650  -24.7680   -3.7830 O.2     1  UNL1       -0.2060
     30  C         15.5370  -23.4480   -5.9280 C.2     1  UNL1        0.0740
     31  C         15.8110  -24.6190   -6.6390 C.2     1  UNL1        0.0250
     32  C         15.9190  -24.5650   -8.0300 C.2     1  UNL1        0.0080
     33  C         15.7510  -23.3510   -8.7100 C.2     1  UNL1       -0.0620
     34  C         15.8930  -23.2820  -10.2040 C.3     1  UNL1        0.0480
     35  C         15.4910  -22.1820   -7.9810 C.2     1  UNL1        0.0080
     36  C         15.3830  -22.2270   -6.5900 C.2     1  UNL1        0.0250
@<TRIPOS>BOND
     1    15    16    2
     2    15    14    1
     3    24    23    1
     4    24    19    1
     5    16    17    1
     6    14    13    2
     7    23    22    1
     8    19    18    1
     9    19    20    1
    10    17    18    1
    11    17    12    2
    12    22    21    1
    13    21    20    1
    14    13    12    1
    15    12    11    1
    16    34    33    1
    17    11     9    1
    18    33    32    2
    19    33    35    1
    20     9    10    1
    21     9     7   am
    22    32    31    1
    23    35    36    2
    24     8     7    2
    25     7     5    1
    26    31    30    2
    27    36    30    1
    28     5     4    2
    29     5     6    1
    30    30    27    1
    31     4     3    1
    32     6     1    2
    33     3     2    2
    34     1     2    1
    35     1    25    1
    36    27    29    2
    37    27    25    1
    38    27    28    2
    39    25    26    1
