@<TRIPOS>MOLECULE
28521_out_ligand_01.pdbqt
 35 38 0 0 0
SMALL
GASTEIGER

@<TRIPOS>ATOM
      1  N         23.4700  -22.7030  -10.5400 N.am    1  UNL1       -0.3410
      2  C         23.2320  -23.4130   -9.3510 C.2     1  UNL1        0.2540
      3  O         24.0940  -24.0580   -8.7550 O.2     1  UNL1       -0.2670
      4  C         21.8830  -23.3650   -8.7370 C.2     1  UNL1        0.0320
      5  C         21.4690  -22.2510   -7.9940 C.2     1  UNL1        0.0180
      6  C         20.2230  -22.2680   -7.3610 C.2     1  UNL1        0.0260
      7  C         19.4120  -23.4060   -7.4610 C.2     1  UNL1        0.0790
      8  C         19.8170  -24.5150   -8.2120 C.2     1  UNL1        0.0260
      9  C         21.0640  -24.4970   -8.8380 C.2     1  UNL1        0.0180
     10  S         17.8340  -23.4290   -6.6400 S.O2    1  UNL1        0.2580
     11  O         17.9190  -22.5790   -5.4730 O.2     1  UNL1       -0.2010
     12  O         17.4060  -24.8080   -6.5530 O.2     1  UNL1       -0.2010
     13  N         16.8280  -22.6920   -7.7620 N.3     1  UNL1       -0.3130
     14  H         16.3180  -21.8910   -7.3880 H       1  UNL1        0.1720
     15  C         16.2220  -23.4950   -8.8310 C.3     1  UNL1        0.1640
     16  C         16.5220  -22.8960  -10.2090 C.3     1  UNL1        0.1400
     17  C         17.9880  -22.9640  -10.6100 C.3     1  UNL1        0.0350
     18  C         18.0980  -21.8090  -11.5760 C.3     1  UNL1        0.0290
     19  C         17.1880  -20.7780  -10.9400 C.3     1  UNL1        0.1680
     20  O         16.1770  -21.4970  -10.2180 O.3     1  UNL1       -0.3840
     21  C         22.4410  -22.6290  -11.5870 C.3     1  UNL1        0.1220
     22  C         21.6690  -21.3230  -11.5720 C.3     1  UNL1        0.0260
     23  C         24.8740  -22.6760  -10.9750 C.3     1  UNL1        0.2040
     24  C         24.9430  -22.8230  -12.4930 C.ar    1  UNL1        0.1250
     25  N         24.9330  -21.7910  -13.2750 N.ar    1  UNL1       -0.2330
     26  C         24.9650  -22.0080  -14.6620 C.ar    1  UNL1        0.0740
     27  C         24.8930  -20.9060  -15.5200 C.2     1  UNL1        0.0320
     28  C         25.0550  -23.2850  -15.2220 C.ar    1  UNL1        0.0610
     29  C         24.9150  -21.0820  -16.9080 C.2     1  UNL1        0.0020
     30  C         25.0090  -22.3650  -17.4510 C.2     1  UNL1        0.0010
     31  C         25.0820  -23.4750  -16.6070 C.2     1  UNL1        0.0190
     32  C         25.1060  -24.4280  -14.2930 C.ar    1  UNL1        0.2590
     33  O         25.2180  -25.5860  -14.6790 O.2     1  UNL1       -0.2670
     34  N         25.0230  -24.1110  -12.9620 N.ar    1  UNL1       -0.3090
     35  H         25.0350  -24.8940  -12.3230 H       1  UNL1        0.1700
@<TRIPOS>BOND
     1    30    29    2
     2    30    31    1
     3    29    27    1
     4    31    28    2
     5    27    26    2
     6    28    26   ar
     7    28    32   ar
     8    33    32    2
     9    26    25   ar
    10    32    34   ar
    11    25    24   ar
    12    34    24   ar
    13    34    35    1
    14    24    23    1
    15    21    22    1
    16    21     1    1
    17    18    19    1
    18    18    17    1
    19    23     1    1
    20    19    20    1
    21    17    16    1
    22     1     2   am
    23    20    16    1
    24    16    15    1
    25     2     3    2
    26     2     4    1
    27     9     4    2
    28     9     8    1
    29    15    13    1
    30     4     5    1
    31     8     7    2
    32     5     6    2
    33    13    14    1
    34    13    10    1
    35     7     6    1
    36     7    10    1
    37    10    12    2
    38    10    11    2
