@<TRIPOS>MOLECULE
28523_out_ligand_01.pdbqt
 35 38 0 0 0
SMALL
GASTEIGER

@<TRIPOS>ATOM
      1  C         16.9510  -20.6240  -11.3630 C.3     1  UNL1        0.0500
      2  C         18.3190  -21.2220  -11.2010 C.2     1  UNL1       -0.0390
      3  C         19.3490  -20.7440  -12.0250 C.2     1  UNL1        0.0100
      4  C         20.6510  -21.2510  -11.9380 C.2     1  UNL1        0.0300
      5  C         20.9640  -22.2450  -11.0170 C.2     1  UNL1        0.0360
      6  C         19.9520  -22.7300  -10.1870 C.2     1  UNL1        0.0540
      7  C         18.6330  -22.2390  -10.2840 C.2     1  UNL1        0.0830
      8  N         22.2550  -22.7910  -10.8520 N.am    1  UNL1       -0.3270
      9  C         23.3020  -22.2620  -10.1150 C.2     1  UNL1        0.2270
     10  O         23.3010  -21.1760   -9.5390 O.2     1  UNL1       -0.2730
     11  H         22.4280  -23.6680  -11.3370 H       1  UNL1        0.1690
     12  C         24.5400  -23.1450  -10.1100 C.3     1  UNL1        0.1630
     13  C         25.3230  -22.9850  -11.3660 C.2     1  UNL1        0.0520
     14  C         26.6920  -22.8150  -11.4810 C.2     1  UNL1        0.0810
     15  S         27.1200  -22.6560  -13.1280 S.3     1  UNL1       -0.0620
     16  C         25.4680  -22.8180  -13.5740 C.2     1  UNL1        0.1750
     17  N         24.6390  -22.9790  -12.5720 N.2     1  UNL1       -0.2280
     18  N         25.1510  -22.7570  -14.9180 N.am    1  UNL1       -0.2960
     19  C         24.7190  -21.6070  -15.6760 C.3     1  UNL1        0.1350
     20  C         24.8600  -22.0450  -17.1190 C.3     1  UNL1        0.0290
     21  C         24.5880  -23.5380  -17.0560 C.3     1  UNL1        0.1050
     22  C         25.0980  -23.9270  -15.6860 C.2     1  UNL1        0.2250
     23  O         25.3520  -25.0870  -15.3880 O.2     1  UNL1       -0.2730
     24  S         17.4410  -22.9770   -9.1770 S.O2    1  UNL1        0.2460
     25  O         16.7290  -24.0590   -9.8220 O.2     1  UNL1       -0.2060
     26  O         16.7070  -21.8920   -8.5540 O.2     1  UNL1       -0.2060
     27  N         18.4260  -23.6170   -7.9470 N.pl3   1  UNL1       -0.1810
     28  H         19.3130  -23.9150   -8.3540 H       1  UNL1        0.1460
     29  C         18.4810  -22.9070   -6.7150 C.2     1  UNL1        0.0230
     30  C         17.6910  -23.3300   -5.6470 C.2     1  UNL1        0.0270
     31  C         17.7040  -22.6100   -4.4500 C.2     1  UNL1        0.0440
     32  C         18.5020  -21.4750   -4.3370 C.2     1  UNL1        0.1160
     33  F         18.5090  -20.7810   -3.1930 F       1  UNL1       -0.2060
     34  C         19.2860  -21.0430   -5.4000 C.2     1  UNL1        0.0440
     35  C         19.2740  -21.7620   -6.5990 C.2     1  UNL1        0.0270
@<TRIPOS>BOND
     1    20    21    1
     2    20    19    1
     3    21    22    1
     4    22    23    2
     5    22    18   am
     6    19    18    1
     7    18    16    1
     8    16    15    1
     9    16    17    2
    10    15    14    1
    11    17    13    1
    12     3     4    1
    13     3     2    2
    14     4     5    2
    15    14    13    2
    16    13    12    1
    17     1     2    1
    18    11     8    1
    19     2     7    1
    20     5     8    1
    21     5     6    1
    22     8     9   am
    23     7     6    2
    24     7    24    1
    25     9    12    1
    26     9    10    2
    27    25    24    2
    28    24    26    2
    29    24    27    1
    30    28    27    1
    31    27    29    1
    32    29    35    2
    33    29    30    1
    34    35    34    1
    35    30    31    2
    36    34    32    2
    37    31    32    1
    38    32    33    1
