@<TRIPOS>MOLECULE
28524_out_ligand_01.pdbqt
 33 36 0 0 0
SMALL
GASTEIGER

@<TRIPOS>ATOM
      1  C         19.3220  -22.1150  -10.8280 C.2     1  UNL1        0.0360
      2  C         18.5610  -21.2660  -11.6340 C.2     1  UNL1        0.0290
      3  C         17.2060  -21.0390  -11.3600 C.2     1  UNL1        0.0040
      4  C         16.5940  -21.6710  -10.2820 C.2     1  UNL1        0.0250
      5  C         17.3460  -22.5380   -9.4880 C.2     1  UNL1        0.0770
      6  C         18.7060  -22.7500   -9.7450 C.2     1  UNL1        0.0540
      7  N         20.6890  -22.3900  -11.0380 N.am    1  UNL1       -0.3230
      8  C         21.7080  -22.3470  -10.1020 C.2     1  UNL1        0.2560
      9  O         21.5990  -22.1110   -8.9050 O.2     1  UNL1       -0.2670
     10  H         20.9330  -22.7190  -11.9630 H       1  UNL1        0.1690
     11  C         23.0640  -22.6590  -10.6370 C.2     1  UNL1        0.0340
     12  C         24.1210  -23.0180   -9.7940 C.2     1  UNL1        0.0170
     13  C         25.3710  -23.3010  -10.3390 C.2     1  UNL1        0.0030
     14  C         25.5700  -23.2370  -11.7220 C.2     1  UNL1        0.0300
     15  C         24.5150  -22.8970  -12.5840 C.2     1  UNL1        0.0390
     16  C         23.2580  -22.6130  -12.0280 C.2     1  UNL1        0.0470
     17  N         24.7160  -22.8420  -14.0000 N.pl3   1  UNL1       -0.3330
     18  C         25.3330  -23.7980  -14.7870 C.2     1  UNL1        0.0960
     19  C         25.3300  -23.3870  -16.1020 C.2     1  UNL1        0.0190
     20  C         24.6930  -22.1330  -16.1430 C.2     1  UNL1        0.0190
     21  C         24.3280  -21.8210  -14.8510 C.2     1  UNL1        0.0960
     22  S         16.5720  -23.3610   -8.1160 S.O2    1  UNL1        0.2460
     23  O         15.6780  -22.4190   -7.4780 O.2     1  UNL1       -0.2060
     24  O         16.0970  -24.6440   -8.5900 O.2     1  UNL1       -0.2060
     25  N         17.8700  -23.6820   -7.0790 N.pl3   1  UNL1       -0.1780
     26  H         18.6930  -23.9700   -7.6120 H       1  UNL1        0.1460
     27  C         18.1230  -22.7630   -6.0130 C.2     1  UNL1        0.0610
     28  C         18.9310  -21.6440   -6.2050 C.2     1  UNL1        0.0270
     29  C         19.2010  -20.7890   -5.1340 C.2     1  UNL1        0.0020
     30  C         18.6670  -21.0540   -3.8690 C.2     1  UNL1        0.0030
     31  C         17.8590  -22.1740   -3.6740 C.2     1  UNL1        0.0440
     32  C         17.5920  -23.0190   -4.7450 C.2     1  UNL1        0.1380
     33  F         16.8200  -24.1000   -4.5540 F       1  UNL1       -0.2040
@<TRIPOS>BOND
     1    20    19    1
     2    20    21    2
     3    19    18    2
     4    21    17    1
     5    18    17    1
     6    17    15    1
     7    15    16    1
     8    15    14    2
     9    16    11    2
    10    10     7    1
    11    14    13    1
    12     2     3    1
    13     2     1    2
    14     3     4    2
    15     7     1    1
    16     7     8   am
    17     1     6    1
    18    11     8    1
    19    11    12    1
    20    13    12    2
    21     4     5    1
    22     8     9    2
    23     6     5    2
    24     5    22    1
    25    24    22    2
    26    22    23    2
    27    22    25    1
    28    26    25    1
    29    25    27    1
    30    28    27    2
    31    28    29    1
    32    27    32    1
    33    29    30    2
    34    32    33    1
    35    32    31    2
    36    30    31    1
