@<TRIPOS>MOLECULE
28530_out_ligand_01.pdbqt
 33 36 0 0 0
SMALL
GASTEIGER

@<TRIPOS>ATOM
      1  C         15.2660  -22.1280   -9.7410 C.3     1  UNL1        0.0500
      2  C         16.7390  -22.3310   -9.9490 C.2     1  UNL1       -0.0390
      3  C         17.3450  -21.6910  -11.0430 C.2     1  UNL1        0.0100
      4  C         18.7120  -21.8260  -11.2980 C.2     1  UNL1        0.0300
      5  C         19.5190  -22.6060  -10.4680 C.2     1  UNL1        0.0360
      6  C         18.9380  -23.2310   -9.3680 C.2     1  UNL1        0.0540
      7  C         17.5560  -23.1140   -9.1140 C.2     1  UNL1        0.0830
      8  N         20.8860  -22.6970  -10.7930 N.am    1  UNL1       -0.3230
      9  C         21.9640  -22.2860  -10.0290 C.2     1  UNL1        0.2580
     10  O         21.9060  -21.8570   -8.8830 O.2     1  UNL1       -0.2670
     11  H         21.1160  -23.2060  -11.6350 H       1  UNL1        0.1690
     12  C         23.2520  -22.4890  -10.6960 C.2     1  UNL1        0.0600
     13  C         24.3660  -23.0060  -10.0560 C.2     1  UNL1        0.1080
     14  N         25.3870  -23.0950  -10.9580 N.pl3   1  UNL1       -0.3590
     15  C         26.7080  -23.6010  -10.6570 C.3     1  UNL1        0.1560
     16  C         24.9830  -22.6190  -12.1860 C.2     1  UNL1        0.0450
     17  C         25.6830  -22.5050  -13.3990 C.2     1  UNL1        0.0300
     18  C         23.6530  -22.2030  -12.0470 C.2     1  UNL1        0.0080
     19  C         25.0220  -21.9380  -14.4910 C.2     1  UNL1        0.0020
     20  C         23.7110  -21.4900  -14.3760 C.2     1  UNL1        0.0010
     21  C         23.0210  -21.6100  -13.1650 C.2     1  UNL1        0.0150
     22  S         16.9600  -24.0010   -7.6760 S.O2    1  UNL1        0.2460
     23  O         18.0690  -24.6010   -6.9680 O.2     1  UNL1       -0.2060
     24  O         15.8440  -24.8140   -8.1140 O.2     1  UNL1       -0.2060
     25  N         16.3090  -22.7660   -6.7130 N.pl3   1  UNL1       -0.1780
     26  H         15.9190  -22.0250   -7.3010 H       1  UNL1        0.1460
     27  C         17.0800  -22.3090   -5.5970 C.2     1  UNL1        0.0610
     28  C         18.1870  -21.4830   -5.7810 C.2     1  UNL1        0.0270
     29  C         18.9060  -21.0240   -4.6720 C.2     1  UNL1        0.0020
     30  C         18.5190  -21.3900   -3.3810 C.2     1  UNL1        0.0030
     31  C         17.4140  -22.2210   -3.1940 C.2     1  UNL1        0.0440
     32  C         16.7050  -22.6740   -4.3010 C.2     1  UNL1        0.1380
     33  F         15.6440  -23.4740   -4.1160 F       1  UNL1       -0.2040
@<TRIPOS>BOND
     1    19    20    2
     2    19    17    1
     3    20    21    1
     4    17    16    2
     5    21    18    2
     6    16    18    1
     7    16    14    1
     8    18    12    1
     9    11     8    1
    10     4     3    1
    11     4     5    2
    12     3     2    2
    13    14    15    1
    14    14    13    1
    15     8     5    1
    16     8     9   am
    17    12    13    2
    18    12     9    1
    19     5     6    1
    20     9    10    2
    21     2     1    1
    22     2     7    1
    23     6     7    2
    24     7    22    1
    25    24    22    2
    26    22    23    2
    27    22    25    1
    28    26    25    1
    29    25    27    1
    30    28    27    2
    31    28    29    1
    32    27    32    1
    33    29    30    2
    34    32    33    1
    35    32    31    2
    36    30    31    1
