@<TRIPOS>MOLECULE
28540_out_ligand_01.pdbqt
 29 32 0 0 0
SMALL
GASTEIGER

@<TRIPOS>ATOM
      1  N         23.7170  -23.2360  -11.6130 N.am    1  UNL1       -0.3050
      2  C         23.3180  -22.3550  -10.6280 C.2     1  UNL1        0.2280
      3  O         23.9320  -21.3660  -10.2420 O.2     1  UNL1       -0.2730
      4  H         23.1830  -24.0730  -11.7960 H       1  UNL1        0.1710
      5  C         21.9960  -22.7670   -9.9860 C.3     1  UNL1        0.1440
      6  C         20.8190  -22.1320  -10.6470 C.2     1  UNL1       -0.0130
      7  C         20.8980  -21.3220  -11.7650 C.2     1  UNL1        0.1510
      8  O         19.6790  -20.8670  -12.1270 O.2     1  UNL1       -0.3210
      9  C         18.7830  -21.3930  -11.2550 C.2     1  UNL1        0.0860
     10  C         17.4150  -21.1510  -11.3100 C.2     1  UNL1        0.0390
     11  C         19.4170  -22.1970  -10.3090 C.2     1  UNL1        0.0170
     12  C         16.6260  -21.7660  -10.3400 C.2     1  UNL1        0.0150
     13  C         17.1850  -22.5950   -9.3570 C.2     1  UNL1       -0.0250
     14  C         16.3600  -23.2020   -8.3980 C.2     1  UNL1        0.0120
     15  C         18.5910  -22.8300   -9.3210 C.2     1  UNL1       -0.0120
     16  C         16.8940  -24.0350   -7.4150 C.2     1  UNL1        0.0010
     17  C         18.2620  -24.2750   -7.3760 C.2     1  UNL1        0.0010
     18  C         19.1050  -23.6800   -8.3180 C.2     1  UNL1        0.0130
     19  C         24.8240  -23.1350  -12.4150 C.2     1  UNL1        0.1730
     20  S         26.3870  -23.5900  -11.9220 S.3     1  UNL1       -0.0620
     21  C         27.0050  -23.1020  -13.4410 C.2     1  UNL1        0.0810
     22  C         25.9780  -22.6200  -14.2320 C.2     1  UNL1        0.0520
     23  N         24.7240  -22.6510  -13.6330 N.2     1  UNL1       -0.2280
     24  C         26.1000  -22.0970  -15.6230 C.3     1  UNL1        0.1620
     25  C         24.7380  -21.7630  -16.1900 C.2     1  UNL1        0.2210
     26  N         24.2090  -20.5670  -15.7870 N.am    1  UNL1       -0.3700
     27  H         24.5260  -20.1540  -14.9170 H       1  UNL1        0.1590
     28  H         23.2490  -20.3960  -16.0590 H       1  UNL1        0.1590
     29  O         24.1320  -22.4900  -16.9690 O.2     1  UNL1       -0.2730
@<TRIPOS>BOND
     1    29    25    2
     2    25    26   am
     3    25    24    1
     4    28    26    1
     5    26    27    1
     6    24    22    1
     7    22    23    1
     8    22    21    2
     9    23    19    2
    10    21    20    1
    11    19    20    1
    12    19     1    1
    13     8     7    1
    14     8     9    1
    15     4     1    1
    16     7     6    2
    17     1     2   am
    18    10     9    2
    19    10    12    1
    20     9    11    1
    21     6    11    1
    22     6     5    1
    23     2     3    2
    24     2     5    1
    25    12    13    2
    26    11    15    2
    27    13    15    1
    28    13    14    1
    29    15    18    1
    30    14    16    2
    31    18    17    2
    32    16    17    1
