@<TRIPOS>MOLECULE
28556_out_ligand_01.pdbqt
 31 34 0 0 0
SMALL
GASTEIGER

@<TRIPOS>ATOM
      1  C         22.2960  -22.2780   -9.8510 C.2     1  UNL1        0.0320
      2  C         22.2180  -22.2170   -8.4580 C.2     1  UNL1        0.0190
      3  C         20.9830  -22.3860   -7.8180 C.2     1  UNL1        0.0300
      4  C         19.8010  -22.6280   -8.5390 C.2     1  UNL1        0.0300
      5  C         19.9050  -22.7000   -9.9350 C.2     1  UNL1        0.0300
      6  C         21.1330  -22.5300  -10.5850 C.2     1  UNL1        0.0190
      7  C         23.5880  -22.1400  -10.5880 C.2     1  UNL1        0.2570
      8  N         23.7900  -23.0720  -11.5790 N.am    1  UNL1       -0.3010
      9  H         23.1500  -23.8410  -11.6950 H       1  UNL1        0.1710
     10  O         24.3490  -21.2440  -10.2430 O.2     1  UNL1       -0.2670
     11  C         24.8520  -23.1390  -12.4430 C.2     1  UNL1        0.1730
     12  S         26.3690  -23.7760  -12.0150 S.3     1  UNL1       -0.0620
     13  C         26.9560  -23.4170  -13.5820 C.2     1  UNL1        0.0810
     14  C         25.9550  -22.8390  -14.3440 C.2     1  UNL1        0.0520
     15  N         24.7510  -22.6700  -13.6670 N.2     1  UNL1       -0.2280
     16  C         26.0570  -22.3330  -15.7460 C.3     1  UNL1        0.1620
     17  C         24.7410  -21.8980  -16.3620 C.2     1  UNL1        0.2210
     18  N         24.3390  -20.6390  -16.0030 N.am    1  UNL1       -0.3700
     19  H         24.7940  -20.0940  -15.2860 H       1  UNL1        0.1590
     20  H         23.4550  -20.3140  -16.3710 H       1  UNL1        0.1590
     21  O         24.0590  -22.5500  -17.1450 O.2     1  UNL1       -0.2730
     22  N         18.5980  -22.8220   -7.8400 N.pl3   1  UNL1       -0.3760
     23  C         17.3400  -22.5630   -8.5530 C.3     1  UNL1        0.1280
     24  C         16.1900  -23.2680   -7.8310 C.3     1  UNL1        0.0590
     25  C         16.1540  -22.9200   -6.3660 C.2     1  UNL1       -0.0490
     26  C         14.9710  -23.0900   -5.6360 C.2     1  UNL1        0.0080
     27  C         17.3230  -22.4820   -5.7190 C.2     1  UNL1       -0.0340
     28  C         14.9350  -22.7970   -4.2740 C.2     1  UNL1        0.0010
     29  C         16.0830  -22.3450   -3.6300 C.2     1  UNL1        0.0010
     30  C         17.2690  -22.1880   -4.3470 C.2     1  UNL1        0.0090
     31  C         18.6300  -22.2810   -6.4650 C.3     1  UNL1        0.1620
@<TRIPOS>BOND
     1    21    17    2
     2    20    18    1
     3    17    18   am
     4    17    16    1
     5    18    19    1
     6    16    14    1
     7    14    15    1
     8    14    13    2
     9    15    11    2
    10    13    12    1
    11    11    12    1
    12    11     8    1
    13     9     8    1
    14     8     7   am
    15     7    10    2
    16     7     1    1
    17     6     5    1
    18     6     1    2
    19     5     4    2
    20     1     2    1
    21    23    22    1
    22    23    24    1
    23     4    22    1
    24     4     3    1
    25     2     3    2
    26    22    31    1
    27    24    25    1
    28    31    27    1
    29    25    27    2
    30    25    26    1
    31    27    30    1
    32    26    28    2
    33    30    29    2
    34    28    29    1
