@<TRIPOS>MOLECULE
28560_out_ligand_01.pdbqt
 38 41 0 0 0
SMALL
GASTEIGER

@<TRIPOS>ATOM
      1  C         23.1860  -22.1050   -9.0810 C.3     1  UNL1        0.1850
      2  C         24.3870  -21.9130   -9.9990 C.2     1  UNL1        0.2270
      3  N         24.9190  -23.0650  -10.5360 N.am    1  UNL1       -0.3520
      4  H         24.6150  -23.9510  -10.1440 H       1  UNL1        0.1630
      5  O         24.8060  -20.7960  -10.2930 O.2     1  UNL1       -0.2730
      6  C         26.1080  -23.0500  -11.3680 C.3     1  UNL1        0.1130
      7  C         27.0200  -24.2460  -11.0800 C.3     1  UNL1        0.0370
      8  C         25.7090  -22.9830  -12.8340 C.2     1  UNL1       -0.0360
      9  C         25.3050  -21.7760  -13.4330 C.2     1  UNL1        0.0110
     10  C         24.9510  -21.7340  -14.7830 C.2     1  UNL1        0.0250
     11  C         24.9950  -22.9060  -15.5430 C.2     1  UNL1        0.0740
     12  C         25.4160  -24.1090  -14.9750 C.2     1  UNL1        0.0250
     13  C         25.7700  -24.1440  -13.6240 C.2     1  UNL1        0.0110
     14  S         24.5300  -22.8500  -17.2540 S.O2    1  UNL1        0.2390
     15  O         23.2050  -23.4100  -17.3890 O.2     1  UNL1       -0.2060
     16  O         25.6500  -23.2930  -18.0500 O.2     1  UNL1       -0.2060
     17  N         24.3460  -21.1920  -17.4920 N.3     1  UNL1       -0.2250
     18  H         25.2320  -20.7290  -17.2790 H       1  UNL1        0.1360
     19  H         24.0070  -20.9540  -18.4240 H       1  UNL1        0.1360
     20  S         22.5100  -23.7970   -9.1310 S.3     1  UNL1       -0.0810
     21  C         20.7850  -23.3880   -9.1590 C.2     1  UNL1        0.1910
     22  N         19.9990  -23.9420   -8.2330 N.2     1  UNL1       -0.2040
     23  C         18.6830  -23.6780   -8.3020 C.3     1  UNL1        0.1430
     24  C         18.1460  -22.8290   -9.2890 C.2     1  UNL1        0.0390
     25  C         16.7780  -22.4720   -9.4060 C.2     1  UNL1        0.0180
     26  C         19.0720  -22.3070  -10.2030 C.2     1  UNL1        0.0730
     27  C         16.3430  -21.6260  -10.4240 C.2     1  UNL1        0.0010
     28  C         17.2650  -21.1220  -11.3320 C.2     1  UNL1        0.0020
     29  C         18.6150  -21.4650  -11.2100 C.2     1  UNL1        0.0320
     30  N         20.3760  -22.5910  -10.1530 N.pl3   1  UNL1       -0.2220
     31  N         17.8000  -24.2890   -7.3710 N.pl3   1  UNL1       -0.3400
     32  H         18.1600  -25.2100   -7.1370 H       1  UNL1        0.1670
     33  C         17.1540  -23.7010   -6.2590 C.2     1  UNL1        0.0330
     34  C         15.7560  -23.8000   -6.1540 C.2     1  UNL1        0.0290
     35  C         15.0630  -23.1790   -5.1120 C.2     1  UNL1        0.0020
     36  C         15.7560  -22.4260   -4.1680 C.2     1  UNL1        0.0000
     37  C         17.1380  -22.2860   -4.2760 C.2     1  UNL1        0.0020
     38  C         17.8280  -22.9100   -5.3210 C.2     1  UNL1        0.0290
@<TRIPOS>BOND
     1    19    17    1
     2    16    14    2
     3    17    18    1
     4    17    14    1
     5    15    14    2
     6    14    11    1
     7    11    12    2
     8    11    10    1
     9    12    13    1
    10    10     9    2
    11    13     8    2
    12     9     8    1
    13     8     6    1
    14     6     7    1
    15     6     3    1
    16    28    29    2
    17    28    27    1
    18    29    26    1
    19     3     4    1
    20     3     2   am
    21    27    25    2
    22     5     2    2
    23    26    30    1
    24    26    24    2
    25    30    21    1
    26     2     1    1
    27    25    24    1
    28    24    23    1
    29    21    20    1
    30    21    22    2
    31    20     1    1
    32    23    22    1
    33    23    31    1
    34    31    32    1
    35    31    33    1
    36    33    34    2
    37    33    38    1
    38    34    35    1
    39    38    37    2
    40    35    36    2
    41    37    36    1
