@<TRIPOS>MOLECULE
28574_out_ligand_01.pdbqt
 42 47 0 0 0
SMALL
GASTEIGER

@<TRIPOS>ATOM
      1  C         27.1210  -21.2990  -12.4380 C.3     1  UNL1        0.0500
      2  C         25.8060  -21.7930  -11.9030 C.2     1  UNL1       -0.0390
      3  C         25.3160  -21.2110  -10.7230 C.2     1  UNL1        0.0090
      4  C         24.0850  -21.5940  -10.1820 C.2     1  UNL1        0.0140
      5  C         23.3000  -22.5750  -10.7990 C.2     1  UNL1       -0.0030
      6  C         23.7830  -23.1610  -11.9800 C.2     1  UNL1        0.0390
      7  C         25.0320  -22.7920  -12.5190 C.2     1  UNL1        0.0860
      8  C         21.9940  -22.9490  -10.2370 C.ar    1  UNL1        0.1000
      9  N         22.0680  -23.9180   -9.3000 N.ar    1  UNL1       -0.1470
     10  N         20.9350  -24.3630   -8.6790 N.ar    1  UNL1       -0.1310
     11  C         19.7230  -23.8530   -8.9870 C.ar    1  UNL1        0.1610
     12  C         19.5970  -22.8370   -9.9640 C.ar    1  UNL1        0.0240
     13  C         18.3550  -22.2480  -10.3160 C.2     1  UNL1        0.0160
     14  C         20.7660  -22.3770  -10.6160 C.ar    1  UNL1        0.0090
     15  C         18.2590  -21.2610  -11.2990 C.2     1  UNL1        0.0010
     16  C         19.4020  -20.8330  -11.9520 C.2     1  UNL1        0.0010
     17  C         20.6390  -21.3790  -11.6140 C.2     1  UNL1        0.0150
     18  N         18.5560  -24.3510   -8.3450 N.pl3   1  UNL1       -0.3390
     19  H         18.6440  -25.3580   -8.2550 H       1  UNL1        0.1670
     20  C         17.8510  -23.7890   -7.2550 C.2     1  UNL1        0.0350
     21  C         16.6020  -24.2630   -6.8350 C.2     1  UNL1        0.0290
     22  C         15.9650  -23.7300   -5.7090 C.2     1  UNL1        0.0040
     23  C         16.5840  -22.7270   -4.9670 C.2     1  UNL1        0.0190
     24  C         17.8410  -22.2740   -5.3510 C.2     1  UNL1        0.0130
     25 BR         18.7040  -20.9330   -4.3340 Br      1  UNL1       -0.0510
     26  C         18.4780  -22.8060   -6.4750 C.2     1  UNL1        0.0480
     27  S         25.5420  -23.6540  -14.0000 S.O2    1  UNL1        0.2590
     28  O         26.9470  -23.3760  -14.1900 O.2     1  UNL1       -0.2010
     29  O         25.0190  -25.0020  -13.9910 O.2     1  UNL1       -0.2010
     30  N         24.7150  -22.8520  -15.2150 N.3     1  UNL1       -0.3080
     31  H         23.7220  -23.0850  -15.2750 H       1  UNL1        0.1720
     32  C         25.4000  -22.6590  -16.4900 C.3     1  UNL1        0.2100
     33  C         25.7250  -21.2070  -16.5820 C.ar    1  UNL1        0.1230
     34  N         25.6270  -20.4560  -17.6630 N.ar    1  UNL1       -0.2320
     35  C         25.9710  -19.1880  -17.2630 C.ar    1  UNL1        0.0850
     36  C         26.0280  -17.9990  -18.0030 C.2     1  UNL1        0.0340
     37  C         26.2930  -19.1650  -15.9120 C.ar    1  UNL1        0.0620
     38  C         26.4160  -16.8220  -17.3520 C.2     1  UNL1        0.0020
     39  C         26.7370  -16.8290  -15.9910 C.2     1  UNL1        0.0020
     40  C         26.6800  -18.0060  -15.2360 C.2     1  UNL1        0.0320
     41  N         26.1190  -20.4610  -15.4980 N.ar    1  UNL1       -0.3410
     42  H         26.2330  -20.8000  -14.5530 H       1  UNL1        0.1670
@<TRIPOS>BOND
     1    36    38    1
     2    36    35    2
     3    34    35   ar
     4    34    33   ar
     5    38    39    2
     6    35    37   ar
     7    33    32    1
     8    33    41   ar
     9    32    30    1
    10    39    40    1
    11    37    41   ar
    12    37    40    2
    13    41    42    1
    14    31    30    1
    15    30    27    1
    16    28    27    2
    17    27    29    2
    18    27     7    1
    19     7     6    1
    20     7     2    2
    21     1     2    1
    22     6     5    2
    23    16    17    2
    24    16    15    1
    25     2     3    1
    26    17    14    1
    27    15    13    2
    28     5     8    1
    29     5     4    1
    30     3     4    2
    31    14     8   ar
    32    14    12   ar
    33    13    12    1
    34     8     9   ar
    35    12    11   ar
    36     9    10   ar
    37    11    10   ar
    38    11    18    1
    39    18    19    1
    40    18    20    1
    41    20    21    2
    42    20    26    1
    43    21    22    1
    44    26    24    2
    45    22    23    2
    46    24    23    1
    47    24    25    1
