@<TRIPOS>MOLECULE
28577_out_ligand_01.pdbqt
 41 44 0 0 0
SMALL
GASTEIGER

@<TRIPOS>ATOM
      1  C         20.3040  -23.7820   -9.1830 C.ar    1  UNL1        0.1610
      2  N         21.5840  -24.1540   -8.9720 N.ar    1  UNL1       -0.1310
      3  N         22.6100  -23.5780   -9.6630 N.ar    1  UNL1       -0.1470
      4  C         22.3560  -22.6220  -10.5830 C.ar    1  UNL1        0.1000
      5  C         21.0500  -22.1780  -10.8520 C.ar    1  UNL1        0.0090
      6  C         20.7470  -21.1590  -11.7900 C.2     1  UNL1        0.0150
      7  C         19.4370  -20.7380  -12.0140 C.2     1  UNL1        0.0010
      8  C         18.3980  -21.3150  -11.3010 C.2     1  UNL1        0.0010
      9  C         18.6720  -22.3160  -10.3670 C.2     1  UNL1        0.0160
     10  C         19.9910  -22.7750  -10.1270 C.ar    1  UNL1        0.0240
     11  C         23.5640  -22.1010  -11.2300 C.2     1  UNL1       -0.0030
     12  C         24.5910  -21.5040  -10.4870 C.2     1  UNL1        0.0140
     13  C         25.7240  -20.9840  -11.1190 C.2     1  UNL1        0.0090
     14  C         25.8600  -21.0370  -12.5150 C.2     1  UNL1       -0.0390
     15  C         27.0910  -20.4480  -13.1450 C.3     1  UNL1        0.0500
     16  C         24.8190  -21.6140  -13.2670 C.2     1  UNL1        0.0860
     17  C         23.6920  -22.1520  -12.6260 C.2     1  UNL1        0.0390
     18  S         24.8980  -21.6430  -15.0480 S.O2    1  UNL1        0.2590
     19  O         26.1130  -22.3170  -15.4440 O.2     1  UNL1       -0.2010
     20  O         23.5940  -22.0650  -15.5130 O.2     1  UNL1       -0.2010
     21  N         25.0530  -20.0370  -15.4980 N.3     1  UNL1       -0.3130
     22  H         24.1870  -19.4970  -15.4190 H       1  UNL1        0.1720
     23  C         25.9460  -19.6890  -16.6140 C.3     1  UNL1        0.1580
     24  C         25.2400  -20.0340  -17.9280 C.3     1  UNL1        0.1840
     25  O         23.8270  -19.8620  -17.7830 O.3     1  UNL1       -0.3990
     26  H         23.3970  -20.4120  -18.4600 H       1  UNL1        0.2090
     27  N         19.2530  -24.4240   -8.4710 N.pl3   1  UNL1       -0.3390
     28  H         19.5030  -25.3990   -8.3460 H       1  UNL1        0.1670
     29  C         18.5330  -23.9130   -7.3680 C.2     1  UNL1        0.0340
     30  C         17.2800  -24.4520   -7.0610 C.2     1  UNL1        0.0320
     31  C         16.5090  -23.9400   -6.0100 C.2     1  UNL1        0.0400
     32  C         16.9590  -22.8550   -5.2490 C.2     1  UNL1        0.0840
     33  C         18.2010  -22.2710   -5.5730 C.2     1  UNL1        0.0670
     34  C         18.9620  -22.8030   -6.6340 C.2     1  UNL1        0.0490
     35  O         16.2370  -22.3130   -4.2160 O.2     1  UNL1       -0.3550
     36  C         14.8240  -22.2190   -4.3660 C.3     1  UNL1        0.2100
     37  C         18.7960  -21.0870   -4.8700 C.2     1  UNL1        0.2520
     38  N         18.5890  -20.9560   -3.5280 N.am    1  UNL1       -0.3660
     39  H         17.9760  -21.5880   -3.0280 H       1  UNL1        0.1590
     40  H         18.9370  -20.1260   -3.0690 H       1  UNL1        0.1590
     41  O         19.4560  -20.2410   -5.4630 O.2     1  UNL1       -0.2680
@<TRIPOS>BOND
     1    26    25    1
     2    24    25    1
     3    24    23    1
     4    23    21    1
     5    20    18    2
     6    21    22    1
     7    21    18    1
     8    19    18    2
     9    18    16    1
    10    16    17    1
    11    16    14    2
    12    15    14    1
    13    17    11    2
    14    14    13    1
    15     7     6    2
    16     7     8    1
    17     6     5    1
    18     8     9    2
    19    11     4    1
    20    11    12    1
    21    13    12    2
    22     5     4   ar
    23     5    10   ar
    24     4     3   ar
    25     9    10    1
    26    10     1   ar
    27     3     2   ar
    28     1     2   ar
    29     1    27    1
    30    27    28    1
    31    27    29    1
    32    29    30    2
    33    29    34    1
    34    30    31    1
    35    34    33    2
    36    31    32    2
    37    33    32    1
    38    33    37    1
    39    41    37    2
    40    32    35    1
    41    37    38   am
    42    36    35    1
    43    38    40    1
    44    38    39    1
