@<TRIPOS>MOLECULE
28584_out_ligand_01.pdbqt
 41 44 0 0 0
SMALL
GASTEIGER

@<TRIPOS>ATOM
      1  C         20.2990  -23.7800   -9.1310 C.ar    1  UNL1        0.1610
      2  N         21.5850  -24.1420   -8.9380 N.ar    1  UNL1       -0.1310
      3  N         22.5970  -23.5580   -9.6450 N.ar    1  UNL1       -0.1470
      4  C         22.3240  -22.5940  -10.5490 C.ar    1  UNL1        0.1000
      5  C         21.0070  -22.1690  -10.8060 C.ar    1  UNL1        0.0090
      6  C         20.6790  -21.1780  -11.7650 C.2     1  UNL1        0.0150
      7  C         19.3610  -20.7800  -11.9830 C.2     1  UNL1        0.0010
      8  C         18.3380  -21.3570  -11.2470 C.2     1  UNL1        0.0010
      9  C         18.6350  -22.3400  -10.3020 C.2     1  UNL1        0.0160
     10  C         19.9640  -22.7770  -10.0700 C.ar    1  UNL1        0.0240
     11  C         23.5110  -22.0570  -11.2230 C.2     1  UNL1       -0.0030
     12  C         24.5570  -21.4790  -10.4910 C.2     1  UNL1        0.0140
     13  C         25.6880  -20.9710  -11.1370 C.2     1  UNL1        0.0090
     14  C         25.8090  -21.0210  -12.5350 C.2     1  UNL1       -0.0390
     15  C         27.0600  -20.4760  -13.1650 C.3     1  UNL1        0.0500
     16  C         24.7640  -21.6110  -13.2710 C.2     1  UNL1        0.0810
     17  C         23.6340  -22.1280  -12.6180 C.2     1  UNL1        0.0390
     18  S         24.8240  -21.7560  -15.0510 S.O2    1  UNL1        0.2420
     19  O         25.9190  -22.6280  -15.4020 O.2     1  UNL1       -0.2060
     20  O         23.4790  -21.9930  -15.5290 O.2     1  UNL1       -0.2060
     21  N         25.1750  -20.1550  -15.5040 N.3     1  UNL1       -0.2070
     22  H         24.2860  -19.6510  -15.4620 H       1  UNL1        0.1400
     23  C         25.8450  -19.8870  -16.8210 C.3     1  UNL1        0.0140
     24  C         26.2590  -18.4020  -16.8010 C.3     1  UNL1        0.0320
     25  C         24.8980  -20.1120  -18.0050 C.3     1  UNL1        0.0320
     26  C         27.1140  -20.7340  -16.9600 C.3     1  UNL1        0.0320
     27  N         19.2600  -24.4430   -8.4170 N.pl3   1  UNL1       -0.3390
     28  H         19.5540  -25.4010   -8.2590 H       1  UNL1        0.1670
     29  C         18.5220  -23.9270   -7.3290 C.2     1  UNL1        0.0340
     30  C         17.2630  -24.4580   -7.0390 C.2     1  UNL1        0.0320
     31  C         16.4820  -23.9440   -5.9970 C.2     1  UNL1        0.0400
     32  C         16.9310  -22.8630   -5.2280 C.2     1  UNL1        0.0840
     33  C         18.1760  -22.2810   -5.5400 C.2     1  UNL1        0.0670
     34  C         18.9500  -22.8200   -6.5890 C.2     1  UNL1        0.0490
     35  O         16.2040  -22.3260   -4.1950 O.2     1  UNL1       -0.3550
     36  C         14.8010  -22.1690   -4.3780 C.3     1  UNL1        0.2100
     37  C         18.7640  -21.0940   -4.8380 C.2     1  UNL1        0.2520
     38  N         18.5570  -20.9660   -3.4950 N.am    1  UNL1       -0.3660
     39  H         18.9790  -20.1810   -3.0160 H       1  UNL1        0.1590
     40  H         18.0080  -21.6420   -2.9790 H       1  UNL1        0.1590
     41  O         19.4200  -20.2450   -5.4320 O.2     1  UNL1       -0.2680
@<TRIPOS>BOND
     1    25    23    1
     2    26    23    1
     3    23    24    1
     4    23    21    1
     5    20    18    2
     6    21    22    1
     7    21    18    1
     8    19    18    2
     9    18    16    1
    10    16    17    1
    11    16    14    2
    12    15    14    1
    13    17    11    2
    14    14    13    1
    15     7     6    2
    16     7     8    1
    17     6     5    1
    18     8     9    2
    19    11     4    1
    20    11    12    1
    21    13    12    2
    22     5     4   ar
    23     5    10   ar
    24     4     3   ar
    25     9    10    1
    26    10     1   ar
    27     3     2   ar
    28     1     2   ar
    29     1    27    1
    30    27    28    1
    31    27    29    1
    32    29    30    2
    33    29    34    1
    34    30    31    1
    35    34    33    2
    36    31    32    2
    37    33    32    1
    38    33    37    1
    39    41    37    2
    40    32    35    1
    41    37    38   am
    42    36    35    1
    43    38    39    1
    44    38    40    1
