@<TRIPOS>MOLECULE
28581_out_ligand_01.pdbqt
 31 34 0 0 0
SMALL
GASTEIGER

@<TRIPOS>ATOM
      1  C         20.8900  -22.3240  -10.6500 C.2     1  UNL1        0.0330
      2  C         21.8420  -23.1010   -9.9410 C.2     1  UNL1        0.0180
      3  C         23.1530  -23.2490  -10.4100 C.2     1  UNL1        0.0190
      4  C         23.4770  -22.6020  -11.5850 C.2     1  UNL1        0.0480
      5  C         22.5520  -21.8350  -12.2740 C.2     1  UNL1        0.0490
      6  C         21.2510  -21.6670  -11.8340 C.2     1  UNL1        0.0350
      7  C         23.2230  -21.2880  -13.4500 C.2     1  UNL1        0.2620
      8  O         22.6820  -20.5730  -14.2710 O.2     1  UNL1       -0.2670
      9  N         24.5080  -21.7490  -13.4130 N.am    1  UNL1       -0.2760
     10  C         24.7380  -22.5430  -12.3240 C.2     1  UNL1        0.2620
     11  O         25.7560  -23.1140  -11.9880 O.2     1  UNL1       -0.2670
     12  C         19.5180  -22.1970  -10.0750 C.2     1  UNL1        0.2560
     13  N         19.3970  -22.5880   -8.7550 N.am    1  UNL1       -0.3230
     14  H         20.2440  -22.8190   -8.2540 H       1  UNL1        0.1690
     15  O         18.6380  -21.7410  -10.7940 O.2     1  UNL1       -0.2670
     16  C         18.2170  -22.6320   -7.9820 C.2     1  UNL1        0.0350
     17  C         16.9850  -23.0750   -8.4590 C.2     1  UNL1        0.0300
     18  C         15.8620  -23.0970   -7.6210 C.2     1  UNL1        0.0100
     19  C         15.9490  -22.6790   -6.2870 C.2     1  UNL1       -0.0550
     20  C         17.1890  -22.2370   -5.8110 C.2     1  UNL1        0.0100
     21  C         18.3090  -22.2160   -6.6490 C.2     1  UNL1        0.0300
     22  C         14.7160  -22.7140   -5.4030 C.3     1  UNL1        0.0100
     23  C         15.0850  -22.6760   -3.9170 C.3     1  UNL1        0.0150
     24  C         13.7430  -21.5860   -5.7520 C.3     1  UNL1        0.0150
     25  C         25.5200  -21.3900  -14.3820 C.3     1  UNL1        0.1750
     26  C         25.2180  -21.9710  -15.7360 C.2     1  UNL1       -0.0220
     27  C         25.1080  -21.1600  -16.8700 C.2     1  UNL1        0.0120
     28  C         24.7990  -21.7340  -18.0990 C.2     1  UNL1        0.0200
     29  C         24.5990  -23.1030  -18.1520 C.2     1  UNL1        0.1160
     30  N         24.6880  -23.9160  -17.0790 N.2     1  UNL1       -0.2730
     31  C         24.9890  -23.3340  -15.8970 C.2     1  UNL1        0.1240
@<TRIPOS>BOND
     1    29    28    2
     2    29    30    1
     3    28    27    1
     4    30    31    2
     5    27    26    2
     6    31    26    1
     7    26    25    1
     8    25     9    1
     9     8     7    2
    10     7     9   am
    11     7     5    1
    12     9    10   am
    13    10    11    2
    14    10     4    1
    15     5     6    1
    16     5     4    2
    17     6     1    2
    18     4     3    1
    19    15    12    2
    20     1    12    1
    21     1     2    1
    22     3     2    2
    23    12    13   am
    24    13    14    1
    25    13    16    1
    26    17    16    2
    27    17    18    1
    28    16    21    1
    29    18    19    2
    30    21    20    2
    31    19    20    1
    32    19    22    1
    33    24    22    1
    34    22    23    1
