@<TRIPOS>MOLECULE
28592_out_ligand_01.pdbqt
 43 47 0 0 0
SMALL
GASTEIGER

@<TRIPOS>ATOM
      1  C         20.2930  -23.9040   -9.1760 C.ar    1  UNL1        0.1610
      2  N         21.5740  -24.2840   -8.9860 N.ar    1  UNL1       -0.1310
      3  N         22.5990  -23.6870   -9.6660 N.ar    1  UNL1       -0.1470
      4  C         22.3430  -22.6960  -10.5460 C.ar    1  UNL1        0.1000
      5  C         21.0310  -22.2700  -10.8200 C.ar    1  UNL1        0.0090
      6  C         20.7150  -21.2660  -11.7710 C.2     1  UNL1        0.0150
      7  C         19.3990  -20.8800  -12.0210 C.2     1  UNL1        0.0010
      8  C         18.3620  -21.4920  -11.3350 C.2     1  UNL1        0.0010
      9  C         18.6440  -22.4880  -10.4000 C.2     1  UNL1        0.0160
     10  C         19.9740  -22.8960  -10.1160 C.ar    1  UNL1        0.0240
     11  C         23.5480  -22.1330  -11.1720 C.2     1  UNL1       -0.0030
     12  C         24.5180  -21.4860  -10.3950 C.2     1  UNL1        0.0140
     13  C         25.6630  -20.9400  -10.9810 C.2     1  UNL1        0.0090
     14  C         25.8800  -21.0230  -12.3660 C.2     1  UNL1       -0.0390
     15  C         27.1200  -20.3890  -12.9340 C.3     1  UNL1        0.0500
     16  C         24.9000  -21.6590  -13.1530 C.2     1  UNL1        0.0860
     17  C         23.7470  -22.2010  -12.5590 C.2     1  UNL1        0.0390
     18  S         25.0500  -21.7880  -14.9270 S.O2    1  UNL1        0.2590
     19  O         23.7330  -22.0240  -15.4750 O.2     1  UNL1       -0.2010
     20  O         26.1650  -22.6560  -15.2380 O.2     1  UNL1       -0.2010
     21  N         25.4900  -20.2300  -15.3550 N.3     1  UNL1       -0.3130
     22  H         25.0270  -19.5110  -14.7930 H       1  UNL1        0.1720
     23  C         25.6640  -19.9110  -16.7790 C.3     1  UNL1        0.1640
     24  C         26.5970  -18.7030  -16.9040 C.3     1  UNL1        0.1400
     25  C         26.1090  -17.6680  -17.9030 C.3     1  UNL1        0.0350
     26  C         26.7770  -16.4160  -17.3890 C.3     1  UNL1        0.0290
     27  C         26.6870  -16.6020  -15.8880 C.3     1  UNL1        0.1680
     28  O         26.6950  -18.0150  -15.6380 O.3     1  UNL1       -0.3840
     29  N         19.2480  -24.5180   -8.4320 N.pl3   1  UNL1       -0.3390
     30  H         18.6840  -25.0760   -9.0680 H       1  UNL1        0.1670
     31  C         18.4570  -23.9610   -7.4030 C.2     1  UNL1        0.0340
     32  C         17.1460  -24.3600   -7.1460 C.2     1  UNL1        0.0320
     33  C         16.3770  -23.7390   -6.1530 C.2     1  UNL1        0.0400
     34  C         16.8910  -22.6750   -5.4020 C.2     1  UNL1        0.0840
     35  C         18.1950  -22.2210   -5.6840 C.2     1  UNL1        0.0670
     36  C         18.9510  -22.8640   -6.6860 C.2     1  UNL1        0.0490
     37  O         16.1790  -22.0370   -4.4170 O.2     1  UNL1       -0.3550
     38  C         14.7670  -22.2200   -4.3980 C.3     1  UNL1        0.2100
     39  C         18.8720  -21.0770   -4.9940 C.2     1  UNL1        0.2520
     40  N         18.5920  -20.8500   -3.6790 N.am    1  UNL1       -0.3660
     41  H         19.0310  -20.0690   -3.2160 H       1  UNL1        0.1590
     42  H         17.9220  -21.4220   -3.1770 H       1  UNL1        0.1590
     43  O         19.6630  -20.3480   -5.5850 O.2     1  UNL1       -0.2680
@<TRIPOS>BOND
     1    25    26    1
     2    25    24    1
     3    26    27    1
     4    24    23    1
     5    24    28    1
     6    23    21    1
     7    27    28    1
     8    19    18    2
     9    21    18    1
    10    21    22    1
    11    20    18    2
    12    18    16    1
    13    16    17    1
    14    16    14    2
    15    15    14    1
    16    17    11    2
    17    14    13    1
    18     7     6    2
    19     7     8    1
    20     6     5    1
    21     8     9    2
    22    11     4    1
    23    11    12    1
    24    13    12    2
    25     5     4   ar
    26     5    10   ar
    27     4     3   ar
    28     9    10    1
    29    10     1   ar
    30     3     2   ar
    31     1     2   ar
    32     1    29    1
    33    30    29    1
    34    29    31    1
    35    31    32    2
    36    31    36    1
    37    32    33    1
    38    36    35    2
    39    33    34    2
    40    35    34    1
    41    35    39    1
    42    43    39    2
    43    34    37    1
    44    39    40   am
    45    37    38    1
    46    40    41    1
    47    40    42    1
