@<TRIPOS>MOLECULE
28620_out_ligand_01.pdbqt
 36 40 0 0 0
SMALL
GASTEIGER

@<TRIPOS>ATOM
      1  C         23.3760  -22.1270  -11.5450 C.2     1  UNL1        0.0800
      2  C         22.1130  -22.1590  -12.1340 C.2     1  UNL1        0.0270
      3  C         20.9760  -22.0410  -11.3300 C.2     1  UNL1        0.0310
      4  C         21.0920  -21.8810   -9.9410 C.2     1  UNL1        0.0340
      5  C         22.3660  -21.8370   -9.3670 C.2     1  UNL1        0.0310
      6  C         23.5090  -21.9550  -10.1650 C.2     1  UNL1        0.0270
      7  N         19.8930  -21.7710   -9.2110 N.am    1  UNL1       -0.3260
      8  C         19.4770  -22.5350   -8.1310 C.2     1  UNL1        0.2350
      9  O         20.0990  -23.4680   -7.6230 O.2     1  UNL1       -0.2720
     10  H         19.2540  -21.0440   -9.5140 H       1  UNL1        0.1690
     11  C         18.1000  -22.1290   -7.5710 C.2     1  UNL1        0.1490
     12  C         17.0100  -23.0510   -8.0710 C.2     1  UNL1       -0.0070
     13  C         16.6800  -23.0980   -9.4350 C.3     1  UNL1        0.0110
     14  C         16.3340  -23.8850   -7.1790 C.2     1  UNL1        0.0830
     15  C         15.6970  -23.9750   -9.8930 C.2     1  UNL1        0.0010
     16  C         15.0330  -24.8090   -8.9960 C.2     1  UNL1        0.0030
     17  C         15.3530  -24.7650   -7.6390 C.2     1  UNL1        0.0380
     18  O         16.5840  -23.9110   -5.8280 O.2     1  UNL1       -0.3100
     19  C         17.3850  -22.9340   -5.2910 C.2     1  UNL1        0.0830
     20  C         17.4360  -22.8780   -3.8970 C.2     1  UNL1        0.0380
     21  C         18.1290  -22.0380   -6.0620 C.2     1  UNL1       -0.0070
     22  C         18.2250  -21.9170   -3.2640 C.2     1  UNL1        0.0030
     23  C         18.9650  -21.0140   -4.0240 C.2     1  UNL1        0.0010
     24  C         18.9190  -21.0730   -5.4170 C.2     1  UNL1        0.0110
     25  S         24.8350  -22.2520  -12.5500 S.O2    1  UNL1        0.2760
     26  O         25.9780  -21.7850  -11.7960 O.2     1  UNL1       -0.2000
     27  O         24.8320  -23.5910  -13.1080 O.2     1  UNL1       -0.2000
     28  N         24.5330  -21.2290  -13.8210 N.pl3   1  UNL1       -0.1090
     29  H         23.5930  -20.8560  -13.8360 H       1  UNL1        0.1980
     30  C         24.9960  -21.6100  -15.0740 C.cat   1  UNL1        0.7360
     31  N         26.3190  -21.4790  -15.2100 N.2     1  UNL1       -0.0740
     32  C         26.8280  -21.9720  -16.3510 C.2     1  UNL1        0.1380
     33  C         26.0730  -22.6090  -17.3090 C.2     1  UNL1        0.0470
     34  C         24.7250  -22.7340  -17.0360 C.2     1  UNL1        0.0510
     35  C         23.8150  -23.4310  -18.0020 C.3     1  UNL1        0.0710
     36  N         24.1740  -22.2540  -15.9040 N.2     1  UNL1       -0.0670
@<TRIPOS>BOND
     1    35    34    1
     2    33    34    1
     3    33    32    2
     4    34    36    2
     5    32    31    1
     6    36    30    1
     7    31    30    2
     8    30    28    1
     9    29    28    1
    10    28    25    1
    11    27    25    2
    12    25    26    2
    13    25     1    1
    14     2     1    2
    15     2     3    1
    16     1     6    1
    17     3     4    2
    18     6     5    2
    19     4     5    1
    20     4     7    1
    21    15    13    1
    22    15    16    2
    23    10     7    1
    24    13    12    1
    25     7     8   am
    26    16    17    1
    27     8     9    2
    28     8    11    1
    29    12    11    2
    30    12    14    1
    31    17    14    2
    32    11    21    1
    33    14    18    1
    34    21    24    1
    35    21    19    2
    36    18    19    1
    37    24    23    2
    38    19    20    1
    39    23    22    1
    40    20    22    2
