@<TRIPOS>MOLECULE
28633_out_ligand_01.pdbqt
 35 38 0 0 0
SMALL
GASTEIGER

@<TRIPOS>ATOM
      1  O         21.1960  -25.1680   -9.2590 O.2     1  UNL1       -0.2730
      2  C         20.7460  -24.1290   -8.7890 C.2     1  UNL1        0.2230
      3  N         21.0950  -22.8410   -9.1680 N.am    1  UNL1       -0.3270
      4  H         20.6380  -22.0820   -8.6800 H       1  UNL1        0.1690
      5  C         22.0420  -22.4570  -10.1410 C.2     1  UNL1        0.0340
      6  C         23.3640  -22.2770   -9.7060 C.2     1  UNL1        0.0310
      7  C         24.3670  -21.8980  -10.6020 C.2     1  UNL1        0.0270
      8  C         24.0490  -21.7030  -11.9470 C.2     1  UNL1        0.0750
      9  C         22.7370  -21.8600  -12.3920 C.2     1  UNL1        0.0270
     10  C         21.7390  -22.2440  -11.4880 C.2     1  UNL1        0.0310
     11  S         25.3200  -21.1870  -13.0760 S.O2    1  UNL1        0.2480
     12  O         25.9910  -20.0180  -12.5460 O.2     1  UNL1       -0.2050
     13  O         26.0840  -22.3770  -13.4000 O.2     1  UNL1       -0.2050
     14  N         24.4880  -20.7950  -14.4610 N.pl3   1  UNL1       -0.1480
     15  H         23.4830  -20.7700  -14.3350 H       1  UNL1        0.1490
     16  C         24.8750  -21.4280  -15.6350 C.cat   1  UNL1        0.2150
     17  N         25.7570  -20.8320  -16.4380 N.2     1  UNL1       -0.2300
     18  C         25.9640  -21.4320  -17.6240 C.2     1  UNL1        0.1210
     19  C         25.2910  -22.5610  -18.0270 C.2     1  UNL1        0.0390
     20  C         24.3640  -23.0500  -17.1350 C.2     1  UNL1        0.1210
     21  N         24.1180  -22.4890  -15.9360 N.2     1  UNL1       -0.2300
     22  C         19.6440  -24.1320   -7.7380 C.3     1  UNL1        0.1170
     23  C         18.9370  -22.7670   -7.6160 C.3     1  UNL1        0.0600
     24  C         17.6700  -22.7470   -8.4730 C.2     1  UNL1       -0.0490
     25  C         16.6030  -23.6310   -8.2410 C.2     1  UNL1        0.0080
     26  C         15.4640  -23.6030   -9.0490 C.2     1  UNL1        0.0010
     27  C         15.3780  -22.6970  -10.1040 C.2     1  UNL1        0.0000
     28  C         16.4310  -21.8200  -10.3540 C.2     1  UNL1        0.0010
     29  C         17.5690  -21.8450   -9.5440 C.2     1  UNL1        0.0080
     30  C         18.6650  -22.3300   -6.1740 C.2     1  UNL1       -0.0490
     31  C         19.1670  -21.0890   -5.7390 C.2     1  UNL1        0.0080
     32  C         18.9410  -20.6370   -4.4380 C.2     1  UNL1        0.0010
     33  C         18.2050  -21.4150   -3.5490 C.2     1  UNL1        0.0000
     34  C         17.6920  -22.6420   -3.9630 C.2     1  UNL1        0.0010
     35  C         17.9160  -23.0960   -5.2660 C.2     1  UNL1        0.0080
@<TRIPOS>BOND
     1    19    18    2
     2    19    20    1
     3    18    17    1
     4    20    21    2
     5    17    16    2
     6    21    16    1
     7    16    14    1
     8    14    15    1
     9    14    11    1
    10    13    11    2
    11    11    12    2
    12    11     8    1
    13     9     8    2
    14     9    10    1
    15     8     7    1
    16    10     5    2
    17     7     6    2
    18    28    27    2
    19    28    29    1
    20     5     6    1
    21     5     3    1
    22    27    26    1
    23    29    24    2
    24     1     2    2
    25     3     2   am
    26     3     4    1
    27    26    25    2
    28     2    22    1
    29    24    25    1
    30    24    23    1
    31    22    23    1
    32    23    30    1
    33    30    31    2
    34    30    35    1
    35    31    32    1
    36    35    34    2
    37    32    33    2
    38    34    33    1
