@<TRIPOS>MOLECULE
28644_out_ligand_01.pdbqt
 29 31 0 0 0
SMALL
GASTEIGER

@<TRIPOS>ATOM
      1  N         24.1500  -23.2490  -10.8030 N.am    1  UNL1       -0.3530
      2  C         23.5760  -22.2060  -10.1110 C.2     1  UNL1        0.2510
      3  O         24.1040  -21.1050  -10.0030 O.2     1  UNL1       -0.2680
      4  H         23.5970  -24.0590  -11.0410 H       1  UNL1        0.1630
      5  C         25.4180  -23.1020  -11.4870 C.3     1  UNL1        0.1610
      6  C         25.2160  -23.0300  -12.9780 C.2     1  UNL1       -0.0400
      7  C         25.5410  -24.1210  -13.7970 C.2     1  UNL1        0.0100
      8  C         25.3560  -24.0470  -15.1770 C.2     1  UNL1        0.0250
      9  C         24.8180  -22.8860  -15.7400 C.2     1  UNL1        0.0740
     10  C         24.4940  -21.7890  -14.9430 C.2     1  UNL1        0.0250
     11  C         24.6910  -21.8640  -13.5630 C.2     1  UNL1        0.0100
     12  S         24.5790  -22.8110  -17.4940 S.O2    1  UNL1        0.2390
     13  O         25.8330  -23.1100  -18.1520 O.2     1  UNL1       -0.2060
     14  O         23.3470  -23.4920  -17.8180 O.2     1  UNL1       -0.2060
     15  N         24.3400  -21.1560  -17.7230 N.3     1  UNL1       -0.2250
     16  H         23.7850  -20.9430  -18.5550 H       1  UNL1        0.1360
     17  H         23.8950  -20.7830  -16.8820 H       1  UNL1        0.1360
     18  C         22.2310  -22.4520   -9.5110 C.2     1  UNL1        0.0320
     19  C         21.9510  -22.2250   -8.1620 C.2     1  UNL1        0.0180
     20  C         20.6690  -22.4790   -7.6580 C.2     1  UNL1        0.0130
     21  C         19.6390  -22.9500   -8.4880 C.2     1  UNL1       -0.0260
     22  C         19.9290  -23.1550   -9.8460 C.2     1  UNL1        0.0130
     23  C         21.2080  -22.9050  -10.3530 C.2     1  UNL1        0.0180
     24  C         18.2960  -23.2190   -7.9490 C.2     1  UNL1       -0.0260
     25  C         18.1030  -24.1570   -6.9220 C.2     1  UNL1        0.0120
     26  C         16.8260  -24.4180   -6.4150 C.2     1  UNL1        0.0010
     27  C         15.7200  -23.7460   -6.9230 C.2     1  UNL1        0.0000
     28  C         15.8890  -22.8090   -7.9370 C.2     1  UNL1        0.0010
     29  C         17.1660  -22.5500   -8.4450 C.2     1  UNL1        0.0120
@<TRIPOS>BOND
     1    16    15    1
     2    13    12    2
     3    14    12    2
     4    15    12    1
     5    15    17    1
     6    12     9    1
     7     9     8    2
     8     9    10    1
     9     8     7    1
    10    10    11    2
    11     7     6    2
    12    11     6    1
    13     6     5    1
    14     5     1    1
    15     4     1    1
    16     1     2   am
    17    23    22    1
    18    23    18    2
    19     2     3    2
    20     2    18    1
    21    22    21    2
    22    18    19    1
    23    21    24    1
    24    21    20    1
    25    29    24    2
    26    29    28    1
    27    19    20    2
    28    24    25    1
    29    28    27    2
    30    27    26    1
    31    25    26    2
