@<TRIPOS>MOLECULE
28659_out_ligand_01.pdbqt
 32 35 0 0 0
SMALL
GASTEIGER

@<TRIPOS>ATOM
      1  N         21.1420  -22.9670   -8.2930 N.am    1  UNL1       -0.3600
      2  C         19.9870  -22.6000   -7.6140 C.2     1  UNL1        0.2300
      3  O         20.0010  -21.7810   -6.6980 O.2     1  UNL1       -0.2720
      4  H         21.0210  -23.3680   -9.2140 H       1  UNL1        0.1620
      5  C         22.3790  -22.2460   -8.0490 C.3     1  UNL1        0.1270
      6  C         23.5780  -22.8670   -8.7710 C.3     1  UNL1        0.0580
      7  C         23.7090  -22.4130  -10.2090 C.2     1  UNL1       -0.0570
      8  C         22.6190  -22.5180  -11.0860 C.2     1  UNL1        0.0090
      9  C         22.7280  -22.0750  -12.4050 C.2     1  UNL1        0.0250
     10  C         23.9350  -21.5340  -12.8520 C.2     1  UNL1        0.0740
     11  C         25.0270  -21.4170  -11.9910 C.2     1  UNL1        0.0250
     12  C         24.9130  -21.8620  -10.6730 C.2     1  UNL1        0.0090
     13  S         24.0610  -20.9580  -14.5250 S.O2    1  UNL1        0.2390
     14  O         25.1770  -20.0470  -14.6060 O.2     1  UNL1       -0.2060
     15  O         23.9130  -22.0900  -15.4100 O.2     1  UNL1       -0.2060
     16  N         22.6420  -20.0670  -14.6820 N.3     1  UNL1       -0.2250
     17  H         21.8690  -20.7060  -14.8720 H       1  UNL1        0.1360
     18  H         22.4510  -19.4650  -13.8820 H       1  UNL1        0.1360
     19  C         18.7160  -23.3110   -8.1170 C.2     1  UNL1        0.1490
     20  C         18.2200  -22.6710   -9.3940 C.2     1  UNL1       -0.0070
     21  C         18.9540  -22.7660  -10.5870 C.3     1  UNL1        0.0110
     22  C         17.0170  -21.9610   -9.3950 C.2     1  UNL1        0.0830
     23  C         18.4960  -22.1480  -11.7520 C.2     1  UNL1        0.0010
     24  C         17.3030  -21.4300  -11.7380 C.2     1  UNL1        0.0030
     25  C         16.5640  -21.3360  -10.5590 C.2     1  UNL1        0.0380
     26  O         16.2110  -21.8300   -8.2900 O.2     1  UNL1       -0.3100
     27  C         16.4860  -22.5990   -7.1850 C.2     1  UNL1        0.0830
     28  C         15.5150  -22.6030   -6.1820 C.2     1  UNL1        0.0380
     29  C         17.6560  -23.3480   -7.0400 C.2     1  UNL1       -0.0070
     30  C         15.7010  -23.3660   -5.0290 C.2     1  UNL1        0.0030
     31  C         16.8610  -24.1230   -4.8780 C.2     1  UNL1        0.0010
     32  C         17.8350  -24.1150   -5.8770 C.2     1  UNL1        0.0110
@<TRIPOS>BOND
     1    15    13    2
     2    17    16    1
     3    16    13    1
     4    16    18    1
     5    14    13    2
     6    13    10    1
     7    10     9    2
     8    10    11    1
     9     9     8    1
    10    11    12    2
    11    23    24    2
    12    23    21    1
    13    24    25    1
    14     8     7    2
    15    12     7    1
    16    21    20    1
    17    25    22    2
    18     7     6    1
    19    22    20    1
    20    22    26    1
    21    20    19    2
    22     4     1    1
    23     6     5    1
    24     1     5    1
    25     1     2   am
    26    26    27    1
    27    19     2    1
    28    19    29    1
    29     2     3    2
    30    27    29    2
    31    27    28    1
    32    29    32    1
    33    28    30    2
    34    32    31    2
    35    30    31    1
