@<TRIPOS>MOLECULE
28698_out_ligand_01.pdbqt
 29 32 0 0 0
SMALL
GASTEIGER

@<TRIPOS>ATOM
      1  N         18.5390  -22.6960   -8.8790 N.am    1  UNL1       -0.2440
      2  C         18.2040  -21.9770  -10.0120 C.2     1  UNL1        0.2660
      3  O         17.1610  -21.4740  -10.3900 O.2     1  UNL1       -0.2670
      4  C         19.4090  -21.8670  -10.8280 C.2     1  UNL1        0.0480
      5  C         19.6150  -21.2420  -12.0420 C.2     1  UNL1        0.0190
      6  C         20.9040  -21.3030  -12.5850 C.2     1  UNL1        0.0180
      7  C         21.9490  -21.9850  -11.9130 C.2     1  UNL1        0.0330
      8  C         21.7090  -22.5980  -10.6750 C.2     1  UNL1        0.0350
      9  C         20.4230  -22.5210  -10.1680 C.2     1  UNL1        0.0490
     10  C         19.8740  -23.0510   -8.9260 C.2     1  UNL1        0.2660
     11  O         20.5880  -23.6820   -8.1680 O.2     1  UNL1       -0.2670
     12  C         23.2980  -21.9970  -12.5500 C.2     1  UNL1        0.2520
     13  O         24.2610  -22.4270  -11.9270 O.2     1  UNL1       -0.2680
     14  N         23.3810  -21.4820  -13.8240 N.am    1  UNL1       -0.3510
     15  H         22.6260  -20.9140  -14.1830 H       1  UNL1        0.1630
     16  C         24.6640  -21.2870  -14.4650 C.3     1  UNL1        0.1870
     17  C         24.6170  -21.9260  -15.8030 C.2     1  UNL1        0.0700
     18  C         24.5840  -23.2400  -16.2230 C.2     1  UNL1        0.0360
     19  C         24.5590  -23.2060  -17.6360 C.2     1  UNL1        0.0270
     20  C         24.5850  -21.8770  -17.9890 C.2     1  UNL1        0.1420
     21  O         24.6250  -21.0910  -16.8830 O.2     1  UNL1       -0.3250
     22  C         17.6340  -23.0250   -7.8180 C.2     1  UNL1        0.0460
     23  C         16.5780  -23.9270   -8.0040 C.2     1  UNL1        0.0310
     24  C         15.6960  -24.2510   -6.9660 C.2     1  UNL1        0.0090
     25  C         15.8350  -23.6840   -5.6970 C.2     1  UNL1       -0.0560
     26  C         14.8660  -24.0530   -4.6090 C.3     1  UNL1        0.0490
     27  C         16.8770  -22.7700   -5.4800 C.2     1  UNL1       -0.0540
     28  C         17.7590  -22.4590   -6.5380 C.2     1  UNL1        0.0370
     29  C         17.0850  -22.1240   -4.1370 C.3     1  UNL1        0.0490
@<TRIPOS>BOND
     1    20    19    2
     2    20    21    1
     3    19    18    1
     4    21    17    1
     5    18    17    2
     6    17    16    1
     7    16    14    1
     8    15    14    1
     9    14    12   am
    10     6     5    1
    11     6     7    2
    12    12    13    2
    13    12     7    1
    14     5     4    2
    15     7     8    1
    16     4     9    1
    17     4     2    1
    18     8     9    2
    19     3     2    2
    20     9    10    1
    21     2     1   am
    22    10     1   am
    23    10    11    2
    24     1    22    1
    25    23    22    2
    26    23    24    1
    27    22    28    1
    28    24    25    2
    29    28    27    2
    30    25    27    1
    31    25    26    1
    32    27    29    1
