@<TRIPOS>MOLECULE
28704_out_ligand_01.pdbqt
 32 35 0 0 0
SMALL
GASTEIGER

@<TRIPOS>ATOM
      1  C         20.0250  -21.9390  -11.1430 C.2     1  UNL1        0.0330
      2  C         18.8820  -21.3000  -11.6840 C.2     1  UNL1        0.0180
      3  C         17.6070  -21.5420  -11.1540 C.2     1  UNL1        0.0190
      4  C         17.5210  -22.4320  -10.1000 C.2     1  UNL1        0.0480
      5  C         18.6340  -23.0680   -9.5800 C.2     1  UNL1        0.0490
      6  C         19.9030  -22.8500  -10.0820 C.2     1  UNL1        0.0350
      7  C         18.1810  -23.9290   -8.4890 C.2     1  UNL1        0.2620
      8  O         18.9150  -24.6210   -7.8110 O.2     1  UNL1       -0.2670
      9  N         16.8240  -23.7740   -8.4120 N.am    1  UNL1       -0.2760
     10  C         16.3570  -22.8900   -9.3430 C.2     1  UNL1        0.2620
     11  O         15.2170  -22.5170   -9.5470 O.2     1  UNL1       -0.2670
     12  C         21.3830  -21.7010  -11.7080 C.2     1  UNL1        0.2560
     13  O         21.4710  -20.9900  -12.7000 O.2     1  UNL1       -0.2670
     14  N         22.4100  -22.3520  -11.0490 N.am    1  UNL1       -0.3230
     15  H         22.1520  -23.0050  -10.3220 H       1  UNL1        0.1690
     16  C         23.7890  -22.2760  -11.3390 C.2     1  UNL1        0.0350
     17  C         24.6820  -21.4350  -10.6740 C.2     1  UNL1        0.0290
     18  C         26.0370  -21.4250  -11.0150 C.2     1  UNL1        0.0030
     19  C         26.5150  -22.2580  -12.0250 C.2     1  UNL1        0.0160
     20  C         25.6380  -23.1060  -12.7110 C.2     1  UNL1        0.0500
     21  C         24.2770  -23.1130  -12.3520 C.2     1  UNL1        0.0450
     22  C         26.1440  -24.0310  -13.7900 C.3     1  UNL1        0.4170
     23  F         25.1760  -24.8280  -14.3180 F       1  UNL1       -0.1660
     24  F         26.6870  -23.3510  -14.8380 F       1  UNL1       -0.1660
     25  F         27.1210  -24.8720  -13.3470 F       1  UNL1       -0.1660
     26  C         15.9900  -24.4210   -7.4250 C.3     1  UNL1        0.1750
     27  C         15.9420  -23.6370   -6.1430 C.2     1  UNL1       -0.0220
     28  C         14.8290  -22.8620   -5.8020 C.2     1  UNL1        0.0120
     29  C         14.8130  -22.1690   -4.5960 C.2     1  UNL1        0.0200
     30  C         15.9120  -22.2820   -3.7610 C.2     1  UNL1        0.1160
     31  N         16.9990  -23.0290   -4.0480 N.2     1  UNL1       -0.2730
     32  C         16.9880  -23.6930   -5.2270 C.2     1  UNL1        0.1240
@<TRIPOS>BOND
     1    24    22    1
     2    23    22    1
     3    22    25    1
     4    22    20    1
     5    20    21    1
     6    20    19    2
     7    13    12    2
     8    21    16    2
     9    19    18    1
    10    12     1    1
    11    12    14   am
    12     2     3    1
    13     2     1    2
    14    16    14    1
    15    16    17    1
    16     3     4    2
    17     1     6    1
    18    14    15    1
    19    18    17    2
    20     4     5    1
    21     4    10    1
    22     6     5    2
    23     5     7    1
    24    11    10    2
    25    10     9   am
    26     7     9   am
    27     7     8    2
    28     9    26    1
    29    26    27    1
    30    27    28    2
    31    27    32    1
    32    28    29    1
    33    32    31    2
    34    29    30    2
    35    31    30    1
