@<TRIPOS>MOLECULE
28712_out_ligand_01.pdbqt
 30 33 0 0 0
SMALL
GASTEIGER

@<TRIPOS>ATOM
      1  C         20.7700  -22.7600  -10.3550 C.2     1  UNL1        0.0330
      2  C         20.0590  -21.8340  -11.1590 C.2     1  UNL1        0.0180
      3  C         20.6740  -21.2210  -12.2590 C.2     1  UNL1        0.0190
      4  C         21.9900  -21.5530  -12.5130 C.2     1  UNL1        0.0480
      5  C         22.6900  -22.4460  -11.7210 C.2     1  UNL1        0.0490
      6  C         22.1130  -23.0650  -10.6300 C.2     1  UNL1        0.0350
      7  C         24.0430  -22.5520  -12.2670 C.2     1  UNL1        0.2620
      8  O         24.9130  -23.2650  -11.8080 O.2     1  UNL1       -0.2670
      9  N         24.0880  -21.7230  -13.3520 N.am    1  UNL1       -0.2760
     10  C         22.8960  -21.0910  -13.5650 C.2     1  UNL1        0.2620
     11  O         22.5860  -20.3010  -14.4350 O.2     1  UNL1       -0.2670
     12  C         20.1320  -23.4070   -9.1730 C.2     1  UNL1        0.2560
     13  N         19.0400  -22.7270   -8.6620 N.am    1  UNL1       -0.3220
     14  H         18.7130  -21.9380   -9.1990 H       1  UNL1        0.1690
     15  O         20.5970  -24.4720   -8.7910 O.2     1  UNL1       -0.2670
     16  C         18.2640  -23.0600   -7.5230 C.2     1  UNL1        0.0410
     17  C         17.2600  -24.0330   -7.5760 C.2     1  UNL1        0.0300
     18  C         16.5140  -24.3560   -6.4450 C.2     1  UNL1        0.0030
     19  C         16.7610  -23.7110   -5.2410 C.2     1  UNL1        0.0070
     20  C         17.7620  -22.7330   -5.1450 C.2     1  UNL1       -0.0540
     21  C         17.9800  -22.0730   -3.8090 C.3     1  UNL1        0.0490
     22  C         18.5260  -22.3990   -6.2920 C.2     1  UNL1       -0.0290
     23  C         19.6060  -21.3450   -6.2090 C.3     1  UNL1        0.0510
     24  C         25.2690  -21.5060  -14.1570 C.3     1  UNL1        0.1750
     25  C         25.0760  -21.9950  -15.5650 C.2     1  UNL1       -0.0220
     26  C         25.0690  -21.1120  -16.6490 C.2     1  UNL1        0.0120
     27  C         24.8650  -21.6010  -17.9350 C.2     1  UNL1        0.0200
     28  C         24.6680  -22.9620  -18.0960 C.2     1  UNL1        0.1160
     29  N         24.6550  -23.8440  -17.0740 N.2     1  UNL1       -0.2730
     30  C         24.8530  -23.3420  -15.8340 C.2     1  UNL1        0.1240
@<TRIPOS>BOND
     1    28    27    2
     2    28    29    1
     3    27    26    1
     4    29    30    2
     5    26    25    2
     6    30    25    1
     7    25    24    1
     8    11    10    2
     9    24     9    1
    10    10     9   am
    11    10     4    1
    12     9     7   am
    13     4     3    2
    14     4     5    1
    15     7     8    2
    16     7     5    1
    17     3     2    1
    18     5     6    2
    19     2     1    2
    20     6     1    1
    21     1    12    1
    22    14    13    1
    23    12    15    2
    24    12    13   am
    25    13    16    1
    26    17    16    2
    27    17    18    1
    28    16    22    1
    29    18    19    2
    30    22    23    1
    31    22    20    2
    32    19    20    1
    33    20    21    1
