@<TRIPOS>MOLECULE
28722_out_ligand_01.pdbqt
 28 31 0 0 0
SMALL
GASTEIGER

@<TRIPOS>ATOM
      1  C         20.1890  -21.9360  -11.2380 C.2     1  UNL1        0.0330
      2  C         19.0410  -21.3160  -11.7940 C.2     1  UNL1        0.0180
      3  C         17.7700  -21.5470  -11.2520 C.2     1  UNL1        0.0190
      4  C         17.6880  -22.4040  -10.1710 C.2     1  UNL1        0.0480
      5  C         18.8060  -23.0220   -9.6380 C.2     1  UNL1        0.0490
      6  C         20.0720  -22.8140  -10.1490 C.2     1  UNL1        0.0350
      7  C         18.3580  -23.8540   -8.5230 C.2     1  UNL1        0.2620
      8  O         19.1010  -24.5200   -7.8280 O.2     1  UNL1       -0.2670
      9  N         17.0020  -23.7030   -8.4480 N.am    1  UNL1       -0.2760
     10  C         16.5270  -22.8440   -9.3990 C.2     1  UNL1        0.2620
     11  O         15.3900  -22.4680   -9.6100 O.2     1  UNL1       -0.2670
     12  C         21.5450  -21.7100  -11.8120 C.2     1  UNL1        0.2560
     13  O         21.6300  -21.0470  -12.8370 O.2     1  UNL1       -0.2670
     14  N         22.5800  -22.3150  -11.1240 N.am    1  UNL1       -0.3220
     15  H         22.3350  -22.9360  -10.3640 H       1  UNL1        0.1690
     16  C         23.9590  -22.2350  -11.4250 C.2     1  UNL1        0.0520
     17  C         24.8620  -21.3990  -10.7750 C.2     1  UNL1        0.0320
     18  C         26.2070  -21.4060  -11.1500 C.2     1  UNL1        0.0210
     19  C         26.6080  -22.2550  -12.1670 C.2     1  UNL1        0.1160
     20  N         25.7700  -23.0840  -12.8210 N.2     1  UNL1       -0.2710
     21  C         24.4720  -23.0520  -12.4340 C.2     1  UNL1        0.1450
     22  C         16.1620  -24.4010   -7.5000 C.3     1  UNL1        0.1740
     23  C         16.0810  -23.6610   -6.1860 C.2     1  UNL1       -0.0400
     24  C         17.0940  -23.8030   -5.2270 C.2     1  UNL1        0.0090
     25  C         17.0060  -23.1380   -4.0030 C.2     1  UNL1        0.0010
     26  C         15.9030  -22.3320   -3.7230 C.2     1  UNL1        0.0000
     27  C         14.8850  -22.1940   -4.6650 C.2     1  UNL1        0.0010
     28  C         14.9700  -22.8590   -5.8890 C.2     1  UNL1        0.0090
@<TRIPOS>BOND
     1    13    12    2
     2    20    21    1
     3    20    19    2
     4    21    16    2
     5    19    18    1
     6    12     1    1
     7    12    14   am
     8     2     3    1
     9     2     1    2
    10    16    14    1
    11    16    17    1
    12     3     4    2
    13     1     6    1
    14    18    17    2
    15    14    15    1
    16     4     5    1
    17     4    10    1
    18     6     5    2
    19     5     7    1
    20    11    10    2
    21    10     9   am
    22     7     9   am
    23     7     8    2
    24     9    22    1
    25    22    23    1
    26    23    28    2
    27    23    24    1
    28    28    27    1
    29    24    25    2
    30    27    26    2
    31    25    26    1
