@<TRIPOS>MOLECULE
28725_out_ligand_01.pdbqt
 32 36 0 0 0
SMALL
GASTEIGER

@<TRIPOS>ATOM
      1  N         26.9720  -24.6390  -12.1020 N.1     1  UNL1       -0.1910
      2  C         26.3040  -23.8110  -12.5700 C.1     1  UNL1        0.1030
      3  C         25.4870  -22.8500  -13.2580 C.ar    1  UNL1        0.0850
      4  C         24.3180  -22.2980  -12.7770 C.ar    1  UNL1        0.0980
      5  S         23.5150  -21.3460  -13.9430 S.2     1  UNL1       -0.0750
      6  C         24.7750  -21.5540  -15.0630 C.ar    1  UNL1       -0.0070
      7  C         25.7620  -22.4050  -14.6000 C.ar    1  UNL1       -0.0210
      8  C         26.9570  -22.7610  -15.4410 C.3     1  UNL1        0.0410
      9  C         26.7540  -22.3870  -16.9180 C.3     1  UNL1        0.0050
     10  C         26.1370  -20.9910  -17.0720 C.3     1  UNL1        0.0050
     11  C         24.7500  -20.9090  -16.4140 C.3     1  UNL1        0.0470
     12  N         23.6210  -22.3540  -11.5870 N.am    1  UNL1       -0.3190
     13  C         24.0070  -21.6630  -10.4550 C.2     1  UNL1        0.2320
     14  O         24.9370  -20.8620  -10.3950 O.2     1  UNL1       -0.2720
     15  H         22.6370  -22.6090  -11.6650 H       1  UNL1        0.1690
     16  C         23.1300  -21.9420   -9.2470 C.3     1  UNL1        0.1850
     17  S         22.0140  -23.3390   -9.5670 S.3     1  UNL1       -0.0800
     18  C         20.6010  -22.5290  -10.1600 C.ar    1  UNL1        0.2030
     19  N         20.5020  -22.0350  -11.3760 N.ar    1  UNL1       -0.1350
     20  N         19.2040  -21.6530  -11.5290 N.ar    1  UNL1        0.0190
     21  N         18.5000  -21.9160  -10.4390 N.ar    1  UNL1        0.0030
     22  N         19.3740  -22.4070   -9.5150 N.ar    1  UNL1       -0.2170
     23  C         18.9240  -22.6910   -8.1940 C.2     1  UNL1        0.0570
     24  C         18.2730  -23.9130   -7.9540 C.2     1  UNL1        0.0320
     25  C         17.8310  -24.2450   -6.6720 C.2     1  UNL1        0.0140
     26  C         18.0080  -23.3580   -5.6030 C.2     1  UNL1       -0.0260
     27  C         17.5680  -23.6820   -4.3090 C.2     1  UNL1        0.0120
     28  C         18.6320  -22.1120   -5.8360 C.2     1  UNL1       -0.0240
     29  C         17.7300  -22.7800   -3.2570 C.2     1  UNL1        0.0010
     30  C         18.3320  -21.5460   -3.4850 C.2     1  UNL1        0.0010
     31  C         18.7810  -21.2150   -4.7650 C.2     1  UNL1        0.0120
     32  C         19.0830  -21.7900   -7.1330 C.2     1  UNL1        0.0430
@<TRIPOS>BOND
     1    10     9    1
     2    10    11    1
     3     9     8    1
     4    11     6    1
     5     8     7    1
     6     6     7   ar
     7     6     5   ar
     8     7     3   ar
     9     5     4   ar
    10     3     4   ar
    11     3     2    1
    12     4    12    1
    13     2     1    3
    14    15    12    1
    15    12    13   am
    16    20    19   ar
    17    20    21   ar
    18    19    18   ar
    19    13    14    2
    20    13    16    1
    21    21    22   ar
    22    18    17    1
    23    18    22   ar
    24    17    16    1
    25    22    23    1
    26    23    24    2
    27    23    32    1
    28    24    25    1
    29    32    28    2
    30    25    26    2
    31    28    26    1
    32    28    31    1
    33    26    27    1
    34    31    30    2
    35    27    29    2
    36    30    29    1
