@<TRIPOS>MOLECULE
28737_out_ligand_01.pdbqt
 29 32 0 0 0
SMALL
GASTEIGER

@<TRIPOS>ATOM
      1  C         20.1310  -21.9380  -11.1980 C.2     1  UNL1        0.0330
      2  C         18.9790  -21.3210  -11.7500 C.2     1  UNL1        0.0180
      3  C         17.7100  -21.5570  -11.2050 C.2     1  UNL1        0.0190
      4  C         17.6350  -22.4150  -10.1250 C.2     1  UNL1        0.0480
      5  C         18.7560  -23.0300   -9.5960 C.2     1  UNL1        0.0490
      6  C         20.0190  -22.8180  -10.1100 C.2     1  UNL1        0.0350
      7  C         18.3130  -23.8710   -8.4840 C.2     1  UNL1        0.2620
      8  O         19.0550  -24.5440   -7.7950 O.2     1  UNL1       -0.2670
      9  N         16.9570  -23.7200   -8.4030 N.am    1  UNL1       -0.2760
     10  C         16.4780  -22.8630   -9.3520 C.2     1  UNL1        0.2620
     11  O         15.3360  -22.5010   -9.5570 O.2     1  UNL1       -0.2670
     12  C         21.4840  -21.7060  -11.7760 C.2     1  UNL1        0.2560
     13  O         21.5600  -21.0410  -12.8020 O.2     1  UNL1       -0.2670
     14  N         22.5240  -22.3100  -11.0940 N.am    1  UNL1       -0.3230
     15  H         22.2790  -22.9350  -10.3370 H       1  UNL1        0.1690
     16  C         23.9020  -22.2270  -11.3900 C.2     1  UNL1        0.0360
     17  C         24.7990  -21.4040  -10.7050 C.2     1  UNL1        0.0290
     18  C         26.1530  -21.3810  -11.0540 C.2     1  UNL1        0.0030
     19  C         26.6260  -22.1830  -12.0910 C.2     1  UNL1        0.0180
     20  C         25.7370  -23.0080  -12.7760 C.2     1  UNL1        0.0080
     21  I         26.4300  -24.2110  -14.3250 I       1  UNL1       -0.0450
     22  C         24.3830  -23.0340  -12.4310 C.2     1  UNL1        0.0470
     23  C         16.1200  -24.4200   -7.4530 C.3     1  UNL1        0.1750
     24  C         16.0260  -23.6770   -6.1480 C.2     1  UNL1       -0.0220
     25  C         14.9130  -22.8910   -5.8350 C.2     1  UNL1        0.0120
     26  C         14.8730  -22.2010   -4.6280 C.2     1  UNL1        0.0200
     27  C         15.9560  -22.3150   -3.7720 C.2     1  UNL1        0.1160
     28  N         17.0520  -23.0540   -4.0440 N.2     1  UNL1       -0.2730
     29  C         17.0660  -23.7120   -5.2260 C.2     1  UNL1        0.1240
@<TRIPOS>BOND
     1    21    20    1
     2    13    12    2
     3    20    22    1
     4    20    19    2
     5    22    16    2
     6    19    18    1
     7    12     1    1
     8    12    14   am
     9     2     3    1
    10     2     1    2
    11    16    14    1
    12    16    17    1
    13     3     4    2
    14     1     6    1
    15    14    15    1
    16    18    17    2
    17     4     5    1
    18     4    10    1
    19     6     5    2
    20     5     7    1
    21    11    10    2
    22    10     9   am
    23     7     9   am
    24     7     8    2
    25     9    23    1
    26    23    24    1
    27    24    25    2
    28    24    29    1
    29    25    26    1
    30    29    28    2
    31    26    27    2
    32    28    27    1
