@<TRIPOS>MOLECULE
28731_out_ligand_01.pdbqt
 33 36 0 0 0
SMALL
GASTEIGER

@<TRIPOS>ATOM
      1  C         21.4770  -22.8930   -8.3500 C.3     1  UNL1        0.1850
      2  C         22.3550  -22.2270   -9.4040 C.2     1  UNL1        0.2310
      3  N         22.3310  -22.8810  -10.6290 N.am    1  UNL1       -0.3270
      4  H         21.7670  -23.7250  -10.6760 H       1  UNL1        0.1690
      5  O         23.0020  -21.2190   -9.1350 O.2     1  UNL1       -0.2720
      6  C         23.0160  -22.5360  -11.8040 C.2     1  UNL1        0.0340
      7  C         24.2890  -23.0110  -12.1400 C.2     1  UNL1        0.0310
      8  C         24.9060  -22.5950  -13.3280 C.2     1  UNL1        0.0270
      9  C         24.2490  -21.6850  -14.1730 C.2     1  UNL1        0.0740
     10  C         22.9710  -21.2240  -13.8610 C.2     1  UNL1        0.0270
     11  C         22.3550  -21.6570  -12.6820 C.2     1  UNL1        0.0310
     12  S         25.0660  -21.1080  -15.6390 S.O2    1  UNL1        0.2390
     13  O         26.3910  -21.6890  -15.6740 O.2     1  UNL1       -0.2060
     14  O         24.1460  -21.1920  -16.7550 O.2     1  UNL1       -0.2060
     15  N         25.2780  -19.4720  -15.2770 N.3     1  UNL1       -0.2250
     16  H         24.8300  -18.8520  -15.9510 H       1  UNL1        0.1360
     17  H         24.9480  -19.3040  -14.3250 H       1  UNL1        0.1360
     18  S         20.2580  -23.9890   -9.1370 S.3     1  UNL1       -0.0800
     19  C         19.0980  -22.8240   -9.6960 C.ar    1  UNL1        0.2030
     20  N         19.2090  -22.1610  -10.8270 N.ar    1  UNL1       -0.1350
     21  N         17.9970  -21.5650  -11.0310 N.ar    1  UNL1        0.0190
     22  N         17.1580  -21.8390  -10.0440 N.ar    1  UNL1        0.0030
     23  N         17.8360  -22.6110   -9.1550 N.ar    1  UNL1       -0.2160
     24  C         17.2780  -22.9830   -7.9010 C.2     1  UNL1        0.0680
     25  C         16.2710  -23.9660   -7.9020 C.2     1  UNL1        0.0320
     26  C         15.7290  -24.4210   -6.7030 C.2     1  UNL1        0.0030
     27  C         16.1880  -23.9030   -5.4970 C.2     1  UNL1        0.0120
     28  C         17.1870  -22.9190   -5.4620 C.2     1  UNL1       -0.0240
     29  C         17.6040  -22.4150   -4.2200 C.2     1  UNL1        0.0120
     30  C         17.7570  -22.4280   -6.6700 C.2     1  UNL1        0.0030
     31  C         18.5680  -21.4110   -4.1300 C.2     1  UNL1        0.0010
     32  C         19.1230  -20.8940   -5.2900 C.2     1  UNL1        0.0010
     33  C         18.7210  -21.3870   -6.5340 C.2     1  UNL1        0.0140
@<TRIPOS>BOND
     1    14    12    2
     2    16    15    1
     3    13    12    2
     4    12    15    1
     5    12     9    1
     6    15    17    1
     7     9    10    2
     8     9     8    1
     9    10    11    1
    10     8     7    2
    11    11     6    2
    12     7     6    1
    13     6     3    1
    14    21    20   ar
    15    21    22   ar
    16    20    19   ar
    17     4     3    1
    18     3     2   am
    19    22    23   ar
    20    19    23   ar
    21    19    18    1
    22     2     5    2
    23     2     1    1
    24    23    24    1
    25    18     1    1
    26    25    24    2
    27    25    26    1
    28    24    30    1
    29    26    27    2
    30    30    33    1
    31    30    28    2
    32    33    32    2
    33    27    28    1
    34    28    29    1
    35    32    31    1
    36    29    31    2
