@<TRIPOS>MOLECULE
28742_out_ligand_01.pdbqt
 30 33 0 0 0
SMALL
GASTEIGER

@<TRIPOS>ATOM
      1  C         20.0450  -22.1290   -6.9630 C.3     1  UNL1        0.0500
      2  C         20.8700  -22.2600   -8.2160 C.2     1  UNL1       -0.0350
      3  C         22.2320  -21.9230   -8.1510 C.2     1  UNL1        0.0100
      4  C         23.0520  -22.0290   -9.2750 C.2     1  UNL1        0.0160
      5  C         22.5290  -22.4760  -10.4910 C.2     1  UNL1        0.0120
      6  C         21.1670  -22.8180  -10.5570 C.2     1  UNL1        0.0450
      7  C         20.3260  -22.7110   -9.4390 C.2     1  UNL1        0.0410
      8  N         18.9530  -23.0490   -9.4820 N.am    1  UNL1       -0.3270
      9  C         17.9320  -22.4110  -10.1640 C.2     1  UNL1        0.2220
     10  O         18.0140  -21.3710  -10.8070 O.2     1  UNL1       -0.2730
     11  H         18.6860  -23.8780   -8.9680 H       1  UNL1        0.1690
     12  C         16.6030  -23.1350  -10.0190 C.3     1  UNL1        0.1030
     13  C         15.9230  -22.8410   -8.6790 C.3     1  UNL1        0.0140
     14  C         16.0140  -23.9860   -7.6560 C.3     1  UNL1        0.0390
     15  C         16.0330  -23.5200   -6.2180 C.2     1  UNL1       -0.0580
     16  C         14.9620  -22.7890   -5.6870 C.2     1  UNL1        0.0070
     17  C         14.9960  -22.3440   -4.3630 C.2     1  UNL1        0.0010
     18  C         16.0980  -22.6270   -3.5570 C.2     1  UNL1        0.0000
     19  C         17.1660  -23.3580   -4.0730 C.2     1  UNL1        0.0010
     20  C         17.1340  -23.8050   -5.3970 C.2     1  UNL1        0.0070
     21  C         23.3670  -22.6130  -11.6870 C.ar    1  UNL1        0.1390
     22  N         23.3700  -21.8080  -12.7360 N.ar    1  UNL1       -0.2280
     23  C         24.3060  -22.3100  -13.6050 C.ar    1  UNL1        0.0860
     24  C         24.7020  -21.8440  -14.8660 C.2     1  UNL1        0.0340
     25  C         24.9050  -23.4480  -13.0800 C.ar    1  UNL1        0.0620
     26  C         25.6950  -22.5480  -15.5590 C.2     1  UNL1        0.0020
     27  C         26.2810  -23.6910  -15.0050 C.2     1  UNL1        0.0020
     28  C         25.8990  -24.1700  -13.7450 C.2     1  UNL1        0.0320
     29  N         24.2990  -23.6140  -11.8610 N.ar    1  UNL1       -0.3380
     30  H         24.5130  -24.3360  -11.1900 H       1  UNL1        0.1670
@<TRIPOS>BOND
     1    26    27    2
     2    26    24    1
     3    27    28    1
     4    24    23    2
     5    28    25    2
     6    23    25   ar
     7    23    22   ar
     8    25    29   ar
     9    22    21   ar
    10    29    21   ar
    11    29    30    1
    12    21     5    1
    13    10     9    2
    14     6     5    2
    15     6     7    1
    16     5     4    1
    17     9    12    1
    18     9     8   am
    19    12    13    1
    20     8     7    1
    21     8    11    1
    22     7     2    2
    23     4     3    2
    24    13    14    1
    25     2     3    1
    26     2     1    1
    27    14    15    1
    28    15    16    2
    29    15    20    1
    30    16    17    1
    31    20    19    2
    32    17    18    2
    33    19    18    1
