@<TRIPOS>MOLECULE
28746_out_ligand_01.pdbqt
 29 32 0 0 0
SMALL
GASTEIGER

@<TRIPOS>ATOM
      1  N         22.8170  -22.4510  -11.4380 N.am    1  UNL1       -0.2440
      2  C         21.8970  -21.7470  -12.1930 C.2     1  UNL1        0.2660
      3  O         21.9960  -21.0890  -13.2130 O.2     1  UNL1       -0.2670
      4  C         20.5990  -21.8920  -11.5420 C.2     1  UNL1        0.0480
      5  C         19.3590  -21.3950  -11.9010 C.2     1  UNL1        0.0190
      6  C         18.2740  -21.7060  -11.0740 C.2     1  UNL1        0.0180
      7  C         18.4560  -22.4950   -9.9110 C.2     1  UNL1        0.0330
      8  C         19.7240  -22.9980   -9.5850 C.2     1  UNL1        0.0350
      9  C         20.7760  -22.6710  -10.4230 C.2     1  UNL1        0.0490
     10  C         22.1890  -23.0260  -10.3490 C.2     1  UNL1        0.2660
     11  O         22.6030  -23.7050   -9.4260 O.2     1  UNL1       -0.2670
     12  C         17.3110  -22.8500   -9.0280 C.2     1  UNL1        0.2560
     13  O         16.2640  -23.2010   -9.5560 O.2     1  UNL1       -0.2670
     14  N         17.5670  -22.7780   -7.6730 N.am    1  UNL1       -0.3220
     15  H         18.5170  -22.5900   -7.3810 H       1  UNL1        0.1690
     16  C         16.6460  -23.0290   -6.6320 C.2     1  UNL1        0.0520
     17  C         15.5150  -22.2130   -6.5540 C.2     1  UNL1        0.0320
     18  C         14.5710  -22.4220   -5.5500 C.2     1  UNL1        0.0210
     19  C         14.7870  -23.4490   -4.6490 C.2     1  UNL1        0.1160
     20  N         15.8620  -24.2610   -4.6890 N.2     1  UNL1       -0.2710
     21  C         16.7680  -24.0350   -5.6770 C.2     1  UNL1        0.1450
     22  C         24.2150  -22.5600  -11.7380 C.2     1  UNL1        0.0480
     23  C         25.1410  -21.6090  -11.2800 C.2     1  UNL1        0.0300
     24  C         26.5050  -21.7130  -11.5700 C.2     1  UNL1        0.0050
     25  C         26.9740  -22.7770  -12.3290 C.2     1  UNL1        0.0370
     26  C         26.0890  -23.7390  -12.8040 C.2     1  UNL1        0.0700
     27  C         24.7240  -23.6270  -12.5080 C.2     1  UNL1        0.0660
     28  O         26.6740  -24.7350  -13.5400 O.2     1  UNL1       -0.3560
     29  C         26.2510  -24.8770  -14.8910 C.3     1  UNL1        0.2100
@<TRIPOS>BOND
     1    29    28    1
     2    28    26    1
     3     3     2    2
     4    26    27    1
     5    26    25    2
     6    27    22    2
     7    25    24    1
     8     2     4    1
     9     2     1   am
    10     5     4    2
    11     5     6    1
    12    22     1    1
    13    22    23    1
    14    24    23    2
    15     4     9    1
    16     1    10   am
    17     6     7    2
    18     9    10    1
    19     9     8    2
    20    10    11    2
    21     7     8    1
    22     7    12    1
    23    13    12    2
    24    12    14   am
    25    14    15    1
    26    14    16    1
    27    16    17    2
    28    16    21    1
    29    17    18    1
    30    21    20    2
    31    18    19    2
    32    20    19    1
