@<TRIPOS>MOLECULE
28759_out_ligand_01.pdbqt
 34 37 0 0 0
SMALL
GASTEIGER

@<TRIPOS>ATOM
      1  C         20.6730  -21.4530  -10.7910 C.3     1  UNL1        0.1970
      2  C         19.5410  -20.6050  -11.3770 C.3     1  UNL1        0.0380
      3  C         18.4190  -21.6010  -11.6190 C.3     1  UNL1        0.0230
      4  C         18.5520  -22.5650  -10.4460 C.3     1  UNL1        0.1360
      5  N         20.0040  -22.6640  -10.2500 N.3     1  UNL1       -0.2920
      6  C         21.7200  -21.7910  -11.8420 C.2     1  UNL1        0.3060
      7  O         21.5150  -21.8450  -13.0480 O.2     1  UNL1       -0.2610
      8  O         22.9170  -21.9750  -11.1940 O.3     1  UNL1       -0.1710
      9  N         23.5030  -23.2000  -11.5380 N.4     1  UNL1       -0.1120
     10  C         24.6670  -23.0360  -12.1120 C.2     1  UNL1        0.1390
     11  C         25.3420  -21.7200  -12.2670 C.2     1  UNL1        0.0090
     12  C         26.0790  -21.1840  -11.2050 C.2     1  UNL1        0.0150
     13  C         26.7130  -19.9530  -11.3690 C.2     1  UNL1        0.0040
     14  C         26.5970  -19.2650  -12.5810 C.2     1  UNL1        0.0370
     15  C         25.8510  -19.7990  -13.6400 C.2     1  UNL1        0.0690
     16  C         25.2310  -21.0410  -13.4870 C.2     1  UNL1        0.0510
     17  O         25.8160  -19.0130  -14.7670 O.2     1  UNL1       -0.3560
     18  C         26.8640  -18.0650  -14.9190 C.3     1  UNL1        0.2100
     19  N         25.3180  -24.1360  -12.6070 N.2     1  UNL1       -0.2840
     20  H         25.9510  -23.8840  -13.3610 H       1  UNL1        0.1250
     21  H         24.7380  -24.9460  -12.8210 H       1  UNL1        0.1250
     22  S         20.6530  -23.4210   -8.9040 S.O2    1  UNL1        0.2610
     23  O         21.9070  -22.7680   -8.5900 O.2     1  UNL1       -0.2000
     24  O         20.5720  -24.8580   -9.0980 O.2     1  UNL1       -0.2000
     25  C         19.5150  -22.9990   -7.5980 C.2     1  UNL1        0.0800
     26  C         19.7610  -21.8860   -6.7960 C.2     1  UNL1        0.0260
     27  C         18.8590  -21.5590   -5.7830 C.2     1  UNL1        0.0140
     28  C         17.7040  -22.3350   -5.5700 C.2     1  UNL1       -0.0260
     29  C         16.7930  -22.0270   -4.5490 C.2     1  UNL1        0.0120
     30  C         17.4470  -23.4480   -6.4030 C.2     1  UNL1       -0.0250
     31  C         15.6500  -22.8100   -4.3480 C.2     1  UNL1        0.0010
     32  C         15.4010  -23.9080   -5.1670 C.2     1  UNL1        0.0010
     33  C         16.2930  -24.2250   -6.1880 C.2     1  UNL1        0.0120
     34  C         18.3520  -23.7600   -7.4240 C.2     1  UNL1        0.0370
@<TRIPOS>BOND
     1    18    17    1
     2    17    15    1
     3    15    16    1
     4    15    14    2
     5    16    11    2
     6    20    19    1
     7     7     6    2
     8    21    19    1
     9    19    10    2
    10    14    13    1
    11    11    10    1
    12    11    12    1
    13    10     9    1
    14     6     8    1
    15     6     1    1
    16     3     2    1
    17     3     4    1
    18     9     8    1
    19     2     1    1
    20    13    12    2
    21     1     5    1
    22     4     5    1
    23     5    22    1
    24    24    22    2
    25    22    23    2
    26    22    25    1
    27    25    34    2
    28    25    26    1
    29    34    30    1
    30    26    27    2
    31    30    33    1
    32    30    28    2
    33    33    32    2
    34    27    28    1
    35    28    29    1
    36    32    31    1
    37    29    31    2
