@<TRIPOS>MOLECULE
28753_out_ligand_01.pdbqt
 38 41 0 0 0
SMALL
GASTEIGER

@<TRIPOS>ATOM
      1  C         21.4610  -22.2940   -9.9330 C.2     1  UNL1        0.1030
      2  C         20.1500  -21.8700  -10.1550 C.2     1  UNL1        0.0520
      3  C         19.7850  -21.3740  -11.4140 C.2     1  UNL1       -0.0140
      4  C         20.7230  -21.2960  -12.4490 C.2     1  UNL1        0.0160
      5  C         22.0270  -21.7450  -12.2380 C.2     1  UNL1        0.0410
      6  C         22.3900  -22.2230  -10.9780 C.2     1  UNL1        0.1120
      7  C         18.4130  -20.8530  -11.5830 C.2     1  UNL1        0.1500
      8  N         17.2830  -21.3670  -11.2020 N.2     1  UNL1       -0.1840
      9  N         17.2940  -22.4570  -10.3850 N.am    1  UNL1       -0.2460
     10  C         16.1290  -22.8300   -9.7240 C.2     1  UNL1        0.2610
     11  O         15.0040  -22.3870   -9.9420 O.2     1  UNL1       -0.2690
     12  H         18.1810  -22.7590   -9.9850 H       1  UNL1        0.1920
     13  C         16.3750  -23.9200   -8.6860 C.3     1  UNL1        0.2800
     14  O         17.4630  -23.6210   -7.8130 O.2     1  UNL1       -0.3420
     15  C         17.0970  -23.2330   -6.5450 C.2     1  UNL1        0.0750
     16  C         15.8850  -23.6170   -5.9620 C.2     1  UNL1        0.0370
     17  C         15.5640  -23.2040   -4.6700 C.2     1  UNL1        0.0030
     18  C         16.4500  -22.4040   -3.9560 C.2     1  UNL1        0.0070
     19  C         17.6650  -21.9920   -4.5280 C.2     1  UNL1       -0.0530
     20  C         18.5920  -21.1360   -3.7080 C.3     1  UNL1        0.0490
     21  C         17.9790  -22.3760   -5.8530 C.2     1  UNL1       -0.0230
     22  C         19.2730  -21.9420   -6.4950 C.3     1  UNL1        0.0520
     23  O         21.8640  -22.8440   -8.7470 O.2     1  UNL1       -0.3490
     24  C         21.9820  -24.2710   -8.8120 C.3     1  UNL1        0.1710
     25  C         20.5840  -24.8580   -8.7640 C.3     1  UNL1        0.0340
     26  O         23.7070  -22.6550  -10.8070 O.3     1  UNL1       -0.2720
     27  C         24.3740  -22.7840  -12.0090 C.2     1  UNL1        0.2990
     28  O         24.4300  -23.7560  -12.7470 O.2     1  UNL1       -0.2590
     29  C         25.1930  -21.5710  -12.2060 C.2     1  UNL1        0.0510
     30  C         25.8000  -21.0550  -11.0500 C.2     1  UNL1        0.0180
     31  C         26.5690  -19.9020  -11.1250 C.2     1  UNL1        0.0020
     32  C         26.7410  -19.2680  -12.3540 C.2     1  UNL1        0.0120
     33  C         26.1610  -19.7830  -13.5270 C.2     1  UNL1       -0.0250
     34  C         26.3700  -19.1370  -14.7570 C.2     1  UNL1        0.0120
     35  C         25.3720  -20.9590  -13.4730 C.2     1  UNL1       -0.0100
     36  C         25.8270  -19.6420  -15.9360 C.2     1  UNL1        0.0010
     37  C         25.0580  -20.7970  -15.9030 C.2     1  UNL1        0.0010
     38  C         24.8320  -21.4470  -14.6880 C.2     1  UNL1        0.0130
@<TRIPOS>BOND
     1    36    37    1
     2    36    34    2
     3    37    38    2
     4    34    33    1
     5    38    35    1
     6    33    35    1
     7    33    32    2
     8    35    29    2
     9    28    27    2
    10     4     5    2
    11     4     3    1
    12    32    31    1
    13     5     6    1
    14    29    27    1
    15    29    30    1
    16    27    26    1
    17     7     3    1
    18     7     8    2
    19     3     2    2
    20     8     9    1
    21    31    30    2
    22     6    26    1
    23     6     1    2
    24     9    12    1
    25     9    10   am
    26     2     1    1
    27    11    10    2
    28     1    23    1
    29    10    13    1
    30    24    25    1
    31    24    23    1
    32    13    14    1
    33    14    15    1
    34    15    16    2
    35    15    21    1
    36    22    21    1
    37    16    17    1
    38    21    19    2
    39    17    18    2
    40    19    18    1
    41    19    20    1
