@<TRIPOS>MOLECULE
28763_out_ligand_01.pdbqt
 35 38 0 0 0
SMALL
GASTEIGER

@<TRIPOS>ATOM
      1  C         22.1850  -22.8030  -10.5460 C.2     1  UNL1        0.0320
      2  C         22.1950  -23.6330   -9.4140 C.2     1  UNL1        0.0180
      3  C         21.0650  -23.7110   -8.5970 C.2     1  UNL1        0.0150
      4  C         19.9400  -22.9420   -8.9050 C.2     1  UNL1       -0.0050
      5  C         19.9180  -22.1090  -10.0260 C.2     1  UNL1        0.0150
      6  C         21.0490  -22.0340  -10.8410 C.2     1  UNL1        0.0180
      7  C         23.3740  -22.6810  -11.4370 C.2     1  UNL1        0.2560
      8  N         23.2380  -21.7760  -12.4740 N.am    1  UNL1       -0.3230
      9  H         22.4230  -21.1780  -12.4510 H       1  UNL1        0.1690
     10  O         24.3670  -23.3460  -11.1670 O.2     1  UNL1       -0.2670
     11  C         24.1580  -21.5200  -13.5110 C.2     1  UNL1        0.0360
     12  C         25.2090  -20.6450  -13.2260 C.2     1  UNL1        0.0320
     13  C         26.1590  -20.3200  -14.2010 C.2     1  UNL1        0.0400
     14  C         26.0760  -20.8600  -15.4910 C.2     1  UNL1        0.0840
     15  C         25.0190  -21.7460  -15.7890 C.2     1  UNL1        0.0670
     16  C         24.0700  -22.0630  -14.7930 C.2     1  UNL1        0.0490
     17  O         26.9720  -20.5640  -16.4880 O.2     1  UNL1       -0.3550
     18  C         27.0080  -19.2290  -16.9820 C.3     1  UNL1        0.2100
     19  C         24.8050  -22.3840  -17.1280 C.2     1  UNL1        0.2520
     20  N         24.3400  -21.6070  -18.1500 N.am    1  UNL1       -0.3660
     21  H         23.9890  -20.6740  -17.9710 H       1  UNL1        0.1590
     22  H         24.0730  -22.0780  -19.0020 H       1  UNL1        0.1590
     23  O         25.0370  -23.5710  -17.3270 O.2     1  UNL1       -0.2680
     24  C         18.7510  -23.0280   -8.0340 C.ar    1  UNL1        0.0980
     25  N         17.7930  -23.8100   -8.4280 N.ar    1  UNL1       -0.1690
     26  N         16.6570  -23.9130   -7.6650 N.ar    1  UNL1       -0.2380
     27  C         15.6490  -24.8340   -8.1570 C.3     1  UNL1        0.1830
     28  C         16.4690  -23.2640   -6.4460 C.ar    1  UNL1        0.2740
     29  O         15.4700  -23.3920   -5.7400 O.2     1  UNL1       -0.2660
     30  C         17.5580  -22.3770   -6.0000 C.ar    1  UNL1        0.0460
     31  C         17.4450  -21.6770   -4.7910 C.2     1  UNL1        0.0180
     32  C         18.7010  -22.2460   -6.7810 C.ar    1  UNL1        0.0110
     33  C         18.4850  -20.8470   -4.3650 C.2     1  UNL1        0.0010
     34  C         19.6330  -20.7190   -5.1430 C.2     1  UNL1        0.0010
     35  C         19.7460  -21.4170   -6.3490 C.2     1  UNL1        0.0150
@<TRIPOS>BOND
     1    22    20    1
     2    20    21    1
     3    20    19   am
     4    23    19    2
     5    19    15    1
     6    18    17    1
     7    17    14    1
     8    15    14    2
     9    15    16    1
    10    14    13    1
    11    16    11    2
    12    13    12    2
    13    11    12    1
    14    11     8    1
    15     8     9    1
    16     8     7   am
    17     7    10    2
    18     7     1    1
    19     6     1    2
    20     6     5    1
    21     1     2    1
    22     5     4    2
    23     2     3    2
    24     4     3    1
    25     4    24    1
    26    25    24   ar
    27    25    26   ar
    28    27    26    1
    29    24    32   ar
    30    26    28   ar
    31    32    35    1
    32    32    30   ar
    33    28    30   ar
    34    28    29    2
    35    35    34    2
    36    30    31    1
    37    34    33    1
    38    31    33    2
