@<TRIPOS>MOLECULE
28767_out_ligand_01.pdbqt
 29 31 0 0 0
SMALL
GASTEIGER

@<TRIPOS>ATOM
      1  N         19.1640  -23.1300   -6.9690 N.am    1  UNL1       -0.3230
      2  C         18.5660  -22.1560   -6.1860 C.2     1  UNL1        0.2570
      3  O         18.9900  -21.0340   -5.9460 O.2     1  UNL1       -0.2670
      4  H         18.6810  -24.0190   -7.0300 H       1  UNL1        0.1690
      5  C         17.2720  -22.5810   -5.6030 C.2     1  UNL1        0.0490
      6  C         16.9640  -22.1110   -4.3130 C.2     1  UNL1        0.0180
      7  C         15.7750  -22.4800   -3.6920 C.2     1  UNL1        0.0010
      8  C         14.8920  -23.3260   -4.3490 C.2     1  UNL1        0.0010
      9  C         15.2000  -23.8060   -5.6260 C.2     1  UNL1        0.0190
     10  C         16.3890  -23.4390   -6.2770 C.2     1  UNL1        0.0160
     11  S         16.6400  -24.1640   -7.8990 S.3     1  UNL1       -0.1240
     12  C         15.9560  -22.8840   -9.0100 C.3     1  UNL1        0.1170
     13  C         16.9510  -22.2920   -9.9800 C.2     1  UNL1       -0.0490
     14  C         16.7060  -21.0730  -10.6200 C.2     1  UNL1        0.0080
     15  C         17.6350  -20.5410  -11.5150 C.2     1  UNL1        0.0010
     16  C         18.8140  -21.2240  -11.7910 C.2     1  UNL1        0.0000
     17  C         19.0590  -22.4460  -11.1820 C.2     1  UNL1        0.0010
     18  C         18.1300  -22.9800  -10.2870 C.2     1  UNL1        0.0080
     19  C         20.3880  -23.0380   -7.6610 C.2     1  UNL1        0.0350
     20  C         20.7500  -24.1240   -8.4720 C.2     1  UNL1        0.0300
     21  C         21.9510  -24.1140   -9.1910 C.2     1  UNL1        0.0190
     22  C         22.8050  -23.0110   -9.1070 C.2     1  UNL1        0.0320
     23  C         22.4400  -21.9190   -8.3120 C.2     1  UNL1        0.0190
     24  C         21.2420  -21.9360   -7.5900 C.2     1  UNL1        0.0300
     25  C         24.0840  -22.9450   -9.8600 C.2     1  UNL1        0.2490
     26  N         25.0360  -23.8850   -9.5710 N.am    1  UNL1       -0.3660
     27  H         25.0030  -24.4530   -8.7380 H       1  UNL1        0.1590
     28  H         25.9410  -23.7410  -10.0020 H       1  UNL1        0.1590
     29  O         24.2980  -22.0700  -10.6890 O.2     1  UNL1       -0.2680
@<TRIPOS>BOND
     1    16    15    2
     2    16    17    1
     3    15    14    1
     4    17    18    2
     5    29    25    2
     6    14    13    2
     7    18    13    1
     8    28    26    1
     9    13    12    1
    10    25    26   am
    11    25    22    1
    12    26    27    1
    13    21    22    2
    14    21    20    1
    15    22    23    1
    16    12    11    1
    17    20    19    2
    18    23    24    2
    19    11    10    1
    20    19    24    1
    21    19     1    1
    22     4     1    1
    23     1     2   am
    24    10     9    1
    25    10     5    2
    26     2     3    2
    27     2     5    1
    28     9     8    2
    29     5     6    1
    30     8     7    1
    31     6     7    2
