@<TRIPOS>MOLECULE
28765_out_ligand_01.pdbqt
 27 30 0 0 0
SMALL
GASTEIGER

@<TRIPOS>ATOM
      1  N         18.2740  -24.0440   -7.9640 N.pl3   1  UNL1       -0.2810
      2  H         18.3170  -25.0280   -7.7010 H       1  UNL1        0.1790
      3  C         19.1670  -23.5360   -8.9400 C.2     1  UNL1        0.0430
      4  C         18.7030  -22.5800   -9.8470 C.2     1  UNL1        0.0480
      5  C         19.6230  -22.0740  -10.7430 C.2     1  UNL1        0.0500
      6  C         19.4630  -21.0840  -11.8060 C.2     1  UNL1        0.2590
      7  C         20.9470  -22.4790  -10.7500 C.2     1  UNL1        0.0480
      8  N         20.6870  -20.9390  -12.3830 N.am    1  UNL1       -0.2890
      9  O         18.4250  -20.5280  -12.1010 O.2     1  UNL1       -0.2670
     10  C         21.6270  -21.7440  -11.8160 C.2     1  UNL1        0.2590
     11  H         20.8710  -20.3210  -13.1560 H       1  UNL1        0.1720
     12  O         22.7970  -21.8590  -12.1150 O.2     1  UNL1       -0.2670
     13  C         21.4280  -23.4190   -9.8600 C.2     1  UNL1        0.0200
     14  C         20.5170  -23.9480   -8.9410 C.2     1  UNL1        0.0310
     15  S         16.6860  -23.4690   -7.9270 S.O2    1  UNL1        0.2650
     16  O         15.8380  -24.4990   -8.4890 O.2     1  UNL1       -0.2000
     17  O         16.6860  -22.1370   -8.5000 O.2     1  UNL1       -0.2000
     18  C         16.3090  -23.3230   -6.2060 C.2     1  UNL1        0.1090
     19  C         15.1720  -23.9900   -5.7170 C.2     1  UNL1        0.0280
     20  C         14.8460  -23.9020   -4.3710 C.2     1  UNL1        0.0030
     21  C         15.6560  -23.1530   -3.5230 C.2     1  UNL1        0.0140
     22  C         16.7930  -22.4880   -4.0180 C.2     1  UNL1       -0.0060
     23  C         17.6020  -21.7360   -3.1550 C.2     1  UNL1        0.0150
     24  C         17.1430  -22.5600   -5.3860 C.2     1  UNL1        0.0900
     25  C         18.7210  -21.0790   -3.6440 C.2     1  UNL1        0.0200
     26  C         18.9930  -21.1930   -4.9900 C.2     1  UNL1        0.1170
     27  N         18.2330  -21.9020   -5.8500 N.2     1  UNL1       -0.2590
@<TRIPOS>BOND
     1    11     8    1
     2     8    10   am
     3     8     6   am
     4    12    10    2
     5     9     6    2
     6    10     7    1
     7     6     5    1
     8     7     5    2
     9     7    13    1
    10     5     4    1
    11    13    14    2
    12     4     3    2
    13    14     3    1
    14     3     1    1
    15    17    15    2
    16    16    15    2
    17     1    15    1
    18     1     2    1
    19    15    18    1
    20    18    19    2
    21    18    24    1
    22    27    24    1
    23    27    26    2
    24    19    20    1
    25    24    22    2
    26    26    25    1
    27    20    21    2
    28    22    21    1
    29    22    23    1
    30    25    23    2
