@<TRIPOS>MOLECULE
28786_out_ligand_01.pdbqt
 31 34 0 0 0
SMALL
GASTEIGER

@<TRIPOS>ATOM
      1  C         21.2950  -22.6660  -10.6330 C.2     1  UNL1        0.0340
      2  C         20.7240  -21.7850  -11.5520 C.2     1  UNL1        0.0300
      3  C         21.4740  -21.3040  -12.6330 C.2     1  UNL1        0.0190
      4  C         22.8080  -21.6880  -12.7990 C.2     1  UNL1        0.0320
      5  C         23.3830  -22.5800  -11.8880 C.2     1  UNL1        0.0190
      6  C         22.6300  -23.0610  -10.8110 C.2     1  UNL1        0.0300
      7  N         20.6150  -23.2050   -9.5220 N.am    1  UNL1       -0.3270
      8  C         19.2470  -23.3220   -9.3410 C.2     1  UNL1        0.2260
      9  O         18.3790  -22.9280  -10.1180 O.2     1  UNL1       -0.2730
     10  H         21.2020  -23.6190   -8.8080 H       1  UNL1        0.1690
     11  C         18.8430  -23.9450   -8.0080 C.3     1  UNL1        0.1420
     12  C         18.6480  -22.9620   -6.8680 C.2     1  UNL1       -0.0380
     13  C         19.6210  -21.9610   -6.6880 C.2     1  UNL1        0.0080
     14  C         19.5200  -21.0520   -5.6430 C.2     1  UNL1        0.0010
     15  C         18.4440  -21.1260   -4.7620 C.2     1  UNL1        0.0120
     16  C         17.4510  -22.1050   -4.9160 C.2     1  UNL1       -0.0250
     17  C         16.3730  -22.1600   -4.0170 C.2     1  UNL1        0.0120
     18  C         17.5390  -23.0390   -5.9800 C.2     1  UNL1       -0.0190
     19  C         15.3730  -23.1210   -4.1530 C.2     1  UNL1        0.0010
     20  C         15.4390  -24.0400   -5.1900 C.2     1  UNL1        0.0010
     21  C         16.5060  -24.0000   -6.0920 C.2     1  UNL1        0.0130
     22  C         23.5620  -21.1540  -13.9660 C.2     1  UNL1        0.2510
     23  O         22.9930  -20.4590  -14.8000 O.2     1  UNL1       -0.2680
     24  N         24.9010  -21.4630  -14.0180 N.am    1  UNL1       -0.3540
     25  H         25.3390  -22.0210  -13.2960 H       1  UNL1        0.1620
     26  C         25.7450  -21.0990  -15.1430 C.3     1  UNL1        0.1550
     27  C         25.6830  -22.1650  -16.2350 C.3     1  UNL1        0.1390
     28  C         25.0030  -21.6880  -17.5050 C.3     1  UNL1        0.0350
     29  C         24.5200  -22.9890  -18.0970 C.3     1  UNL1        0.0290
     30  C         24.1000  -23.7630  -16.8660 C.3     1  UNL1        0.1680
     31  O         24.9160  -23.3030  -15.7760 O.3     1  UNL1       -0.3840
@<TRIPOS>BOND
     1    29    28    1
     2    29    30    1
     3    28    27    1
     4    30    31    1
     5    27    31    1
     6    27    26    1
     7    26    24    1
     8    23    22    2
     9    24    22   am
    10    24    25    1
    11    22     4    1
    12     4     3    2
    13     4     5    1
    14     3     2    1
    15     5     6    2
    16     2     1    2
    17     6     1    1
    18     1     7    1
    19     9     8    2
    20     7     8   am
    21     7    10    1
    22     8    11    1
    23    11    12    1
    24    12    13    2
    25    12    18    1
    26    13    14    1
    27    21    18    1
    28    21    20    2
    29    18    16    2
    30    14    15    2
    31    20    19    1
    32    16    15    1
    33    16    17    1
    34    19    17    2
