@<TRIPOS>MOLECULE
28784_out_ligand_01.pdbqt
 33 38 0 0 0
SMALL
GASTEIGER

@<TRIPOS>ATOM
      1  C         23.4380  -22.7580  -11.2780 C.2     1  UNL1       -0.0400
      2  C         22.8570  -23.3060  -10.1230 C.2     1  UNL1        0.0100
      3  C         21.5010  -23.1150   -9.8510 C.2     1  UNL1        0.0260
      4  C         20.7160  -22.3920  -10.7520 C.2     1  UNL1        0.0790
      5  C         21.2720  -21.8660  -11.9210 C.2     1  UNL1        0.0260
      6  C         22.6320  -22.0420  -12.1770 C.2     1  UNL1        0.0100
      7  S         19.0020  -22.1110  -10.3980 S.O2    1  UNL1        0.2590
      8  O         18.6620  -20.8310  -10.9830 O.2     1  UNL1       -0.2010
      9  O         18.2530  -23.3110  -10.7020 O.2     1  UNL1       -0.2010
     10  N         18.9810  -21.8740   -8.7390 N.3     1  UNL1       -0.3050
     11  H         19.2920  -20.9340   -8.4910 H       1  UNL1        0.1730
     12  C         18.0970  -22.5750   -7.7890 C.3     1  UNL1        0.0410
     13  C         18.3660  -24.0900   -7.6780 C.3     1  UNL1        0.0360
     14  C         17.4400  -24.7250   -6.6220 C.3     1  UNL1       -0.0120
     15  C         17.7080  -24.0730   -5.2560 C.3     1  UNL1        0.0090
     16  C         15.9750  -24.4810   -7.0240 C.3     1  UNL1        0.0090
     17  C         17.4360  -22.5620   -5.3330 C.3     1  UNL1       -0.0120
     18  C         15.9710  -22.3290   -5.7350 C.3     1  UNL1        0.0090
     19  C         18.3560  -21.9410   -6.3950 C.3     1  UNL1        0.0360
     20  C         15.6920  -22.9710   -7.1050 C.3     1  UNL1       -0.0120
     21  C         16.6180  -22.3360   -8.1610 C.3     1  UNL1        0.0360
     22  C         24.9070  -22.9720  -11.5720 C.3     1  UNL1        0.1740
     23  N         25.4140  -21.9770  -12.4870 N.am    1  UNL1       -0.2760
     24  C         25.4340  -22.1240  -13.8460 C.2     1  UNL1        0.2620
     25  C         25.9730  -20.8770  -14.3880 C.2     1  UNL1        0.0480
     26  O         25.0970  -23.0770  -14.5230 O.2     1  UNL1       -0.2670
     27  C         26.2010  -20.4890  -15.6950 C.2     1  UNL1        0.0180
     28  C         26.2550  -20.0450  -13.3190 C.2     1  UNL1        0.0480
     29  C         26.7370  -19.2120  -15.8980 C.2     1  UNL1        0.0010
     30  C         27.0290  -18.3660  -14.8060 C.2     1  UNL1        0.0010
     31  C         26.7870  -18.7810  -13.4930 C.2     1  UNL1        0.0180
     32  C         25.8910  -20.7570  -12.0970 C.2     1  UNL1        0.2620
     33  O         26.0110  -20.3000  -10.9750 O.2     1  UNL1       -0.2670
@<TRIPOS>BOND
     1    29    27    1
     2    29    30    2
     3    27    25    2
     4    30    31    1
     5    26    24    2
     6    25    24    1
     7    25    28    1
     8    24    23   am
     9    31    28    2
    10    28    32    1
    11    23    32   am
    12    23    22    1
    13     6     5    1
    14     6     1    2
    15    32    33    2
    16     5     4    2
    17    22     1    1
    18     1     2    1
    19     8     7    2
    20     4     7    1
    21     4     3    1
    22     9     7    2
    23     7    10    1
    24     2     3    2
    25    10    11    1
    26    10    12    1
    27    21    12    1
    28    21    20    1
    29    12    13    1
    30    12    19    1
    31    13    14    1
    32    20    16    1
    33    20    18    1
    34    16    14    1
    35    14    15    1
    36    19    17    1
    37    18    17    1
    38    17    15    1
