@<TRIPOS>MOLECULE
28785_out_ligand_01.pdbqt
 36 39 0 0 0
SMALL
GASTEIGER

@<TRIPOS>ATOM
      1  C         23.7500  -21.8010   -9.5550 C.3     1  UNL1        0.1250
      2  C         24.7210  -21.9520  -10.7110 C.2     1  UNL1        0.2230
      3  N         24.2900  -21.3040  -11.8600 N.am    1  UNL1       -0.3270
      4  H         23.3910  -20.8340  -11.8080 H       1  UNL1        0.1690
      5  O         25.7870  -22.5510  -10.5710 O.2     1  UNL1       -0.2730
      6  C         24.9370  -21.2550  -13.1130 C.2     1  UNL1        0.0350
      7  C         24.5410  -22.1890  -14.0780 C.2     1  UNL1        0.0490
      8  C         25.1200  -22.2150  -15.3670 C.2     1  UNL1        0.0670
      9  C         26.1110  -21.2690  -15.6950 C.2     1  UNL1        0.0840
     10  C         26.5260  -20.3590  -14.7110 C.2     1  UNL1        0.0400
     11  C         25.9410  -20.3490  -13.4350 C.2     1  UNL1        0.0320
     12  C         24.5960  -23.2720  -16.3010 C.2     1  UNL1        0.2540
     13  N         23.7350  -22.8780  -17.3020 N.am    1  UNL1       -0.3610
     14  C         23.0670  -23.8310  -18.1530 C.3     1  UNL1        0.1490
     15  H         23.4150  -21.9130  -17.2930 H       1  UNL1        0.1620
     16  O         24.9400  -24.4440  -16.1600 O.2     1  UNL1       -0.2680
     17  O         26.6420  -21.2890  -16.9600 O.2     1  UNL1       -0.3550
     18  C         26.5120  -20.1000  -17.7380 C.3     1  UNL1        0.2100
     19  C         22.8740  -23.0450   -9.4310 C.3     1  UNL1        0.1640
     20  N         21.4360  -22.7710   -9.4530 N.ar    1  UNL1       -0.2330
     21  N         20.7510  -22.9160   -8.2710 N.ar    1  UNL1       -0.1680
     22  C         19.4730  -22.6750   -8.2400 C.ar    1  UNL1        0.0980
     23  C         18.7030  -22.2310   -9.4240 C.ar    1  UNL1        0.0110
     24  C         17.3460  -21.8720   -9.3770 C.2     1  UNL1        0.0150
     25  C         19.3920  -22.1540  -10.6320 C.ar    1  UNL1        0.0460
     26  C         16.6900  -21.4560  -10.5440 C.2     1  UNL1        0.0010
     27  C         17.3840  -21.3860  -11.7550 C.2     1  UNL1        0.0010
     28  C         18.7360  -21.7330  -11.8010 C.2     1  UNL1        0.0180
     29  C         20.8280  -22.4910  -10.6750 C.ar    1  UNL1        0.2740
     30  O         21.4100  -22.5000  -11.7590 O.2     1  UNL1       -0.2660
     31  C         18.8020  -22.8590   -6.9350 C.2     1  UNL1       -0.0050
     32  C         18.8020  -21.8210   -6.0010 C.2     1  UNL1        0.0140
     33  C         18.1340  -21.9950   -4.7900 C.2     1  UNL1        0.0010
     34  C         17.4650  -23.1930   -4.5240 C.2     1  UNL1        0.0000
     35  C         17.4530  -24.2180   -5.4700 C.2     1  UNL1        0.0010
     36  C         18.1180  -24.0520   -6.6840 C.2     1  UNL1        0.0140
@<TRIPOS>BOND
     1    14    13    1
     2    18    17    1
     3    13    15    1
     4    13    12   am
     5    17     9    1
     6    12    16    2
     7    12     8    1
     8     9     8    2
     9     9    10    1
    10     8     7    1
    11    10    11    2
    12     7     6    2
    13    11     6    1
    14     6     3    1
    15     3     4    1
    16     3     2   am
    17    28    27    2
    18    28    25    1
    19    30    29    2
    20    27    26    1
    21     2     5    2
    22     2     1    1
    23    29    25   ar
    24    29    20   ar
    25    25    23   ar
    26    26    24    2
    27     1    19    1
    28    20    19    1
    29    20    21   ar
    30    23    24    1
    31    23    22   ar
    32    21    22   ar
    33    22    31    1
    34    31    36    2
    35    31    32    1
    36    36    35    1
    37    32    33    2
    38    35    34    2
    39    33    34    1
