@<TRIPOS>MOLECULE
28780_out_ligand_01.pdbqt
 37 40 0 0 0
SMALL
GASTEIGER

@<TRIPOS>ATOM
      1  C         22.7390  -23.4740   -9.3720 C.3     1  UNL1        0.1640
      2  C         23.7610  -22.3480   -9.3520 C.3     1  UNL1        0.1250
      3  C         24.6830  -22.4600  -10.5480 C.2     1  UNL1        0.2230
      4  N         24.3330  -21.6010  -11.5780 N.am    1  UNL1       -0.3270
      5  H         23.4980  -21.0440  -11.4400 H       1  UNL1        0.1690
      6  O         25.6200  -23.2570  -10.5420 O.2     1  UNL1       -0.2730
      7  C         25.0000  -21.4190  -12.8050 C.2     1  UNL1        0.0350
      8  C         24.6710  -22.2920  -13.8490 C.2     1  UNL1        0.0490
      9  C         25.2910  -22.2010  -15.1130 C.2     1  UNL1        0.0670
     10  C         26.2720  -21.2120  -15.3300 C.2     1  UNL1        0.0840
     11  C         26.5790  -20.3260  -14.2870 C.2     1  UNL1        0.0400
     12  C         25.9520  -20.4320  -13.0380 C.2     1  UNL1        0.0320
     13  C         24.8370  -23.2040  -16.1360 C.2     1  UNL1        0.2540
     14  N         24.0370  -22.7520  -17.1580 N.am    1  UNL1       -0.3610
     15  C         23.4770  -23.6290  -18.1530 C.3     1  UNL1        0.1490
     16  H         23.7030  -21.7960  -17.1060 H       1  UNL1        0.1620
     17  O         25.1950  -24.3750  -16.0470 O.2     1  UNL1       -0.2680
     18  O         26.8570  -21.1330  -16.5680 O.2     1  UNL1       -0.3550
     19  C         26.5280  -19.9970  -17.3690 C.3     1  UNL1        0.2100
     20  N         21.3580  -22.9940   -9.4440 N.ar    1  UNL1       -0.2330
     21  N         20.6400  -23.0840   -8.2820 N.ar    1  UNL1       -0.1680
     22  C         19.3800  -22.7600   -8.2750 C.ar    1  UNL1        0.0980
     23  C         18.6840  -22.2200   -9.4670 C.ar    1  UNL1        0.0110
     24  C         17.3630  -21.7500   -9.4450 C.2     1  UNL1        0.0150
     25  C         19.4060  -22.1730  -10.6550 C.ar    1  UNL1        0.0460
     26  C         16.7530  -21.2990  -10.6210 C.2     1  UNL1        0.0010
     27  C         17.4640  -21.2960  -11.8190 C.2     1  UNL1        0.0010
     28  C         18.7950  -21.7210  -11.8370 C.2     1  UNL1        0.0180
     29  C         20.8250  -22.5780  -10.6610 C.ar    1  UNL1        0.2740
     30  O         21.4720  -22.5110  -11.7030 O.2     1  UNL1       -0.2660
     31  C         18.6370  -22.9820   -7.0110 C.2     1  UNL1       -0.0050
     32  C         17.9750  -24.1930   -6.7890 C.2     1  UNL1        0.0140
     33  C         17.2790  -24.3910   -5.5970 C.2     1  UNL1        0.0070
     34  C         17.2670  -23.3960   -4.6090 C.2     1  UNL1       -0.0620
     35  C         16.4990  -23.6130   -3.3390 C.3     1  UNL1        0.0480
     36  C         17.9520  -22.1940   -4.8360 C.2     1  UNL1        0.0070
     37  C         18.6460  -21.9890   -6.0300 C.2     1  UNL1        0.0140
@<TRIPOS>BOND
     1    15    14    1
     2    19    18    1
     3    14    16    1
     4    14    13   am
     5    18    10    1
     6    13    17    2
     7    13     9    1
     8    10     9    2
     9    10    11    1
    10     9     8    1
    11    11    12    2
    12     8     7    2
    13    12     7    1
    14     7     4    1
    15    28    27    2
    16    28    25    1
    17    27    26    1
    18    30    29    2
    19     4     5    1
    20     4     3   am
    21    29    25   ar
    22    29    20   ar
    23    25    23   ar
    24    26    24    2
    25     3     6    2
    26     3     2    1
    27    23    24    1
    28    23    22   ar
    29    20     1    1
    30    20    21   ar
    31     1     2    1
    32    21    22   ar
    33    22    31    1
    34    31    32    2
    35    31    37    1
    36    32    33    1
    37    37    36    2
    38    33    34    2
    39    36    34    1
    40    34    35    1
