@<TRIPOS>MOLECULE
28804_out_ligand_01.pdbqt
 30 33 0 0 0
SMALL
GASTEIGER

@<TRIPOS>ATOM
      1  C         23.0700  -22.1460  -12.4580 C.2     1  UNL1        0.0320
      2  C         23.2320  -22.9610  -11.3380 C.2     1  UNL1        0.0190
      3  C         22.2020  -23.0870  -10.3950 C.2     1  UNL1        0.0310
      4  C         20.9850  -22.3970  -10.5330 C.2     1  UNL1        0.0460
      5  C         20.8550  -21.5650  -11.6590 C.2     1  UNL1        0.0310
      6  C         21.8800  -21.4350  -12.6090 C.2     1  UNL1        0.0190
      7  N         19.9330  -22.5250   -9.5690 N.am    1  UNL1       -0.2440
      8  C         20.0900  -22.4040   -8.2020 C.2     1  UNL1        0.2660
      9  O         21.0600  -22.1700   -7.5040 O.2     1  UNL1       -0.2670
     10  C         18.7790  -22.6080   -7.5960 C.2     1  UNL1        0.0510
     11  C         18.4060  -22.5940   -6.2600 C.2     1  UNL1        0.0180
     12  C         17.8780  -22.8360   -8.6090 C.2     1  UNL1        0.0810
     13  C         17.0570  -22.8210   -5.9540 C.2     1  UNL1        0.0030
     14  C         16.1230  -23.0550   -6.9790 C.2     1  UNL1        0.0370
     15  C         16.5530  -23.0590   -8.3130 C.2     1  UNL1        0.1190
     16  C         18.6080  -22.7790   -9.8670 C.2     1  UNL1        0.2690
     17  O         18.0260  -22.9400  -10.9240 O.2     1  UNL1       -0.2670
     18  N         15.5990  -23.2970   -9.3620 N.pl3   1  UNL1       -0.1150
     19  O         15.1170  -22.2970   -9.9090 O.2     1  UNL1       -0.5320
     20  O         15.2930  -24.4760   -9.5740 O.2     1  UNL1       -0.5320
     21  C         24.1890  -22.0370  -13.4370 C.2     1  UNL1        0.2560
     22  O         25.3300  -22.2140  -13.0300 O.2     1  UNL1       -0.2670
     23  N         23.7980  -21.7740  -14.7370 N.am    1  UNL1       -0.3230
     24  H         22.8060  -21.7870  -14.9310 H       1  UNL1        0.1690
     25  C         24.6310  -21.5780  -15.8580 C.2     1  UNL1        0.0350
     26  C         24.7070  -22.6230  -16.7900 C.2     1  UNL1        0.0290
     27  C         25.5060  -22.5060  -17.9300 C.2     1  UNL1        0.0020
     28  C         26.2360  -21.3420  -18.1530 C.2     1  UNL1        0.0000
     29  C         26.1640  -20.2970  -17.2340 C.2     1  UNL1        0.0020
     30  C         25.3640  -20.4140  -16.0920 C.2     1  UNL1        0.0290
@<TRIPOS>BOND
     1    28    27    2
     2    28    29    1
     3    27    26    1
     4    29    30    2
     5    26    25    2
     6    30    25    1
     7    25    23    1
     8    24    23    1
     9    23    21   am
    10    21    22    2
    11    21     1    1
    12     6     1    2
    13     6     5    1
    14     1     2    1
    15     5     4    2
    16     2     3    2
    17    17    16    2
    18     4     3    1
    19     4     7    1
    20    19    18    2
    21    16     7   am
    22    16    12    1
    23    20    18    2
    24     7     8   am
    25    18    15    1
    26    12    15    1
    27    12    10    2
    28    15    14    2
    29     8    10    1
    30     8     9    2
    31    10    11    1
    32    14    13    1
    33    11    13    2
