@<TRIPOS>MOLECULE
28800_out_ligand_01.pdbqt
 32 35 0 0 0
SMALL
GASTEIGER

@<TRIPOS>ATOM
      1  C         22.2150  -22.9410  -10.5320 C.2     1  UNL1        0.7300
      2  N         21.9160  -22.2790  -11.6640 N.2     1  UNL1       -0.0740
      3  C         20.6440  -21.8340  -11.7880 C.2     1  UNL1        0.1530
      4  C         19.6800  -22.0300  -10.8260 C.2     1  UNL1        0.0530
      5  C         20.0760  -22.7230   -9.7010 C.2     1  UNL1        0.0690
      6  N         21.3420  -23.1740   -9.5390 N.2     1  UNL1       -0.0660
      7  C         19.1110  -22.9750   -8.5730 C.3     1  UNL1        0.0720
      8  C         17.6710  -23.0480   -9.0900 C.3     1  UNL1        0.0560
      9  C         17.3200  -21.7800   -9.8720 C.3     1  UNL1        0.0950
     10  C         18.3080  -21.5230  -10.9860 C.2     1  UNL1        0.1630
     11  O         18.0190  -20.8670  -11.9800 O.2     1  UNL1       -0.2920
     12  N         23.4870  -23.4270  -10.3210 N.am    1  UNL1       -0.1370
     13  C         24.6820  -22.8810  -10.6680 C.2     1  UNL1        0.3480
     14  N         24.6770  -21.6680  -11.3390 N.am    1  UNL1       -0.2310
     15  O         25.7150  -23.4670  -10.3660 O.2     1  UNL1       -0.2450
     16  H         23.7830  -21.2190  -11.5320 H       1  UNL1        0.1830
     17  H         23.5350  -24.3150   -9.8480 H       1  UNL1        0.1890
     18  S         25.9990  -20.8390  -11.8800 S.O2    1  UNL1        0.2660
     19  O         26.0360  -19.5290  -11.2700 O.2     1  UNL1       -0.2000
     20  O         27.1190  -21.7480  -11.7410 O.2     1  UNL1       -0.2000
     21  C         25.6790  -20.6620  -13.6170 C.2     1  UNL1        0.0800
     22  C         26.2290  -19.5880  -14.3180 C.2     1  UNL1        0.0260
     23  C         25.9960  -19.4680  -15.6890 C.2     1  UNL1        0.0080
     24  C         25.2350  -20.4300  -16.3680 C.2     1  UNL1       -0.0620
     25  C         24.9620  -20.2810  -17.8360 C.3     1  UNL1        0.0480
     26  C         24.6890  -21.5040  -15.6510 C.2     1  UNL1        0.0080
     27  C         24.9170  -21.6280  -14.2800 C.2     1  UNL1        0.0260
     28  C         16.7160  -23.2760   -7.9670 C.2     1  UNL1        0.0570
     29  C         16.2120  -24.4000   -7.3430 C.2     1  UNL1        0.0350
     30  C         15.3280  -23.9360   -6.3390 C.2     1  UNL1        0.0270
     31  C         15.3460  -22.5640   -6.4170 C.2     1  UNL1        0.1420
     32  O         16.1840  -22.1550   -7.4030 O.2     1  UNL1       -0.3270
@<TRIPOS>BOND
     1    25    24    1
     2    24    23    2
     3    24    26    1
     4    23    22    1
     5    26    27    2
     6    22    21    2
     7    27    21    1
     8    21    18    1
     9    11    10    2
    10    18    20    2
    11    18    14    1
    12    18    19    2
    13     3     2    1
    14     3     4    2
    15     2     1    2
    16    16    14    1
    17    14    13   am
    18    10     4    1
    19    10     9    1
    20     4     5    1
    21    13    15    2
    22    13    12   am
    23     1    12    1
    24     1     6    1
    25    12    17    1
    26     9     8    1
    27     5     6    2
    28     5     7    1
    29     8     7    1
    30     8    28    1
    31    28    32    1
    32    28    29    2
    33    32    31    1
    34    29    30    1
    35    31    30    2
