@<TRIPOS>MOLECULE
28817_out_ligand_01.pdbqt
 41 45 0 0 0
SMALL
GASTEIGER

@<TRIPOS>ATOM
      1  N         23.6460  -22.3160  -13.5370 N.am    1  UNL1       -0.3230
      2  C         23.5830  -21.4400  -14.6030 C.2     1  UNL1        0.2580
      3  O         22.9350  -20.4000  -14.6550 O.2     1  UNL1       -0.2670
      4  H         24.2590  -23.1120  -13.6550 H       1  UNL1        0.1690
      5  C         24.4690  -21.7820  -15.7570 C.2     1  UNL1        0.0590
      6  C         24.0160  -22.8190  -16.5930 C.2     1  UNL1        0.0190
      7  C         24.7290  -23.1750  -17.7370 C.2     1  UNL1        0.0010
      8  C         25.9010  -22.5000  -18.0610 C.2     1  UNL1        0.0020
      9  C         26.3690  -21.4770  -17.2340 C.2     1  UNL1        0.0310
     10  C         25.6740  -21.1070  -16.0600 C.2     1  UNL1        0.0550
     11  N         26.2550  -20.0960  -15.2030 N.pl3   1  UNL1       -0.3110
     12  C         26.4730  -20.3940  -13.8070 C.2     1  UNL1        0.0400
     13  C         26.9050  -21.6670  -13.3900 C.2     1  UNL1        0.0300
     14  C         27.1160  -21.9500  -12.0370 C.2     1  UNL1        0.0020
     15  C         26.9030  -20.9660  -11.0770 C.2     1  UNL1        0.0000
     16  C         26.4850  -19.6950  -11.4670 C.2     1  UNL1        0.0020
     17  C         26.2760  -19.4100  -12.8200 C.2     1  UNL1        0.0300
     18  C         26.4590  -18.7590  -15.7210 C.2     1  UNL1        0.0400
     19  C         26.9510  -17.7260  -14.9020 C.2     1  UNL1        0.0300
     20  C         27.1200  -16.4320  -15.4000 C.2     1  UNL1        0.0020
     21  C         26.7960  -16.1430  -16.7230 C.2     1  UNL1        0.0000
     22  C         26.3040  -17.1480  -17.5510 C.2     1  UNL1        0.0020
     23  C         26.1410  -18.4440  -17.0550 C.2     1  UNL1        0.0300
     24  C         22.8880  -22.2940  -12.3520 C.2     1  UNL1        0.0350
     25  C         23.4300  -22.9580  -11.2410 C.2     1  UNL1        0.0300
     26  C         22.7390  -23.0010  -10.0290 C.2     1  UNL1        0.0190
     27  C         21.4880  -22.3890   -9.9360 C.2     1  UNL1        0.0320
     28  C         20.9260  -21.7390  -11.0340 C.2     1  UNL1        0.0190
     29  C         21.6330  -21.6870  -12.2390 C.2     1  UNL1        0.0300
     30  C         20.7540  -22.4330   -8.6570 C.2     1  UNL1        0.2560
     31  N         19.3930  -22.5830   -8.8290 N.am    1  UNL1       -0.3220
     32  H         19.0870  -22.7160   -9.7830 H       1  UNL1        0.1690
     33  O         21.3950  -22.3360   -7.6200 O.2     1  UNL1       -0.2670
     34  C         18.3900  -22.6000   -7.8330 C.2     1  UNL1        0.0410
     35  C         18.6930  -22.4430   -6.4740 C.2     1  UNL1        0.0300
     36  C         17.6870  -22.4400   -5.5040 C.2     1  UNL1        0.0020
     37  C         16.3590  -22.5940   -5.8780 C.2     1  UNL1        0.0010
     38  C         16.0370  -22.7540   -7.2240 C.2     1  UNL1        0.0090
     39  C         17.0390  -22.7660   -8.2150 C.2     1  UNL1       -0.0320
     40  C         16.5930  -22.9500   -9.6490 C.3     1  UNL1        0.0360
     41  C         16.6880  -21.6600  -10.4520 C.3     1  UNL1        0.0100
@<TRIPOS>BOND
     1     8     7    2
     2     8     9    1
     3     7     6    1
     4    22    23    1
     5    22    21    2
     6     9    10    2
     7    23    18    2
     8    21    20    1
     9     6     5    2
    10    10     5    1
    11    10    11    1
    12     5     2    1
    13    18    11    1
    14    18    19    1
    15    20    19    2
    16    11    12    1
    17     3     2    2
    18     2     1   am
    19    12    13    2
    20    12    17    1
    21     4     1    1
    22     1    24    1
    23    13    14    1
    24    17    16    2
    25    24    29    2
    26    24    25    1
    27    29    28    1
    28    14    15    2
    29    16    15    1
    30    25    26    2
    31    28    27    2
    32    41    40    1
    33    26    27    1
    34    27    30    1
    35    32    31    1
    36    40    39    1
    37    31    30   am
    38    31    34    1
    39    30    33    2
    40    39    34    2
    41    39    38    1
    42    34    35    1
    43    38    37    2
    44    35    36    2
    45    37    36    1
