@<TRIPOS>MOLECULE
28816_out_ligand_01.pdbqt
 43 47 0 0 0
SMALL
GASTEIGER

@<TRIPOS>ATOM
      1  N         23.6240  -22.3070  -13.6680 N.am    1  UNL1       -0.3230
      2  C         23.6940  -21.3260  -14.6380 C.2     1  UNL1        0.2580
      3  O         23.0470  -20.2840  -14.6690 O.2     1  UNL1       -0.2670
      4  H         24.2600  -23.0870  -13.7810 H       1  UNL1        0.1690
      5  C         22.8560  -22.3060  -12.4870 C.2     1  UNL1        0.0350
      6  C         23.4540  -22.8430  -11.3390 C.2     1  UNL1        0.0300
      7  C         22.7680  -22.8700  -10.1190 C.2     1  UNL1        0.0190
      8  C         21.4710  -22.3510  -10.0360 C.2     1  UNL1        0.0320
      9  C         20.8640  -21.8360  -11.1850 C.2     1  UNL1        0.0190
     10  C         21.5560  -21.8080  -12.4020 C.2     1  UNL1        0.0300
     11  C         20.6980  -22.3550   -8.7600 C.2     1  UNL1        0.2560
     12  O         21.3150  -22.2350   -7.7090 O.2     1  UNL1       -0.2670
     13  N         19.3310  -22.5280   -8.9100 N.am    1  UNL1       -0.3220
     14  H         19.0190  -22.7480   -9.8500 H       1  UNL1        0.1690
     15  C         18.3360  -22.5520   -7.8980 C.2     1  UNL1        0.0500
     16  C         18.6630  -22.5750   -6.5360 C.2     1  UNL1        0.0300
     17  C         17.6720  -22.6060   -5.5490 C.2     1  UNL1        0.0020
     18  C         16.3310  -22.6100   -5.9060 C.2     1  UNL1        0.0010
     19  C         15.9840  -22.5770   -7.2520 C.2     1  UNL1        0.0180
     20  C         16.9730  -22.5510   -8.2620 C.2     1  UNL1        0.0740
     21  C         16.4980  -22.4640   -9.6890 C.3     1  UNL1        0.4190
     22  F         15.1730  -22.7520   -9.8330 F       1  UNL1       -0.1660
     23  F         17.1500  -23.3110  -10.5420 F       1  UNL1       -0.1660
     24  F         16.6680  -21.2190  -10.2180 F       1  UNL1       -0.1660
     25  C         24.5990  -21.6270  -15.7900 C.2     1  UNL1        0.0590
     26  C         24.1330  -22.6040  -16.6910 C.2     1  UNL1        0.0190
     27  C         24.9180  -23.0220  -17.7640 C.2     1  UNL1        0.0010
     28  C         26.1800  -22.4710  -17.9530 C.2     1  UNL1        0.0020
     29  C         26.6500  -21.4910  -17.0780 C.2     1  UNL1        0.0310
     30  C         25.8700  -21.0410  -15.9880 C.2     1  UNL1        0.0550
     31  N         26.3960  -19.9770  -15.1610 N.pl3   1  UNL1       -0.3110
     32  C         26.5940  -20.2080  -13.7450 C.2     1  UNL1        0.0400
     33  C         26.3980  -19.1840  -12.8020 C.2     1  UNL1        0.0300
     34  C         26.5620  -19.4220  -11.4340 C.2     1  UNL1        0.0020
     35  C         26.9230  -20.6890  -10.9830 C.2     1  UNL1        0.0000
     36  C         27.1210  -21.7190  -11.8970 C.2     1  UNL1        0.0020
     37  C         26.9560  -21.4810  -13.2640 C.2     1  UNL1        0.0300
     38  C         26.5420  -18.6560  -15.7330 C.2     1  UNL1        0.0400
     39  C         26.9860  -17.5660  -14.9630 C.2     1  UNL1        0.0300
     40  C         27.1210  -16.2930  -15.5260 C.2     1  UNL1        0.0020
     41  C         26.8100  -16.0860  -16.8670 C.2     1  UNL1        0.0000
     42  C         26.3570  -17.1460  -17.6460 C.2     1  UNL1        0.0020
     43  C         26.2190  -18.4190  -17.0840 C.2     1  UNL1        0.0300
@<TRIPOS>BOND
     1    28    27    2
     2    28    29    1
     3    27    26    1
     4    42    43    1
     5    42    41    2
     6    43    38    2
     7    29    30    2
     8    41    40    1
     9    26    25    2
    10    30    25    1
    11    30    31    1
    12    25     2    1
    13    38    31    1
    14    38    39    1
    15    40    39    2
    16    31    32    1
    17     3     2    2
    18     2     1   am
    19     4     1    1
    20    32    37    2
    21    32    33    1
    22     1     5    1
    23    37    36    1
    24    33    34    2
    25     5    10    2
    26     5     6    1
    27    10     9    1
    28    36    35    2
    29    34    35    1
    30     6     7    2
    31     9     8    2
    32    23    21    1
    33    24    21    1
    34     7     8    1
    35     8    11    1
    36    14    13    1
    37    22    21    1
    38    21    20    1
    39    13    11   am
    40    13    15    1
    41    11    12    2
    42    20    15    2
    43    20    19    1
    44    15    16    1
    45    19    18    2
    46    16    17    2
    47    18    17    1
