@<TRIPOS>MOLECULE
28829_out_ligand_01.pdbqt
 34 36 0 0 0
SMALL
GASTEIGER

@<TRIPOS>ATOM
      1  C         18.5160  -22.3630   -9.6120 C.2     1  UNL1        0.0340
      2  C         17.5720  -22.0300  -10.5910 C.2     1  UNL1        0.0170
      3  C         17.9930  -21.4400  -11.7800 C.2     1  UNL1        0.0030
      4  C         19.3510  -21.1870  -11.9880 C.2     1  UNL1        0.0290
      5  C         20.3060  -21.5200  -11.0160 C.2     1  UNL1        0.0350
      6  C         19.8800  -22.1200   -9.8300 C.2     1  UNL1        0.0460
      7  C         18.0990  -23.0070   -8.3360 C.2     1  UNL1        0.2560
      8  O         18.5350  -24.1210   -8.0770 O.2     1  UNL1       -0.2670
      9  N         17.2540  -22.2340   -7.5570 N.am    1  UNL1       -0.3220
     10  H         17.0900  -21.2890   -7.8970 H       1  UNL1        0.1690
     11  C         16.6600  -22.5680   -6.3150 C.2     1  UNL1        0.0500
     12  C         15.4440  -23.2620   -6.2420 C.2     1  UNL1        0.0300
     13  C         14.8620  -23.5850   -5.0130 C.2     1  UNL1        0.0020
     14  C         15.4850  -23.2180   -3.8270 C.2     1  UNL1        0.0010
     15  C         16.6900  -22.5260   -3.8760 C.2     1  UNL1        0.0180
     16  C         17.2900  -22.1880   -5.1100 C.2     1  UNL1        0.0740
     17  C         18.5920  -21.4320   -5.0470 C.3     1  UNL1        0.4190
     18  F         18.4650  -20.1370   -5.4500 F       1  UNL1       -0.1660
     19  F         19.1090  -21.3780   -3.7880 F       1  UNL1       -0.1660
     20  F         19.5840  -21.9550   -5.8260 F       1  UNL1       -0.1660
     21  N         21.6530  -21.2260  -11.3200 N.am    1  UNL1       -0.3230
     22  C         22.6860  -22.1220  -11.5010 C.2     1  UNL1        0.2570
     23  O         22.6080  -23.3420  -11.3990 O.2     1  UNL1       -0.2670
     24  H         21.8820  -20.2340  -11.3320 H       1  UNL1        0.1690
     25  C         24.0110  -21.5630  -11.8930 C.2     1  UNL1        0.0490
     26  C         24.9540  -21.4510  -10.8530 C.2     1  UNL1        0.0180
     27  C         26.2130  -20.8900  -11.0770 C.2     1  UNL1        0.0010
     28  C         26.5480  -20.4190  -12.3420 C.2     1  UNL1        0.0010
     29  C         25.6230  -20.5090  -13.3810 C.2     1  UNL1        0.0190
     30  C         24.3550  -21.0790  -13.1620 C.2     1  UNL1        0.0530
     31  C         23.4470  -21.1510  -14.3140 C.2     1  UNL1        0.1770
     32  O         23.5120  -21.9700  -15.2120 O.2     1  UNL1       -0.6460
     33  O         22.5230  -20.1790  -14.2790 O.3     1  UNL1       -0.7730
     34  H         22.3810  -19.9210  -15.2140 H       1  UNL1        0.1670
@<TRIPOS>BOND
     1    34    33    1
     2    32    31    2
     3    31    33    1
     4    31    30    1
     5    29    30    1
     6    29    28    2
     7    30    25    2
     8    28    27    1
     9     4     3    2
    10     4     5    1
    11    25    22    1
    12    25    26    1
    13     3     2    1
    14    22    23    2
    15    22    21   am
    16    24    21    1
    17    21     5    1
    18    27    26    2
    19     5     6    2
    20     2     1    2
    21     6     1    1
    22     1     7    1
    23     7     8    2
    24     7     9   am
    25    10     9    1
    26     9    11    1
    27    11    12    2
    28    11    16    1
    29    12    13    1
    30    20    17    1
    31    18    17    1
    32    16    17    1
    33    16    15    2
    34    17    19    1
    35    13    14    2
    36    15    14    1
