@<TRIPOS>MOLECULE
28823_out_ligand_01.pdbqt
 29 32 0 0 0
SMALL
GASTEIGER

@<TRIPOS>ATOM
      1  C         22.0040  -21.9780   -9.7830 C.2     1  UNL1        0.0320
      2  C         20.7050  -21.9970  -10.2890 C.2     1  UNL1        0.0190
      3  C         19.6100  -22.1850   -9.4330 C.2     1  UNL1        0.0310
      4  C         19.7750  -22.3480   -8.0470 C.2     1  UNL1        0.0460
      5  C         21.0930  -22.3020   -7.5590 C.2     1  UNL1        0.0310
      6  C         22.1940  -22.1160   -8.4080 C.2     1  UNL1        0.0190
      7  C         23.1420  -21.7760  -10.7250 C.2     1  UNL1        0.2560
      8  N         22.8950  -22.1750  -12.0260 N.am    1  UNL1       -0.3230
      9  H         21.9510  -22.4600  -12.2480 H       1  UNL1        0.1690
     10  O         24.1640  -21.2600  -10.2920 O.2     1  UNL1       -0.2670
     11  C         23.7900  -22.1430  -13.1150 C.2     1  UNL1        0.0350
     12  C         23.7570  -21.1850  -14.1240 C.2     1  UNL1        0.0300
     13  C         24.6880  -21.2220  -15.1680 C.2     1  UNL1        0.0090
     14  C         25.6730  -22.2170  -15.2230 C.2     1  UNL1       -0.0560
     15  C         26.6540  -22.2210  -16.3630 C.3     1  UNL1        0.0490
     16  C         25.7200  -23.1880  -14.2070 C.2     1  UNL1       -0.0540
     17  C         24.7760  -23.1380  -13.1640 C.2     1  UNL1        0.0370
     18  C         26.7550  -24.2800  -14.2130 C.3     1  UNL1        0.0490
     19  N         18.6560  -22.5420   -7.1740 N.am    1  UNL1       -0.2440
     20  C         18.4820  -21.9160   -5.9520 C.2     1  UNL1        0.2660
     21  O         19.1590  -21.1090   -5.3420 O.2     1  UNL1       -0.2670
     22  C         17.2220  -22.3960   -5.3940 C.2     1  UNL1        0.0480
     23  C         16.5970  -22.0860   -4.2010 C.2     1  UNL1        0.0180
     24  C         16.6770  -23.2830   -6.2920 C.2     1  UNL1        0.0480
     25  C         15.3760  -22.7120   -3.9340 C.2     1  UNL1        0.0010
     26  C         14.8170  -23.6220   -4.8550 C.2     1  UNL1        0.0010
     27  C         15.4710  -23.9160   -6.0540 C.2     1  UNL1        0.0180
     28  C         17.5840  -23.3760   -7.4320 C.2     1  UNL1        0.2660
     29  O         17.3140  -24.0940   -8.3790 O.2     1  UNL1       -0.2670
@<TRIPOS>BOND
     1    15    14    1
     2    14    13    2
     3    14    16    1
     4    13    12    1
     5    18    16    1
     6    16    17    2
     7    12    11    2
     8    17    11    1
     9    11     8    1
    10     9     8    1
    11     8     7   am
    12     7    10    2
    13     7     1    1
    14     2     1    2
    15     2     3    1
    16     1     6    1
    17     3     4    2
    18     6     5    2
    19    29    28    2
    20     4     5    1
    21     4    19    1
    22    28    19   am
    23    28    24    1
    24    19    20   am
    25    24    27    1
    26    24    22    2
    27    27    26    2
    28    20    22    1
    29    20    21    2
    30    22    23    1
    31    26    25    1
    32    23    25    2
