@<TRIPOS>MOLECULE
28820_out_ligand_01.pdbqt
 29 32 0 0 0
SMALL
GASTEIGER

@<TRIPOS>ATOM
      1  C         22.6180  -22.2000  -12.1450 C.2     1  UNL1        0.0330
      2  C         21.6390  -21.4050  -12.7890 C.2     1  UNL1        0.0180
      3  C         20.3700  -21.2340  -12.2220 C.2     1  UNL1        0.0190
      4  C         20.1200  -21.8640  -11.0160 C.2     1  UNL1        0.0480
      5  C         21.0730  -22.6270  -10.3830 C.2     1  UNL1        0.0490
      6  C         22.3340  -22.8130  -10.9150 C.2     1  UNL1        0.0350
      7  C         20.4840  -23.1320   -9.1470 C.2     1  UNL1        0.2660
      8  O         21.1270  -23.8510   -8.4030 O.2     1  UNL1       -0.2670
      9  N         19.1900  -22.6480   -9.0770 N.am    1  UNL1       -0.2440
     10  C         18.9190  -21.8740  -10.1890 C.2     1  UNL1        0.2660
     11  O         17.9250  -21.2630  -10.5380 O.2     1  UNL1       -0.2670
     12  C         23.9770  -22.3860  -12.7250 C.2     1  UNL1        0.2510
     13  O         24.1640  -22.1900  -13.9200 O.2     1  UNL1       -0.2680
     14  N         24.9760  -22.7400  -11.8440 N.am    1  UNL1       -0.3540
     15  H         24.8360  -22.5620  -10.8580 H       1  UNL1        0.1620
     16  C         26.3660  -22.7560  -12.2750 C.3     1  UNL1        0.1550
     17  C         27.0380  -21.4010  -12.0440 C.3     1  UNL1        0.1390
     18  C         26.3110  -20.5370  -11.0280 C.3     1  UNL1        0.0350
     19  C         26.7460  -19.1550  -11.4460 C.3     1  UNL1        0.0290
     20  C         26.7590  -19.2700  -12.9560 C.3     1  UNL1        0.1680
     21  O         27.0440  -20.6410  -13.2740 O.3     1  UNL1       -0.3840
     22  C         18.2690  -22.9120   -8.0120 C.2     1  UNL1        0.0470
     23  C         17.1510  -23.7440   -8.1940 C.2     1  UNL1        0.0320
     24  C         16.2460  -24.0050   -7.1560 C.2     1  UNL1        0.0280
     25  C         16.4350  -23.4410   -5.8980 C.2     1  UNL1        0.0550
     26 CL         15.2850  -23.8040   -4.6640 Cl      1  UNL1       -0.0830
     27  C         17.5350  -22.6120   -5.6860 C.2     1  UNL1        0.0580
     28 CL         17.8450  -21.8690   -4.1550 Cl      1  UNL1       -0.0820
     29  C         18.4370  -22.3540   -6.7320 C.2     1  UNL1        0.0560
@<TRIPOS>BOND
     1    13    12    2
     2    21    20    1
     3    21    17    1
     4    20    19    1
     5     2     3    1
     6     2     1    2
     7    12     1    1
     8    12    14   am
     9    16    17    1
    10    16    14    1
    11     3     4    2
    12     1     6    1
    13    17    18    1
    14    14    15    1
    15    19    18    1
    16     4     5    1
    17     4    10    1
    18     6     5    2
    19    11    10    2
    20     5     7    1
    21    10     9   am
    22     7     9   am
    23     7     8    2
    24     9    22    1
    25    23    22    2
    26    23    24    1
    27    22    29    1
    28    24    25    2
    29    29    27    2
    30    25    27    1
    31    25    26    1
    32    27    28    1
