@<TRIPOS>MOLECULE
28822_out_ligand_01.pdbqt
 28 31 0 0 0
SMALL
GASTEIGER

@<TRIPOS>ATOM
      1  C         17.8330  -22.4930   -9.9490 C.2     1  UNL1        0.0330
      2  C         17.7090  -21.6640  -11.0900 C.2     1  UNL1        0.0180
      3  C         18.8360  -21.3010  -11.8390 C.2     1  UNL1        0.0190
      4  C         20.0610  -21.7880  -11.4210 C.2     1  UNL1        0.0480
      5  C         20.1850  -22.6030  -10.3200 C.2     1  UNL1        0.0490
      6  C         19.0910  -22.9800   -9.5610 C.2     1  UNL1        0.0350
      7  C         21.5980  -22.9310  -10.1690 C.2     1  UNL1        0.2660
      8  O         21.9720  -23.6400   -9.2530 O.2     1  UNL1       -0.2670
      9  N         22.2800  -22.3040  -11.1960 N.am    1  UNL1       -0.2440
     10  C         21.3930  -21.5950  -11.9830 C.2     1  UNL1        0.2660
     11  O         21.5460  -20.9030  -12.9740 O.2     1  UNL1       -0.2670
     12  C         16.6470  -22.8980   -9.1460 C.2     1  UNL1        0.2510
     13  O         15.5280  -22.8500   -9.6420 O.2     1  UNL1       -0.2680
     14  N         16.8960  -23.3520   -7.8690 N.am    1  UNL1       -0.3540
     15  H         17.8290  -23.6780   -7.6490 H       1  UNL1        0.1620
     16  C         15.8320  -23.9570   -7.0810 C.3     1  UNL1        0.1550
     17  C         16.2240  -24.0560   -5.5990 C.3     1  UNL1        0.1390
     18  C         15.0380  -23.8620   -4.6640 C.3     1  UNL1        0.0350
     19  C         15.0810  -22.3840   -4.3660 C.3     1  UNL1        0.0290
     20  C         16.5690  -22.1200   -4.3290 C.3     1  UNL1        0.1680
     21  O         17.1590  -22.9890   -5.3060 O.3     1  UNL1       -0.3840
     22  C         23.6970  -22.3750  -11.4070 C.2     1  UNL1        0.0470
     23  C         24.5910  -21.5750  -10.6720 C.2     1  UNL1        0.0300
     24  C         25.9760  -21.6370  -10.8730 C.2     1  UNL1        0.0040
     25  C         26.5050  -22.5060  -11.8190 C.2     1  UNL1        0.0240
     26  C         25.6430  -23.3050  -12.5580 C.2     1  UNL1        0.0360
     27 CL         26.2900  -24.3850  -13.7330 Cl      1  UNL1       -0.0840
     28  C         24.2590  -23.2440  -12.3580 C.2     1  UNL1        0.0540
@<TRIPOS>BOND
     1    27    26    1
     2    11    10    2
     3    26    28    1
     4    26    25    2
     5    28    22    2
     6    10     4    1
     7    10     9   am
     8     3     4    2
     9     3     2    1
    10    25    24    1
    11     4     5    1
    12    22     9    1
    13    22    23    1
    14     9     7   am
    15     2     1    2
    16    24    23    2
    17     5     7    1
    18     5     6    2
    19     7     8    2
    20     1     6    1
    21     1    12    1
    22    13    12    2
    23    12    14   am
    24    14    15    1
    25    14    16    1
    26    16    17    1
    27    17    21    1
    28    17    18    1
    29    21    20    1
    30    18    19    1
    31    19    20    1
