@<TRIPOS>MOLECULE
28821_out_ligand_01.pdbqt
 29 32 0 0 0
SMALL
GASTEIGER

@<TRIPOS>ATOM
      1  N         18.7000  -22.7300   -8.8940 N.am    1  UNL1       -0.2440
      2  C         18.4080  -21.9720  -10.0130 C.2     1  UNL1        0.2660
      3  O         17.3950  -21.4090  -10.3870 O.2     1  UNL1       -0.2670
      4  C         19.6240  -21.9050  -10.8190 C.2     1  UNL1        0.0480
      5  C         19.8620  -21.2840  -12.0300 C.2     1  UNL1        0.0190
      6  C         21.1490  -21.4020  -12.5690 C.2     1  UNL1        0.0180
      7  C         22.1630  -22.1230  -11.8910 C.2     1  UNL1        0.0330
      8  C         21.8830  -22.7520  -10.6700 C.2     1  UNL1        0.0350
      9  C         20.6010  -22.6140  -10.1640 C.2     1  UNL1        0.0490
     10  C         20.0190  -23.1410   -8.9350 C.2     1  UNL1        0.2660
     11  O         20.7040  -23.8000   -8.1740 O.2     1  UNL1       -0.2670
     12  C         23.5040  -22.2120  -12.5340 C.2     1  UNL1        0.2510
     13  O         23.6650  -21.7680  -13.6640 O.2     1  UNL1       -0.2680
     14  N         24.5150  -22.7740  -11.7840 N.am    1  UNL1       -0.3540
     15  H         24.3710  -22.9830  -10.8070 H       1  UNL1        0.1620
     16  C         25.8750  -22.8830  -12.2890 C.3     1  UNL1        0.1550
     17  C         26.7110  -21.6220  -12.0540 C.3     1  UNL1        0.1390
     18  C         26.1400  -20.6560  -11.0280 C.3     1  UNL1        0.0350
     19  C         26.7450  -19.3480  -11.4720 C.3     1  UNL1        0.0290
     20  C         26.6930  -19.4770  -12.9790 C.3     1  UNL1        0.1680
     21  O         26.8300  -20.8740  -13.2830 O.3     1  UNL1       -0.3840
     22  C         17.7760  -23.0390   -7.8440 C.2     1  UNL1        0.0460
     23  C         16.6920  -23.9030   -8.0490 C.2     1  UNL1        0.0310
     24  C         15.7870  -24.2070   -7.0230 C.2     1  UNL1        0.0090
     25  C         15.9330  -23.6560   -5.7480 C.2     1  UNL1       -0.0560
     26  C         14.9430  -24.0030   -4.6710 C.3     1  UNL1        0.0490
     27  C         17.0090  -22.7860   -5.5100 C.2     1  UNL1       -0.0540
     28  C         17.9090  -22.4930   -6.5560 C.2     1  UNL1        0.0370
     29  C         17.2220  -22.1580   -4.1580 C.3     1  UNL1        0.0490
@<TRIPOS>BOND
     1    13    12    2
     2    21    20    1
     3    21    17    1
     4    20    19    1
     5     6     5    1
     6     6     7    2
     7    12     7    1
     8    12    14   am
     9    16    17    1
    10    16    14    1
    11    17    18    1
    12     5     4    2
    13     7     8    1
    14    14    15    1
    15    19    18    1
    16     4     9    1
    17     4     2    1
    18     8     9    2
    19     3     2    2
    20     9    10    1
    21     2     1   am
    22    10     1   am
    23    10    11    2
    24     1    22    1
    25    23    22    2
    26    23    24    1
    27    22    28    1
    28    24    25    2
    29    28    27    2
    30    25    27    1
    31    25    26    1
    32    27    29    1
