@<TRIPOS>MOLECULE
28827_out_ligand_01.pdbqt
 28 31 0 0 0
SMALL
GASTEIGER

@<TRIPOS>ATOM
      1  N         18.4400  -22.8210   -6.4360 N.am    1  UNL1       -0.2440
      2  C         18.6090  -23.8920   -7.2950 C.2     1  UNL1        0.2660
      3  O         17.9320  -24.8770   -7.5260 O.2     1  UNL1       -0.2670
      4  C         19.8720  -23.6890   -7.9980 C.2     1  UNL1        0.0480
      5  C         20.4940  -24.4550   -8.9630 C.2     1  UNL1        0.0190
      6  C         21.7180  -23.9910   -9.4610 C.2     1  UNL1        0.0180
      7  C         22.2930  -22.7870   -8.9850 C.2     1  UNL1        0.0330
      8  C         21.6280  -22.0250   -8.0130 C.2     1  UNL1        0.0350
      9  C         20.4210  -22.5130   -7.5410 C.2     1  UNL1        0.0490
     10  C         19.5140  -21.9590   -6.5430 C.2     1  UNL1        0.2660
     11  O         19.7980  -20.9170   -5.9800 O.2     1  UNL1       -0.2670
     12  C         23.5930  -22.3550   -9.5710 C.2     1  UNL1        0.2510
     13  O         23.8130  -21.1640   -9.7480 O.2     1  UNL1       -0.2680
     14  N         24.4790  -23.3510   -9.9230 N.am    1  UNL1       -0.3540
     15  H         24.1920  -24.3200   -9.9070 H       1  UNL1        0.1620
     16  C         25.7630  -23.0420  -10.5270 C.3     1  UNL1        0.1550
     17  C         25.7960  -23.1800  -12.0590 C.3     1  UNL1        0.1390
     18  C         26.3780  -21.9640  -12.7740 C.3     1  UNL1        0.0350
     19  C         25.1560  -21.1310  -13.0690 C.3     1  UNL1        0.0290
     20  C         24.1260  -22.1930  -13.3710 C.3     1  UNL1        0.1680
     21  O         24.4360  -23.3100  -12.5300 O.3     1  UNL1       -0.3840
     22  C         17.3210  -22.6360   -5.5610 C.2     1  UNL1        0.0460
     23  C         17.4320  -22.8290   -4.1740 C.2     1  UNL1        0.0300
     24  C         16.3390  -22.6560   -3.3180 C.2     1  UNL1        0.0030
     25  C         15.1020  -22.2790   -3.8270 C.2     1  UNL1        0.0070
     26  C         14.9540  -22.0610   -5.1940 C.2     1  UNL1       -0.0600
     27  C         13.6180  -21.6850   -5.7660 C.3     1  UNL1        0.0480
     28  C         16.0580  -22.2540   -6.0470 C.2     1  UNL1        0.0370
@<TRIPOS>BOND
     1    20    19    1
     2    20    21    1
     3    19    18    1
     4    18    17    1
     5    21    17    1
     6    17    16    1
     7    16    14    1
     8    14    15    1
     9    14    12   am
    10    13    12    2
    11    12     7    1
    12     6     7    2
    13     6     5    1
    14     7     8    1
    15     5     4    2
    16     8     9    2
    17     4     9    1
    18     4     2    1
    19     9    10    1
    20     3     2    2
    21     2     1   am
    22    10     1   am
    23    10    11    2
    24     1    22    1
    25    28    22    2
    26    28    26    1
    27    27    26    1
    28    22    23    1
    29    26    25    2
    30    23    24    2
    31    25    24    1
