@<TRIPOS>MOLECULE
28824_out_ligand_01.pdbqt
 31 34 0 0 0
SMALL
GASTEIGER

@<TRIPOS>ATOM
      1  C         21.4470  -22.1910   -9.5960 C.2     1  UNL1        0.0320
      2  C         20.8460  -22.2680  -10.8520 C.2     1  UNL1        0.0190
      3  C         21.6260  -22.2270  -12.0180 C.2     1  UNL1        0.0310
      4  C         23.0240  -22.0970  -11.9700 C.2     1  UNL1        0.0460
      5  C         23.6040  -22.0000  -10.6930 C.2     1  UNL1        0.0310
      6  C         22.8320  -22.0420   -9.5200 C.2     1  UNL1        0.0190
      7  C         20.5810  -22.2340   -8.3810 C.2     1  UNL1        0.2560
      8  O         21.1180  -22.1260   -7.2860 O.2     1  UNL1       -0.2670
      9  N         19.2250  -22.3560   -8.6350 N.am    1  UNL1       -0.3220
     10  H         18.9520  -22.2920   -9.6120 H       1  UNL1        0.1690
     11  C         18.1700  -22.4810   -7.6970 C.2     1  UNL1        0.0500
     12  C         18.4130  -22.5540   -6.3180 C.2     1  UNL1        0.0300
     13  C         17.3660  -22.6870   -5.4010 C.2     1  UNL1        0.0020
     14  C         16.0530  -22.7530   -5.8450 C.2     1  UNL1        0.0010
     15  C         15.7890  -22.6870   -7.2100 C.2     1  UNL1        0.0180
     16  C         16.8350  -22.5560   -8.1500 C.2     1  UNL1        0.0740
     17  C         16.4420  -22.4710   -9.6030 C.3     1  UNL1        0.4190
     18  F         15.1120  -22.6910   -9.7960 F       1  UNL1       -0.1660
     19  F         17.0890  -23.3850  -10.3810 F       1  UNL1       -0.1660
     20  F         16.6990  -21.2580  -10.1780 F       1  UNL1       -0.1660
     21  N         23.8180  -22.0570  -13.1610 N.am    1  UNL1       -0.2440
     22  C         24.8720  -22.9070  -13.4420 C.2     1  UNL1        0.2660
     23  O         25.3670  -23.8310  -12.8200 O.2     1  UNL1       -0.2670
     24  C         25.4030  -22.5250  -14.7460 C.2     1  UNL1        0.0480
     25  C         26.4510  -23.0540  -15.4760 C.2     1  UNL1        0.0180
     26  C         24.6560  -21.4670  -15.2090 C.2     1  UNL1        0.0480
     27  C         26.7310  -22.4710  -16.7150 C.2     1  UNL1        0.0010
     28  C         25.9650  -21.3860  -17.1890 C.2     1  UNL1        0.0010
     29  C         24.9100  -20.8710  -16.4300 C.2     1  UNL1        0.0180
     30  C         23.6430  -21.1660  -14.2030 C.2     1  UNL1        0.2660
     31  O         22.8430  -20.2640  -14.3850 O.2     1  UNL1       -0.2670
@<TRIPOS>BOND
     1    28    27    2
     2    28    29    1
     3    27    25    1
     4    29    26    2
     5    25    24    2
     6    26    24    1
     7    26    30    1
     8    24    22    1
     9    31    30    2
    10    30    21   am
    11    22    21   am
    12    22    23    2
    13    21     4    1
    14     3     4    2
    15     3     2    1
    16     4     5    1
    17     2     1    2
    18     5     6    2
    19    19    17    1
    20    20    17    1
    21    18    17    1
    22    10     9    1
    23    17    16    1
    24     1     6    1
    25     1     7    1
    26     9     7   am
    27     9    11    1
    28     7     8    2
    29    16    11    2
    30    16    15    1
    31    11    12    1
    32    15    14    2
    33    12    13    2
    34    14    13    1
