@<TRIPOS>MOLECULE
28833_out_ligand_01.pdbqt
 32 35 0 0 0
SMALL
GASTEIGER

@<TRIPOS>ATOM
      1  C         22.2780  -22.4830  -11.2650 C.2     1  UNL1        0.0320
      2  C         21.1280  -21.7360  -11.5170 C.2     1  UNL1        0.0190
      3  C         20.0640  -21.7380  -10.6030 C.2     1  UNL1        0.0310
      4  C         20.1090  -22.4920   -9.4180 C.2     1  UNL1        0.0460
      5  C         21.2710  -23.2530   -9.1980 C.2     1  UNL1        0.0310
      6  C         22.3410  -23.2560  -10.1060 C.2     1  UNL1        0.0190
      7  N         19.0220  -22.4930   -8.4850 N.am    1  UNL1       -0.2440
      8  C         17.7170  -22.8290   -8.7870 C.2     1  UNL1        0.2660
      9  O         17.1790  -23.1920   -9.8170 O.2     1  UNL1       -0.2670
     10  C         16.9400  -22.6930   -7.5600 C.2     1  UNL1        0.0510
     11  C         15.5870  -22.9050   -7.3360 C.2     1  UNL1        0.0180
     12  C         17.7960  -22.2900   -6.5630 C.2     1  UNL1        0.0810
     13  C         15.0980  -22.6980   -6.0410 C.2     1  UNL1        0.0030
     14  C         15.9590  -22.2870   -5.0090 C.2     1  UNL1        0.0370
     15  C         17.3180  -22.0860   -5.2890 C.2     1  UNL1        0.1190
     16  C         19.1230  -22.1600   -7.1480 C.2     1  UNL1        0.2690
     17  O         20.0640  -21.8060   -6.4640 O.2     1  UNL1       -0.2670
     18  N         18.2040  -21.6760   -4.2320 N.pl3   1  UNL1       -0.1150
     19  O         18.4810  -22.5290   -3.3800 O.2     1  UNL1       -0.5320
     20  O         18.5510  -20.4900   -4.2310 O.2     1  UNL1       -0.5320
     21  C         23.3870  -22.4560  -12.2610 C.2     1  UNL1        0.2560
     22  N         23.2090  -21.5640  -13.3030 N.am    1  UNL1       -0.3230
     23  H         22.3150  -21.0970  -13.3610 H       1  UNL1        0.1690
     24  O         24.3240  -23.2280  -12.1000 O.2     1  UNL1       -0.2670
     25  C         24.1030  -21.2910  -14.3600 C.2     1  UNL1        0.0350
     26  C         24.9090  -20.1560  -14.2380 C.2     1  UNL1        0.0300
     27  C         25.8230  -19.8200  -15.2400 C.2     1  UNL1        0.0090
     28  C         25.9530  -20.6120  -16.3870 C.2     1  UNL1       -0.0560
     29  C         26.9460  -20.2220  -17.4470 C.3     1  UNL1        0.0490
     30  C         25.1490  -21.7590  -16.5190 C.2     1  UNL1       -0.0540
     31  C         24.2320  -22.0860  -15.5010 C.2     1  UNL1        0.0370
     32  C         25.2480  -22.6520  -17.7270 C.3     1  UNL1        0.0490
@<TRIPOS>BOND
     1    32    30    1
     2    29    28    1
     3    30    28    2
     4    30    31    1
     5    28    27    1
     6    31    25    2
     7    27    26    2
     8    25    26    1
     9    25    22    1
    10    23    22    1
    11    22    21   am
    12    21    24    2
    13    21     1    1
    14     2     1    2
    15     2     3    1
    16     1     6    1
    17     3     4    2
    18     6     5    2
    19     9     8    2
    20     4     5    1
    21     4     7    1
    22     8     7   am
    23     8    10    1
    24     7    16   am
    25    10    11    2
    26    10    12    1
    27    11    13    1
    28    16    12    1
    29    16    17    2
    30    12    15    2
    31    13    14    2
    32    15    14    1
    33    15    18    1
    34    18    20    2
    35    18    19    2
