@<TRIPOS>MOLECULE
28838_out_ligand_01.pdbqt
 33 36 0 0 0
SMALL
GASTEIGER

@<TRIPOS>ATOM
      1  C         22.5150  -22.2870  -11.1470 C.2     1  UNL1        0.0340
      2  C         23.5650  -22.8790  -10.4440 C.2     1  UNL1        0.0170
      3  C         23.3220  -23.4080   -9.1830 C.2     1  UNL1        0.0030
      4  C         22.0360  -23.3510   -8.6290 C.2     1  UNL1        0.0300
      5  C         20.9570  -22.7690   -9.3180 C.2     1  UNL1        0.0460
      6  C         21.2240  -22.2430  -10.5920 C.2     1  UNL1        0.0470
      7  N         19.6460  -22.7200   -8.7460 N.am    1  UNL1       -0.2440
      8  C         18.4820  -23.0800   -9.3990 C.2     1  UNL1        0.2660
      9  O         18.2660  -23.4570  -10.5360 O.2     1  UNL1       -0.2670
     10  C         17.3820  -22.8940   -8.4590 C.2     1  UNL1        0.0480
     11  C         16.0260  -23.1170   -8.6150 C.2     1  UNL1        0.0190
     12  C         17.9100  -22.4120   -7.2840 C.2     1  UNL1        0.0490
     13  C         15.1970  -22.8350   -7.5220 C.2     1  UNL1        0.0190
     14  C         15.7370  -22.3410   -6.3110 C.2     1  UNL1        0.0380
     15  C         17.1180  -22.1240   -6.1870 C.2     1  UNL1        0.0360
     16  C         19.3530  -22.2950   -7.4630 C.2     1  UNL1        0.2660
     17  O         20.0570  -21.8890   -6.5560 O.2     1  UNL1       -0.2670
     18  C         14.8780  -22.0360   -5.1400 C.2     1  UNL1        0.1760
     19  O         15.1540  -22.2720   -3.9800 O.2     1  UNL1       -0.6460
     20  O         13.7190  -21.4520   -5.4850 O.3     1  UNL1       -0.7730
     21  H         13.0980  -21.7140   -4.7710 H       1  UNL1        0.1670
     22  C         22.7260  -21.7270  -12.5100 C.2     1  UNL1        0.2560
     23  N         24.0320  -21.7960  -12.9600 N.am    1  UNL1       -0.3230
     24  H         24.7280  -22.1220  -12.3010 H       1  UNL1        0.1690
     25  O         21.7640  -21.2450  -13.0930 O.2     1  UNL1       -0.2670
     26  C         24.5290  -21.3830  -14.2140 C.2     1  UNL1        0.0350
     27  C         25.1820  -20.1730  -14.4310 C.2     1  UNL1        0.0300
     28  C         25.6410  -19.8350  -15.7090 C.2     1  UNL1        0.0090
     29  C         25.4550  -20.7000  -16.7960 C.2     1  UNL1       -0.0560
     30  C         25.9620  -20.2970  -18.1530 C.3     1  UNL1        0.0490
     31  C         24.7870  -21.9210  -16.5910 C.2     1  UNL1       -0.0540
     32  C         24.3360  -22.2480  -15.2990 C.2     1  UNL1        0.0370
     33  C         24.5600  -22.8890  -17.7190 C.3     1  UNL1        0.0490
@<TRIPOS>BOND
     1    30    29    1
     2    33    31    1
     3    29    31    2
     4    29    28    1
     5    31    32    1
     6    28    27    2
     7    32    26    2
     8    27    26    1
     9    26    23    1
    10    25    22    2
    11    23    22   am
    12    23    24    1
    13    22     1    1
    14     1     6    2
    15     1     2    1
    16     6     5    1
    17     9     8    2
    18     2     3    2
    19     8     7   am
    20     8    10    1
    21     5     7    1
    22     5     4    2
    23     3     4    1
    24     7    16   am
    25    11    10    2
    26    11    13    1
    27    10    12    1
    28    13    14    2
    29    16    12    1
    30    16    17    2
    31    12    15    2
    32    14    15    1
    33    14    18    1
    34    20    18    1
    35    20    21    1
    36    18    19    2
