@<TRIPOS>MOLECULE
28834_out_ligand_01.pdbqt
 32 35 0 0 0
SMALL
GASTEIGER

@<TRIPOS>ATOM
      1  C         20.4570  -22.3560   -7.7380 C.2     1  UNL1        0.0320
      2  C         20.2270  -23.1470   -8.8630 C.2     1  UNL1        0.0190
      3  C         21.2090  -23.2610   -9.8600 C.2     1  UNL1        0.0310
      4  C         22.4450  -22.5990   -9.7630 C.2     1  UNL1        0.0460
      5  C         22.6610  -21.8270   -8.6090 C.2     1  UNL1        0.0310
      6  C         21.6860  -21.7090   -7.6080 C.2     1  UNL1        0.0190
      7  N         23.4420  -22.7180  -10.7850 N.am    1  UNL1       -0.2440
      8  C         24.6990  -23.2610  -10.6080 C.2     1  UNL1        0.2660
      9  O         25.2590  -23.7430   -9.6420 O.2     1  UNL1       -0.2670
     10  C         25.3860  -23.1860  -11.8950 C.2     1  UNL1        0.0510
     11  C         26.6640  -23.5960  -12.2450 C.2     1  UNL1        0.0180
     12  C         24.5270  -22.6030  -12.7970 C.2     1  UNL1        0.0810
     13  C         27.0750  -23.3980  -13.5680 C.2     1  UNL1        0.0030
     14  C         26.2090  -22.8050  -14.5040 C.2     1  UNL1        0.0370
     15  C         24.9270  -22.4110  -14.1000 C.2     1  UNL1        0.1190
     16  C         23.2950  -22.2840  -12.0890 C.2     1  UNL1        0.2690
     17  O         22.3900  -21.7030  -12.6570 O.2     1  UNL1       -0.2670
     18  N         24.0330  -21.8210  -15.0590 N.pl3   1  UNL1       -0.1150
     19  O         23.5160  -22.5880  -15.8800 O.2     1  UNL1       -0.5320
     20  O         23.9130  -20.5910  -15.0210 O.2     1  UNL1       -0.5320
     21  C         19.4460  -22.2060   -6.6530 C.2     1  UNL1        0.2560
     22  N         18.6130  -23.2980   -6.4850 N.am    1  UNL1       -0.3220
     23  H         18.6920  -24.0260   -7.1800 H       1  UNL1        0.1690
     24  O         19.4140  -21.1460   -6.0420 O.2     1  UNL1       -0.2670
     25  C         17.5960  -23.4790   -5.5140 C.2     1  UNL1        0.0410
     26  C         17.8580  -23.3730   -4.1440 C.2     1  UNL1        0.0300
     27  C         16.8490  -23.5600   -3.2030 C.2     1  UNL1        0.0030
     28  C         15.5580  -23.8630   -3.6190 C.2     1  UNL1        0.0070
     29  C         15.2550  -23.9840   -4.9820 C.2     1  UNL1       -0.0540
     30  C         13.8370  -24.3170   -5.3640 C.3     1  UNL1        0.0490
     31  C         16.2780  -23.7930   -5.9460 C.2     1  UNL1       -0.0290
     32  C         15.9710  -23.9200   -7.4190 C.3     1  UNL1        0.0510
@<TRIPOS>BOND
     1    19    18    2
     2    18    20    2
     3    18    15    1
     4    14    15    2
     5    14    13    1
     6    15    12    1
     7    13    11    2
     8    12    16    1
     9    12    10    2
    10    17    16    2
    11    11    10    1
    12    16     7   am
    13    10     8    1
    14     7     8   am
    15     7     4    1
    16     8     9    2
    17     3     4    2
    18     3     2    1
    19     4     5    1
    20     2     1    2
    21     5     6    2
    22     1     6    1
    23     1    21    1
    24    32    31    1
    25    23    22    1
    26    21    22   am
    27    21    24    2
    28    22    25    1
    29    31    25    2
    30    31    29    1
    31    25    26    1
    32    30    29    1
    33    29    28    2
    34    26    27    2
    35    28    27    1
