@<TRIPOS>MOLECULE
28842_out_ligand_01.pdbqt
 32 34 0 0 0
SMALL
GASTEIGER

@<TRIPOS>ATOM
      1  C         19.2510  -22.4020   -9.5160 C.2     1  UNL1        0.0340
      2  C         18.2110  -22.2180  -10.4390 C.2     1  UNL1        0.0170
      3  C         18.4970  -21.7110  -11.7060 C.2     1  UNL1        0.0030
      4  C         19.8160  -21.3930  -12.0450 C.2     1  UNL1        0.0290
      5  C         20.8650  -21.5880  -11.1320 C.2     1  UNL1        0.0350
      6  C         20.5770  -22.1050   -9.8660 C.2     1  UNL1        0.0460
      7  N         22.1590  -21.2270  -11.5670 N.am    1  UNL1       -0.3230
      8  C         23.2330  -22.0680  -11.7960 C.2     1  UNL1        0.2570
      9  O         23.2410  -23.2930  -11.7360 O.2     1  UNL1       -0.2670
     10  H         22.2930  -20.2330  -11.7390 H       1  UNL1        0.1690
     11  C         24.4860  -21.3920  -12.2170 C.2     1  UNL1        0.0490
     12  C         25.4800  -21.1950  -11.2460 C.2     1  UNL1        0.0180
     13  C         26.6860  -20.5760  -11.5950 C.2     1  UNL1        0.0010
     14  C         26.9030  -20.1400  -12.9070 C.2     1  UNL1        0.0010
     15  C         25.9100  -20.3110  -13.8740 C.2     1  UNL1        0.0190
     16  C         24.7010  -20.9240  -13.5210 C.2     1  UNL1        0.0530
     17  C         23.6780  -21.0810  -14.5520 C.2     1  UNL1        0.1770
     18  O         23.6490  -21.9870  -15.3720 O.2     1  UNL1       -0.6460
     19  O         22.7490  -20.1140  -14.4480 O.3     1  UNL1       -0.7730
     20  H         22.8470  -19.7530  -13.5410 H       1  UNL1        0.1670
     21  C         18.9670  -22.9280   -8.1530 C.2     1  UNL1        0.2560
     22  N         18.1660  -22.0940   -7.3880 N.am    1  UNL1       -0.3220
     23  H         17.9670  -21.1900   -7.7890 H       1  UNL1        0.1690
     24  O         19.4630  -23.9980   -7.8290 O.2     1  UNL1       -0.2670
     25  C         17.6850  -22.3120   -6.0750 C.2     1  UNL1        0.0410
     26  C         18.3330  -21.7720   -4.9570 C.2     1  UNL1        0.0300
     27  C         17.8480  -21.9940   -3.6690 C.2     1  UNL1        0.0030
     28  C         16.7090  -22.7720   -3.4810 C.2     1  UNL1        0.0070
     29  C         16.0350  -23.3340   -4.5770 C.2     1  UNL1       -0.0540
     30  C         14.8020  -24.1560   -4.3030 C.3     1  UNL1        0.0490
     31  C         16.5150  -23.0950   -5.8900 C.2     1  UNL1       -0.0290
     32  C         15.7820  -23.6620   -7.0830 C.3     1  UNL1        0.0510
@<TRIPOS>BOND
     1    18    17    2
     2    17    19    1
     3    17    16    1
     4    19    20    1
     5    15    16    1
     6    15    14    2
     7    16    11    2
     8    14    13    1
     9    11     8    1
    10    11    12    1
    11     4     3    2
    12     4     5    1
    13     8     9    2
    14     8     7   am
    15    10     7    1
    16     3     2    1
    17    13    12    2
    18     7     5    1
    19     5     6    2
    20     2     1    2
    21     6     1    1
    22     1    21    1
    23    21    24    2
    24    21    22   am
    25    23    22    1
    26    22    25    1
    27    32    31    1
    28    25    31    2
    29    25    26    1
    30    31    29    1
    31    26    27    2
    32    29    30    1
    33    29    28    2
    34    27    28    1
