@<TRIPOS>MOLECULE
28855_out_ligand_01.pdbqt
 32 34 0 0 0
SMALL
GASTEIGER

@<TRIPOS>ATOM
      1  C         18.7990  -20.7520  -11.8080 C.3     1  UNL1        0.0510
      2  C         19.4980  -21.7950  -10.9800 C.2     1  UNL1       -0.0270
      3  C         20.8890  -21.7240  -10.8070 C.2     1  UNL1        0.0340
      4  C         21.5460  -22.6870  -10.0370 C.2     1  UNL1        0.0800
      5  C         20.8340  -23.7350   -9.4530 C.2     1  UNL1        0.0280
      6  C         19.4490  -23.8090   -9.6210 C.2     1  UNL1        0.0390
      7  C         18.7740  -22.8440  -10.3770 C.2     1  UNL1        0.0750
      8  O         17.4260  -22.8380  -10.6220 O.2     1  UNL1       -0.3420
      9  C         16.5620  -22.1940   -9.6940 C.3     1  UNL1        0.2780
     10  C         16.3370  -22.9480   -8.3750 C.2     1  UNL1        0.2460
     11  O         16.0050  -24.1310   -8.3820 O.2     1  UNL1       -0.2710
     12  N         16.5730  -22.1630   -7.2650 N.am    1  UNL1       -0.3240
     13  H         16.7930  -21.1870   -7.4530 H       1  UNL1        0.1690
     14  C         16.4640  -22.5050   -5.9000 C.2     1  UNL1        0.0520
     15  C         15.3430  -23.1420   -5.3620 C.2     1  UNL1        0.0310
     16  C         15.2890  -23.4600   -4.0000 C.2     1  UNL1        0.0020
     17  C         16.3550  -23.1440   -3.1600 C.2     1  UNL1        0.0020
     18  C         17.4810  -22.5110   -3.6790 C.2     1  UNL1        0.0210
     19  C         17.5350  -22.1940   -5.0400 C.2     1  UNL1        0.0370
     20 BR         19.0990  -21.3190   -5.6830 Br      1  UNL1       -0.0490
     21  S         23.3060  -22.5910   -9.8350 S.O2    1  UNL1        0.2630
     22  O         23.6870  -21.2060   -9.6680 O.2     1  UNL1       -0.2000
     23  O         23.6830  -23.5930   -8.8590 O.2     1  UNL1       -0.2000
     24  N         23.8780  -23.1550  -11.3250 N.pl3   1  UNL1       -0.2810
     25  H         24.4640  -23.9800  -11.1900 H       1  UNL1        0.1790
     26  C         24.3100  -22.1940  -12.2770 C.2     1  UNL1        0.0420
     27  C         23.4020  -21.7020  -13.2170 C.2     1  UNL1        0.0330
     28  C         23.8110  -20.7300  -14.1310 C.2     1  UNL1        0.0440
     29  C         25.1180  -20.2560  -14.0890 C.2     1  UNL1        0.1160
     30  F         25.5090  -19.3220  -14.9650 F       1  UNL1       -0.2060
     31  C         26.0240  -20.7350  -13.1480 C.2     1  UNL1        0.0440
     32  C         25.6180  -21.7080  -12.2350 C.2     1  UNL1        0.0330
@<TRIPOS>BOND
     1    30    29    1
     2    28    29    2
     3    28    27    1
     4    29    31    1
     5    27    26    2
     6    31    32    2
     7    26    32    1
     8    26    24    1
     9     1     2    1
    10    24    25    1
    11    24    21    1
    12     2     3    2
    13     2     7    1
    14     3     4    1
    15     8     7    1
    16     8     9    1
    17     7     6    2
    18     4    21    1
    19     4     5    2
    20    21    22    2
    21    21    23    2
    22     9    10    1
    23     6     5    1
    24    11    10    2
    25    10    12   am
    26    13    12    1
    27    12    14    1
    28    14    15    2
    29    14    19    1
    30    20    19    1
    31    15    16    1
    32    19    18    2
    33    16    17    2
    34    18    17    1
