@<TRIPOS>MOLECULE
28856_out_ligand_01.pdbqt
 31 33 0 0 0
SMALL
GASTEIGER

@<TRIPOS>ATOM
      1  C         18.8820  -20.7750  -11.8400 C.3     1  UNL1        0.0510
      2  C         19.5750  -21.8140  -11.0020 C.2     1  UNL1       -0.0270
      3  C         20.9680  -21.7590  -10.8460 C.2     1  UNL1        0.0340
      4  C         21.6190  -22.7130  -10.0610 C.2     1  UNL1        0.0800
      5  C         20.9010  -23.7400   -9.4490 C.2     1  UNL1        0.0280
      6  C         19.5140  -23.8000   -9.6030 C.2     1  UNL1        0.0390
      7  C         18.8440  -22.8410  -10.3710 C.2     1  UNL1        0.0750
      8  O         17.4920  -22.8210  -10.6030 O.2     1  UNL1       -0.3420
      9  C         16.6470  -22.1590   -9.6700 C.3     1  UNL1        0.2780
     10  C         16.3820  -22.9240   -8.3670 C.2     1  UNL1        0.2460
     11  O         16.0570  -24.1080   -8.3920 O.2     1  UNL1       -0.2710
     12  N         16.5760  -22.1450   -7.2420 N.am    1  UNL1       -0.3240
     13  H         16.7970  -21.1670   -7.4180 H       1  UNL1        0.1690
     14  C         16.4250  -22.4980   -5.8850 C.2     1  UNL1        0.0520
     15  C         15.2940  -23.1530   -5.3900 C.2     1  UNL1        0.0310
     16  C         15.1970  -23.4800   -4.0330 C.2     1  UNL1        0.0020
     17  C         16.2280  -23.1580   -3.1540 C.2     1  UNL1        0.0020
     18  C         17.3630  -22.5040   -3.6300 C.2     1  UNL1        0.0210
     19  C         17.4600  -22.1780   -4.9850 C.2     1  UNL1        0.0370
     20 BR         19.0350  -21.2790   -5.5680 Br      1  UNL1       -0.0490
     21  S         23.3850  -22.6490   -9.8770 S.O2    1  UNL1        0.2630
     22  O         23.7850  -23.5870   -8.8510 O.2     1  UNL1       -0.2000
     23  O         23.7590  -21.2520   -9.7930 O.2     1  UNL1       -0.2000
     24  N         23.9330  -23.1860  -11.3850 N.pl3   1  UNL1       -0.2810
     25  H         23.3800  -23.9810  -11.7020 H       1  UNL1        0.1790
     26  C         24.2780  -22.2060  -12.3540 C.2     1  UNL1        0.0420
     27  C         23.3050  -21.7380  -13.2360 C.2     1  UNL1        0.0300
     28  C         23.6460  -20.8010  -14.2120 C.2     1  UNL1        0.0020
     29  C         24.9590  -20.3400  -14.3080 C.2     1  UNL1        0.0000
     30  C         25.9330  -20.8160  -13.4290 C.2     1  UNL1        0.0020
     31  C         25.5940  -21.7530  -12.4520 C.2     1  UNL1        0.0300
@<TRIPOS>BOND
     1    29    28    2
     2    29    30    1
     3    28    27    1
     4    30    31    2
     5    27    26    2
     6    31    26    1
     7    26    24    1
     8     1     2    1
     9    25    24    1
    10    24    21    1
    11     2     3    2
    12     2     7    1
    13     3     4    1
    14     8     7    1
    15     8     9    1
    16     7     6    2
    17     4    21    1
    18     4     5    2
    19    21    23    2
    20    21    22    2
    21     9    10    1
    22     6     5    1
    23    11    10    2
    24    10    12   am
    25    13    12    1
    26    12    14    1
    27    14    15    2
    28    14    19    1
    29    20    19    1
    30    15    16    1
    31    19    18    2
    32    16    17    2
    33    18    17    1
