@<TRIPOS>MOLECULE
28858_out_ligand_01.pdbqt
 34 36 0 0 0
SMALL
GASTEIGER

@<TRIPOS>ATOM
      1  C         18.8550  -20.7440  -11.8060 C.3     1  UNL1        0.0510
      2  C         19.5680  -21.7940  -10.9960 C.2     1  UNL1       -0.0270
      3  C         20.9620  -21.7290  -10.8590 C.2     1  UNL1        0.0340
      4  C         21.6350  -22.7000  -10.1130 C.2     1  UNL1        0.0800
      5  C         20.9290  -23.7210   -9.4780 C.2     1  UNL1        0.0280
      6  C         19.5390  -23.7870   -9.6090 C.2     1  UNL1        0.0390
      7  C         18.8520  -22.8320  -10.3670 C.2     1  UNL1        0.0750
      8  O         17.4930  -22.7940  -10.5420 O.2     1  UNL1       -0.3420
      9  C         16.6970  -22.1110   -9.5810 C.3     1  UNL1        0.2780
     10  C         16.3490  -22.9310   -8.3320 C.2     1  UNL1        0.2460
     11  O         15.9140  -24.0740   -8.4390 O.2     1  UNL1       -0.2710
     12  N         16.5600  -22.2250   -7.1580 N.am    1  UNL1       -0.3250
     13  H         16.9560  -21.2960   -7.3020 H       1  UNL1        0.1690
     14  C         16.3490  -22.6460   -5.8250 C.2     1  UNL1        0.0490
     15  C         15.2180  -23.3860   -5.4540 C.2     1  UNL1        0.0300
     16  C         15.0200  -23.7950   -4.1320 C.2     1  UNL1        0.0020
     17  C         15.9520  -23.4730   -3.1540 C.2     1  UNL1        0.0010
     18  C         17.0820  -22.7390   -3.5020 C.2     1  UNL1        0.0180
     19  C         17.2940  -22.3110   -4.8300 C.2     1  UNL1        0.0740
     20  C         18.5640  -21.5540   -5.1200 C.3     1  UNL1        0.4190
     21  F         19.3890  -22.1850   -6.0080 F       1  UNL1       -0.1660
     22  F         19.3160  -21.3510   -4.0030 F       1  UNL1       -0.1660
     23  F         18.3420  -20.3180   -5.6500 F       1  UNL1       -0.1660
     24  S         23.3990  -22.6110   -9.9340 S.O2    1  UNL1        0.2630
     25  O         23.7860  -21.2280   -9.7690 O.2     1  UNL1       -0.2000
     26  O         23.7830  -23.6110   -8.9590 O.2     1  UNL1       -0.2000
     27  N         23.9510  -23.1830  -11.4260 N.pl3   1  UNL1       -0.2810
     28  H         24.5770  -23.9780  -11.2950 H       1  UNL1        0.1790
     29  C         24.3150  -22.2260  -12.4120 C.2     1  UNL1        0.0420
     30  C         23.3520  -21.7180  -13.2820 C.2     1  UNL1        0.0300
     31  C         23.7240  -20.8040  -14.2700 C.2     1  UNL1        0.0020
     32  C         25.0560  -20.4070  -14.3880 C.2     1  UNL1        0.0000
     33  C         26.0200  -20.9240  -13.5200 C.2     1  UNL1        0.0020
     34  C         25.6500  -21.8370  -12.5330 C.2     1  UNL1        0.0300
@<TRIPOS>BOND
     1    32    31    2
     2    32    33    1
     3    31    30    1
     4    33    34    2
     5    30    29    2
     6    34    29    1
     7    29    27    1
     8     1     2    1
     9    27    28    1
    10    27    24    1
    11     2     3    2
    12     2     7    1
    13     3     4    1
    14     8     7    1
    15     8     9    1
    16     7     6    2
    17     4    24    1
    18     4     5    2
    19    24    25    2
    20    24    26    2
    21     6     5    1
    22     9    10    1
    23    11    10    2
    24    10    12   am
    25    13    12    1
    26    12    14    1
    27    21    20    1
    28    14    15    2
    29    14    19    1
    30    23    20    1
    31    15    16    1
    32    20    19    1
    33    20    22    1
    34    19    18    2
    35    16    17    2
    36    18    17    1
