@<TRIPOS>MOLECULE
28853_out_ligand_01.pdbqt
 33 35 0 0 0
SMALL
GASTEIGER

@<TRIPOS>ATOM
      1  C         18.8660  -20.6430  -11.8380 C.3     1  UNL1        0.0510
      2  C         19.5610  -21.6330  -10.9410 C.2     1  UNL1       -0.0270
      3  C         20.9630  -21.6970  -10.9370 C.2     1  UNL1        0.0340
      4  C         21.6160  -22.6130  -10.1110 C.2     1  UNL1        0.0800
      5  C         20.8890  -23.4500   -9.2660 C.2     1  UNL1        0.0280
      6  C         19.4930  -23.3890   -9.2640 C.2     1  UNL1        0.0390
      7  C         18.8230  -22.4900  -10.1020 C.2     1  UNL1        0.0750
      8  O         17.4620  -22.3370  -10.1620 O.2     1  UNL1       -0.3420
      9  C         16.6340  -23.4690   -9.9200 C.3     1  UNL1        0.2780
     10  C         16.3080  -23.7330   -8.4430 C.2     1  UNL1        0.2460
     11  O         15.8200  -24.8040   -8.0980 O.2     1  UNL1       -0.2710
     12  N         16.6070  -22.6490   -7.6360 N.am    1  UNL1       -0.3250
     13  H         17.0580  -21.8830   -8.1220 H       1  UNL1        0.1690
     14  C         16.4370  -22.5110   -6.2400 C.2     1  UNL1        0.0410
     15  C         15.2090  -22.7580   -5.6200 C.2     1  UNL1        0.0300
     16  C         15.0600  -22.6080   -4.2430 C.2     1  UNL1        0.0030
     17  C         16.1390  -22.2070   -3.4650 C.2     1  UNL1        0.0070
     18  C         17.3880  -21.9480   -4.0510 C.2     1  UNL1       -0.0540
     19  C         18.5170  -21.5200   -3.1530 C.3     1  UNL1        0.0490
     20  C         17.5470  -22.1010   -5.4520 C.2     1  UNL1       -0.0290
     21  C         18.8870  -21.8410   -6.1040 C.3     1  UNL1        0.0510
     22  S         23.3900  -22.6870  -10.1030 S.O2    1  UNL1        0.2630
     23  O         23.9160  -21.3430   -9.9920 O.2     1  UNL1       -0.2000
     24  O         23.7740  -23.7180   -9.1600 O.2     1  UNL1       -0.2000
     25  N         23.7410  -23.3050  -11.6390 N.pl3   1  UNL1       -0.2810
     26  H         24.2080  -24.2080  -11.5590 H       1  UNL1        0.1790
     27  C         24.2210  -22.4020  -12.6240 C.2     1  UNL1        0.0420
     28  C         25.5940  -22.2080  -12.7790 C.2     1  UNL1        0.0330
     29  C         26.0600  -21.2890  -13.7210 C.2     1  UNL1        0.0440
     30  C         25.1490  -20.5740  -14.4900 C.2     1  UNL1        0.1160
     31  F         25.5960  -19.6920  -15.3940 F       1  UNL1       -0.2060
     32  C         23.7780  -20.7570  -14.3350 C.2     1  UNL1        0.0440
     33  C         23.3110  -21.6740  -13.3920 C.2     1  UNL1        0.0330
@<TRIPOS>BOND
     1    31    30    1
     2    30    32    2
     3    30    29    1
     4    32    33    1
     5    29    28    2
     6    33    27    2
     7    28    27    1
     8    27    25    1
     9     1     2    1
    10    25    26    1
    11    25    22    1
    12     2     3    2
    13     2     7    1
    14     3     4    1
    15     8     7    1
    16     8     9    1
    17     4    22    1
    18     4     5    2
    19    22    23    2
    20    22    24    2
    21     7     6    2
    22     9    10    1
    23     5     6    1
    24    10    11    2
    25    10    12   am
    26    13    12    1
    27    12    14    1
    28    14    15    2
    29    14    20    1
    30    21    20    1
    31    15    16    1
    32    20    18    2
    33    16    17    2
    34    18    17    1
    35    18    19    1
