@<TRIPOS>MOLECULE
28854_out_ligand_01.pdbqt
 33 35 0 0 0
SMALL
GASTEIGER

@<TRIPOS>ATOM
      1  C         18.7790  -22.8530  -10.3970 C.2     1  UNL1        0.0750
      2  C         19.4340  -23.8350   -9.6420 C.2     1  UNL1        0.0390
      3  C         20.8200  -23.7810   -9.4660 C.2     1  UNL1        0.0280
      4  C         21.5510  -22.7510  -10.0620 C.2     1  UNL1        0.0800
      5  C         20.9070  -21.7660  -10.8200 C.2     1  UNL1        0.0340
      6  C         19.5180  -21.8240  -11.0110 C.2     1  UNL1       -0.0270
      7  C         18.8330  -20.7640  -11.8280 C.3     1  UNL1        0.0510
      8  O         17.4270  -22.8440  -10.6270 O.2     1  UNL1       -0.3420
      9  C         16.6200  -22.1700   -9.6630 C.3     1  UNL1        0.2780
     10  C         16.3340  -22.9940   -8.4010 C.2     1  UNL1        0.2460
     11  N         16.5730  -22.2790   -7.2400 N.am    1  UNL1       -0.3250
     12  H         16.8590  -21.3170   -7.3930 H       1  UNL1        0.1690
     13  O         15.9500  -24.1570   -8.4910 O.2     1  UNL1       -0.2710
     14  C         16.4060  -22.6950   -5.9010 C.2     1  UNL1        0.0410
     15  C         15.1830  -22.4130   -5.2520 C.2     1  UNL1       -0.0350
     16  C         15.0010  -22.8250   -3.9200 C.2     1  UNL1        0.0090
     17  C         14.0530  -21.6900   -5.9360 C.3     1  UNL1        0.0500
     18  C         16.0050  -23.5110   -3.2360 C.2     1  UNL1        0.0070
     19  C         17.2180  -23.7860   -3.8660 C.2     1  UNL1       -0.0600
     20  C         18.3100  -24.5270   -3.1550 C.3     1  UNL1        0.0480
     21  C         17.4050  -23.3780   -5.1960 C.2     1  UNL1        0.0370
     22  S         23.3110  -22.6610   -9.8050 S.O2    1  UNL1        0.2630
     23  O         23.6650  -21.2690   -9.6190 O.2     1  UNL1       -0.2000
     24  O         23.6580  -23.6630   -8.8190 O.2     1  UNL1       -0.2000
     25  N         23.9360  -23.2200  -11.2740 N.pl3   1  UNL1       -0.2810
     26  H         23.4600  -24.0660  -11.5880 H       1  UNL1        0.1790
     27  C         24.3550  -22.2850  -12.2580 C.2     1  UNL1        0.0420
     28  C         23.4140  -21.7820  -13.1630 C.2     1  UNL1        0.0330
     29  C         23.8050  -20.8420  -14.1200 C.2     1  UNL1        0.0440
     30  C         25.1310  -20.4170  -14.1630 C.2     1  UNL1        0.1160
     31  F         25.5000  -19.5110  -15.0740 F       1  UNL1       -0.2060
     32  C         26.0750  -20.9150  -13.2690 C.2     1  UNL1        0.0440
     33  C         25.6860  -21.8530  -12.3130 C.2     1  UNL1        0.0330
@<TRIPOS>BOND
     1    31    30    1
     2    30    29    2
     3    30    32    1
     4    29    28    1
     5    32    33    2
     6    28    27    2
     7    33    27    1
     8    27    25    1
     9     7     6    1
    10    26    25    1
    11    25    22    1
    12     6     5    1
    13     6     1    2
    14     5     4    2
    15     8     1    1
    16     8     9    1
    17     1     2    1
    18     4    22    1
    19     4     3    1
    20    22    23    2
    21    22    24    2
    22     9    10    1
    23     2     3    2
    24    13    10    2
    25    10    11   am
    26    12    11    1
    27    11    14    1
    28    17    15    1
    29    14    15    2
    30    14    21    1
    31    15    16    1
    32    21    19    2
    33    16    18    2
    34    19    18    1
    35    19    20    1
