@<TRIPOS>MOLECULE
28867_out_ligand_01.pdbqt
 33 35 0 0 0
SMALL
GASTEIGER

@<TRIPOS>ATOM
      1  C         21.5620  -22.7900   -9.9690 C.2     1  UNL1        0.0800
      2  C         20.8330  -23.8100   -9.3590 C.2     1  UNL1        0.0280
      3  C         19.4480  -23.8680   -9.5290 C.2     1  UNL1        0.0390
      4  C         18.7900  -22.9130  -10.3140 C.2     1  UNL1        0.0750
      5  C         19.5330  -21.8950  -10.9460 C.2     1  UNL1       -0.0270
      6  C         18.8540  -20.8690  -11.8120 C.3     1  UNL1        0.0510
      7  C         20.9230  -21.8410  -10.7700 C.2     1  UNL1        0.0340
      8  S         23.3260  -22.7210   -9.7680 S.O2    1  UNL1        0.2630
      9  O         23.7240  -21.3430   -9.5820 O.2     1  UNL1       -0.2000
     10  O         23.6880  -23.7340   -8.7990 O.2     1  UNL1       -0.2000
     11  N         23.8900  -23.2810  -11.2610 N.pl3   1  UNL1       -0.2810
     12  H         24.2200  -24.2420  -11.1810 H       1  UNL1        0.1790
     13  C         24.6670  -22.3910  -12.0520 C.2     1  UNL1        0.0430
     14  C         25.8690  -21.9050  -11.5510 C.2     1  UNL1        0.0300
     15  C         26.6530  -21.0590  -12.3360 C.2     1  UNL1        0.0090
     16  C         26.2470  -20.6970  -13.6300 C.2     1  UNL1       -0.0560
     17  C         27.1200  -19.7850  -14.4480 C.3     1  UNL1        0.0490
     18  C         25.0280  -21.1950  -14.1350 C.2     1  UNL1       -0.0540
     19  C         24.2480  -22.0480  -13.3360 C.2     1  UNL1        0.0370
     20  C         24.5550  -20.8520  -15.5220 C.3     1  UNL1        0.0490
     21  O         17.4420  -22.8940  -10.5650 O.2     1  UNL1       -0.3420
     22  C         16.5800  -22.2730   -9.6190 C.3     1  UNL1        0.2780
     23  C         16.3310  -23.0780   -8.3370 C.2     1  UNL1        0.2460
     24  O         15.8920  -24.2230   -8.3980 O.2     1  UNL1       -0.2710
     25  N         16.6720  -22.3750   -7.1960 N.am    1  UNL1       -0.3250
     26  H         16.9690  -21.4200   -7.3670 H       1  UNL1        0.1690
     27  C         16.5870  -22.7820   -5.8470 C.2     1  UNL1        0.0400
     28  C         17.6500  -23.4060   -5.1850 C.2     1  UNL1        0.0300
     29  C         17.5350  -23.7950   -3.8490 C.2     1  UNL1        0.0020
     30  C         16.3530  -23.5650   -3.1550 C.2     1  UNL1        0.0010
     31  C         15.2850  -22.9450   -3.7980 C.2     1  UNL1        0.0090
     32  C         15.3840  -22.5470   -5.1430 C.2     1  UNL1       -0.0350
     33  C         14.1900  -21.8910   -5.7840 C.3     1  UNL1        0.0500
@<TRIPOS>BOND
     1    20    18    1
     2    17    16    1
     3    18    16    2
     4    18    19    1
     5    16    15    1
     6    19    13    2
     7    15    14    2
     8    13    14    1
     9    13    11    1
    10     6     5    1
    11    11    12    1
    12    11     8    1
    13     5     7    1
    14     5     4    2
    15     7     1    2
    16    21     4    1
    17    21    22    1
    18     4     3    1
    19     1     8    1
    20     1     2    1
    21     8     9    2
    22     8    10    2
    23    22    23    1
    24     3     2    2
    25    24    23    2
    26    23    25   am
    27    26    25    1
    28    25    27    1
    29    27    28    2
    30    27    32    1
    31    33    32    1
    32    28    29    1
    33    32    31    2
    34    29    30    2
    35    31    30    1
