@<TRIPOS>MOLECULE
28863_out_ligand_01.pdbqt
 32 34 0 0 0
SMALL
GASTEIGER

@<TRIPOS>ATOM
      1  C         18.8290  -20.8500  -11.9490 C.3     1  UNL1        0.0510
      2  C         19.4950  -21.8500  -11.0440 C.2     1  UNL1       -0.0270
      3  C         20.8850  -21.7950  -10.8580 C.2     1  UNL1        0.0340
      4  C         21.5130  -22.7260  -10.0270 C.2     1  UNL1        0.0800
      5  C         20.7690  -23.6960   -9.3570 C.2     1  UNL1        0.0280
      6  C         19.3840  -23.7540   -9.5380 C.2     1  UNL1        0.0390
      7  C         18.7410  -22.8390  -10.3820 C.2     1  UNL1        0.0750
      8  O         17.3900  -22.7960  -10.6110 O.2     1  UNL1       -0.3420
      9  C         16.5530  -22.1500   -9.6590 C.3     1  UNL1        0.2780
     10  C         16.3070  -22.9340   -8.3630 C.2     1  UNL1        0.2460
     11  O         15.9500  -24.1070   -8.4030 O.2     1  UNL1       -0.2710
     12  N         16.5090  -22.1690   -7.2320 N.am    1  UNL1       -0.3240
     13  H         16.8550  -21.2260   -7.3920 H       1  UNL1        0.1690
     14  C         16.3850  -22.5450   -5.8770 C.2     1  UNL1        0.0520
     15  C         15.2570  -23.1930   -5.3660 C.2     1  UNL1        0.0310
     16  C         15.1870  -23.5430   -4.0130 C.2     1  UNL1        0.0020
     17  C         16.2430  -23.2470   -3.1530 C.2     1  UNL1        0.0020
     18  C         17.3730  -22.6000   -3.6440 C.2     1  UNL1        0.0210
     19  C         17.4440  -22.2520   -4.9970 C.2     1  UNL1        0.0370
     20 BR         19.0220  -21.3770   -5.6030 Br      1  UNL1       -0.0490
     21  S         23.2700  -22.6500   -9.7870 S.O2    1  UNL1        0.2630
     22  O         23.6180  -23.6730   -8.8230 O.2     1  UNL1       -0.2000
     23  O         23.6600  -21.2720   -9.5840 O.2     1  UNL1       -0.2000
     24  N         23.8680  -23.1920  -11.2750 N.pl3   1  UNL1       -0.2810
     25  H         24.4010  -24.0540  -11.1500 H       1  UNL1        0.1790
     26  C         24.3890  -22.2230  -12.1730 C.2     1  UNL1        0.0420
     27  C         23.5950  -21.7610  -13.2230 C.2     1  UNL1        0.0320
     28  C         24.0870  -20.7780  -14.0850 C.2     1  UNL1        0.0260
     29  C         25.3660  -20.2590  -13.8850 C.2     1  UNL1        0.0340
     30 CL         25.9700  -19.0470  -14.9460 Cl      1  UNL1       -0.0840
     31  C         26.1560  -20.7150  -12.8310 C.2     1  UNL1        0.0260
     32  C         25.6650  -21.6980  -11.9690 C.2     1  UNL1        0.0320
@<TRIPOS>BOND
     1    30    29    1
     2    28    29    2
     3    28    27    1
     4    29    31    1
     5    27    26    2
     6    31    32    2
     7    26    32    1
     8    26    24    1
     9     1     2    1
    10    24    25    1
    11    24    21    1
    12     2     3    2
    13     2     7    1
    14     3     4    1
    15     8     7    1
    16     8     9    1
    17     7     6    2
    18     4    21    1
    19     4     5    2
    20    21    23    2
    21    21    22    2
    22     9    10    1
    23     6     5    1
    24    11    10    2
    25    10    12   am
    26    13    12    1
    27    12    14    1
    28    14    15    2
    29    14    19    1
    30    20    19    1
    31    15    16    1
    32    19    18    2
    33    16    17    2
    34    18    17    1
