@<TRIPOS>MOLECULE
28862_out_ligand_01.pdbqt
 37 40 0 0 0
SMALL
GASTEIGER

@<TRIPOS>ATOM
      1  O         21.1300  -22.6260  -10.8500 O.2     1  UNL1       -0.3420
      2  C         20.1710  -23.0760   -9.9840 C.2     1  UNL1        0.0750
      3  C         20.4180  -23.9270   -8.9000 C.2     1  UNL1        0.0390
      4  C         19.3750  -24.3180   -8.0560 C.2     1  UNL1        0.0280
      5  C         18.0820  -23.8560   -8.3010 C.2     1  UNL1        0.0800
      6  C         17.8230  -22.9920   -9.3670 C.2     1  UNL1        0.0340
      7  C         18.8660  -22.6040  -10.2220 C.2     1  UNL1       -0.0270
      8  C         18.5770  -21.6570  -11.3560 C.3     1  UNL1        0.0510
      9  S         16.7630  -24.3380   -7.2150 S.O2    1  UNL1        0.2630
     10  O         15.6610  -24.7810   -8.0460 O.2     1  UNL1       -0.2000
     11  O         17.2940  -25.1900   -6.1730 O.2     1  UNL1       -0.2000
     12  N         16.2760  -22.8630   -6.5450 N.pl3   1  UNL1       -0.2810
     13  H         15.2650  -22.8400   -6.4200 H       1  UNL1        0.1790
     14  C         17.0740  -22.3080   -5.5080 C.2     1  UNL1        0.0420
     15  C         16.6930  -22.4990   -4.1800 C.2     1  UNL1        0.0300
     16  C         17.4540  -21.9400   -3.1530 C.2     1  UNL1        0.0020
     17  C         18.5890  -21.1870   -3.4570 C.2     1  UNL1        0.0000
     18  C         18.9620  -20.9910   -4.7870 C.2     1  UNL1        0.0020
     19  C         18.2040  -21.5530   -5.8150 C.2     1  UNL1        0.0300
     20  C         22.4690  -23.0740  -10.6400 C.3     1  UNL1        0.2780
     21  C         23.4390  -21.8890  -10.6420 C.2     1  UNL1        0.2460
     22  O         23.4740  -21.1060   -9.6970 O.2     1  UNL1       -0.2710
     23  N         24.1950  -21.8200  -11.7960 N.am    1  UNL1       -0.3230
     24  H         24.0350  -22.5670  -12.4710 H       1  UNL1        0.1690
     25  C         25.1800  -20.8800  -12.1520 C.2     1  UNL1        0.0690
     26  C         26.1770  -20.4290  -11.2860 C.2     1  UNL1        0.0320
     27  C         27.1210  -19.4920  -11.7220 C.2     1  UNL1        0.0020
     28  C         27.0740  -18.9920  -13.0230 C.2     1  UNL1        0.0030
     29  C         26.0870  -19.4340  -13.9000 C.2     1  UNL1        0.0390
     30  C         25.1570  -20.3830  -13.4680 C.2     1  UNL1        0.1020
     31  O         24.1430  -20.7880  -14.3110 O.2     1  UNL1       -0.3090
     32  C         24.5070  -21.5030  -15.4330 C.2     1  UNL1        0.0760
     33  C         24.6950  -20.7560  -16.5990 C.2     1  UNL1        0.0370
     34  C         25.0160  -21.3960  -17.7960 C.2     1  UNL1        0.0030
     35  C         25.1360  -22.7860  -17.8310 C.2     1  UNL1        0.0000
     36  C         24.9320  -23.5350  -16.6720 C.2     1  UNL1        0.0030
     37  C         24.6130  -22.8950  -15.4720 C.2     1  UNL1        0.0370
@<TRIPOS>BOND
     1    35    34    2
     2    35    36    1
     3    34    33    1
     4    36    37    2
     5    33    32    2
     6    37    32    1
     7    32    31    1
     8    31    30    1
     9    29    30    1
    10    29    28    2
    11    30    25    2
    12    28    27    1
    13    24    23    1
    14    25    23    1
    15    25    26    1
    16    23    21   am
    17    27    26    2
    18     8     7    1
    19     1    20    1
    20     1     2    1
    21    21    20    1
    22    21    22    2
    23     7     2    2
    24     7     6    1
    25     2     3    1
    26     6     5    2
    27     3     4    2
    28     5     4    1
    29     5     9    1
    30    10     9    2
    31     9    12    1
    32     9    11    2
    33    12    13    1
    34    12    14    1
    35    19    14    2
    36    19    18    1
    37    14    15    1
    38    18    17    2
    39    15    16    2
    40    17    16    1
