@<TRIPOS>MOLECULE
28878_out_ligand_01.pdbqt
 34 36 0 0 0
SMALL
GASTEIGER

@<TRIPOS>ATOM
      1  C         21.2000  -23.0150  -10.1960 C.2     1  UNL1        0.0340
      2  C         20.1070  -22.2610  -10.6460 C.2     1  UNL1        0.0310
      3  C         18.8490  -22.4020  -10.0550 C.2     1  UNL1        0.0270
      4  C         18.6850  -23.2970   -8.9960 C.2     1  UNL1        0.0800
      5  C         19.7550  -24.0790   -8.5590 C.2     1  UNL1        0.0270
      6  C         21.0110  -23.9310   -9.1570 C.2     1  UNL1        0.0310
      7  N         22.4320  -22.8050  -10.8380 N.am    1  UNL1       -0.3250
      8  C         23.4120  -21.8790  -10.5230 C.2     1  UNL1        0.2510
      9  O         23.3770  -21.0580   -9.6100 O.2     1  UNL1       -0.2700
     10  H         22.6000  -23.3260  -11.6950 H       1  UNL1        0.1690
     11  C         24.6470  -21.9880  -11.4360 C.3     1  UNL1        0.2170
     12  C         25.8000  -22.5550  -10.6140 C.3     1  UNL1        0.0500
     13  O         24.4450  -22.8810  -12.5330 O.2     1  UNL1       -0.3360
     14  C         24.5990  -22.4000  -13.8090 C.2     1  UNL1        0.0750
     15  C         24.3650  -21.0800  -14.2020 C.2     1  UNL1        0.0380
     16  C         24.5210  -20.7010  -15.5390 C.2     1  UNL1        0.0090
     17  C         24.9200  -21.6330  -16.5020 C.2     1  UNL1       -0.0610
     18  C         25.0450  -21.2340  -17.9430 C.3     1  UNL1        0.0480
     19  C         25.1370  -22.9580  -16.1110 C.2     1  UNL1        0.0160
     20  C         24.9870  -23.3490  -14.7700 C.2     1  UNL1       -0.0280
     21  C         25.2240  -24.7850  -14.3860 C.3     1  UNL1        0.0510
     22  S         17.0850  -23.4890   -8.2460 S.O2    1  UNL1        0.2630
     23  O         17.1970  -24.5390   -7.2530 O.2     1  UNL1       -0.2000
     24  O         16.1130  -23.5830   -9.3130 O.2     1  UNL1       -0.2000
     25  N         16.8600  -22.0600   -7.3720 N.pl3   1  UNL1       -0.2800
     26  H         16.1820  -21.4440   -7.8120 H       1  UNL1        0.1790
     27  C         16.9260  -22.0720   -5.9460 C.2     1  UNL1        0.0540
     28  C         15.7780  -22.3870   -5.1900 C.2     1  UNL1       -0.0340
     29  C         14.4210  -22.6500   -5.7850 C.3     1  UNL1        0.0500
     30  C         15.8890  -22.4890   -3.7920 C.2     1  UNL1        0.0090
     31  C         17.1040  -22.2610   -3.1530 C.2     1  UNL1        0.0010
     32  C         18.2240  -21.9140   -3.9010 C.2     1  UNL1        0.0090
     33  C         18.1460  -21.7970   -5.2980 C.2     1  UNL1       -0.0340
     34  C         19.3930  -21.3750   -6.0300 C.3     1  UNL1        0.0500
@<TRIPOS>BOND
     1    18    17    1
     2    17    19    2
     3    17    16    1
     4    19    20    1
     5    16    15    2
     6    20    21    1
     7    20    14    2
     8    15    14    1
     9    14    13    1
    10    13    11    1
    11    10     7    1
    12    11    12    1
    13    11     8    1
    14     7     8   am
    15     7     1    1
    16     2     1    2
    17     2     3    1
    18     8     9    2
    19     1     6    1
    20     3     4    2
    21    24    22    2
    22     6     5    2
    23     4     5    1
    24     4    22    1
    25    22    25    1
    26    22    23    2
    27    26    25    1
    28    25    27    1
    29    34    33    1
    30    27    33    2
    31    27    28    1
    32    29    28    1
    33    33    32    1
    34    28    30    2
    35    32    31    2
    36    30    31    1
