@<TRIPOS>MOLECULE
28874_out_ligand_01.pdbqt
 41 45 0 0 0
SMALL
GASTEIGER

@<TRIPOS>ATOM
      1  N         23.7770  -23.2110  -10.8030 N.am    1  UNL1       -0.3260
      2  C         24.6460  -22.1320  -10.8430 C.2     1  UNL1        0.2360
      3  O         24.4370  -21.0090  -10.3900 O.2     1  UNL1       -0.2720
      4  H         24.1750  -24.0820  -11.1440 H       1  UNL1        0.1690
      5  C         22.4860  -23.2680  -10.2530 C.2     1  UNL1        0.0340
      6  C         22.1390  -24.0750   -9.1640 C.2     1  UNL1        0.0310
      7  C         20.8280  -24.0800   -8.6740 C.2     1  UNL1        0.0270
      8  C         19.8580  -23.2870   -9.2880 C.2     1  UNL1        0.0800
      9  C         20.1960  -22.4590  -10.3600 C.2     1  UNL1        0.0270
     10  C         21.5080  -22.4550  -10.8390 C.2     1  UNL1        0.0310
     11  S         18.1940  -23.2850   -8.6580 S.O2    1  UNL1        0.2630
     12  O         17.3030  -23.1090   -9.7870 O.2     1  UNL1       -0.2000
     13  O         18.0540  -24.4160   -7.7660 O.2     1  UNL1       -0.2000
     14  N         18.1140  -21.8500   -7.7760 N.pl3   1  UNL1       -0.2800
     15  H         18.7990  -21.1660   -8.0930 H       1  UNL1        0.1790
     16  C         17.7630  -21.8710   -6.3920 C.2     1  UNL1        0.0490
     17  C         18.6730  -21.4120   -5.4230 C.2     1  UNL1       -0.0350
     18  C         18.3070  -21.4780   -4.0700 C.2     1  UNL1        0.0090
     19  C         20.0230  -20.8600   -5.7890 C.3     1  UNL1        0.0500
     20  C         17.0590  -21.9740   -3.6890 C.2     1  UNL1        0.0070
     21  C         16.1420  -22.4020   -4.6540 C.2     1  UNL1       -0.0600
     22  C         14.8070  -22.9450   -4.2400 C.3     1  UNL1        0.0480
     23  C         16.5070  -22.3510   -6.0050 C.2     1  UNL1        0.0370
     24  C         25.9580  -22.4600  -11.5470 C.3     1  UNL1        0.2170
     25  N         25.9010  -22.0880  -12.9960 N.pl3   1  UNL1       -0.1630
     26  C         26.1930  -20.7130  -13.3990 C.2     1  UNL1        0.0370
     27  C         26.6980  -19.7760  -12.4770 C.2     1  UNL1        0.0280
     28  C         26.0850  -20.3580  -14.7730 C.2     1  UNL1        0.0010
     29  C         27.0110  -18.4760  -12.8760 C.2     1  UNL1        0.0440
     30  C         26.8360  -18.1100  -14.1970 C.2     1  UNL1        0.1170
     31  F         27.1210  -16.8580  -14.5810 F       1  UNL1       -0.2060
     32  C         26.3820  -19.0280  -15.1380 C.2     1  UNL1        0.0560
     33  C         25.6600  -21.3470  -15.7980 C.2     1  UNL1       -0.0010
     34  C         26.0170  -21.2310  -17.1550 C.2     1  UNL1        0.0140
     35  C         24.8890  -22.4670  -15.4530 C.2     1  UNL1        0.0860
     36  C         25.6030  -22.1730  -18.1070 C.2     1  UNL1        0.0010
     37  C         24.8310  -23.2670  -17.7260 C.2     1  UNL1        0.0020
     38  C         24.4790  -23.4250  -16.3900 C.2     1  UNL1        0.0260
     39  S         24.4930  -22.7110  -13.7570 S.O2    1  UNL1        0.2490
     40  O         24.4690  -24.1370  -13.5090 O.2     1  UNL1       -0.2050
     41  O         23.3710  -21.8620  -13.4240 O.2     1  UNL1       -0.2050
@<TRIPOS>BOND
     1    36    37    2
     2    36    34    1
     3    37    38    1
     4    34    33    2
     5    38    35    2
     6    33    35    1
     7    33    28    1
     8    35    39    1
     9    32    28    1
    10    32    30    2
    11    28    26    2
    12    31    30    1
    13    30    29    1
    14    39    40    2
    15    39    41    2
    16    39    25    1
    17    26    25    1
    18    26    27    1
    19    25    24    1
    20    29    27    2
    21    24     2    1
    22     4     1    1
    23     2     1   am
    24     2     3    2
    25    10     9    1
    26    10     5    2
    27     1     5    1
    28     9     8    2
    29     5     6    1
    30    12    11    2
    31     8     7    1
    32     8    11    1
    33     6     7    2
    34    11    14    1
    35    11    13    2
    36    15    14    1
    37    14    16    1
    38    16    23    2
    39    16    17    1
    40    23    21    1
    41    19    17    1
    42    17    18    2
    43    21    22    1
    44    21    20    2
    45    18    20    1
