@<TRIPOS>MOLECULE
2888_out_ligand_01.pdbqt
 37 40 0 0 0
SMALL
GASTEIGER

@<TRIPOS>ATOM
      1  N         23.8390  -22.6620   -9.4650 N.am    1  UNL1       -0.3260
      2  C         24.1080  -22.2010  -10.7470 C.2     1  UNL1        0.2400
      3  O         23.2840  -21.8090  -11.5650 O.2     1  UNL1       -0.2710
      4  H         24.6520  -22.8590   -8.8830 H       1  UNL1        0.1690
      5  C         22.5830  -22.8600   -8.8610 C.2     1  UNL1        0.0340
      6  C         21.9690  -21.9400   -8.0130 C.2     1  UNL1        0.0300
      7  C         20.6960  -22.1940   -7.4850 C.2     1  UNL1        0.0190
      8  C         20.0290  -23.3850   -7.7960 C.2     1  UNL1        0.0320
      9  C         20.6450  -24.3150   -8.6430 C.2     1  UNL1        0.0190
     10  C         21.9120  -24.0500   -9.1700 C.2     1  UNL1        0.0300
     11  C         18.6600  -23.6000   -7.2380 C.2     1  UNL1        0.2560
     12  N         18.0590  -22.4780   -6.7050 N.am    1  UNL1       -0.3210
     13  H         18.5060  -21.5750   -6.8270 H       1  UNL1        0.1690
     14  O         18.1780  -24.7230   -7.3030 O.2     1  UNL1       -0.2670
     15  C         16.8250  -22.3900   -6.0230 C.2     1  UNL1        0.0680
     16  C         15.5910  -22.3170   -6.6700 C.2     1  UNL1        0.0320
     17  C         14.4120  -22.2620   -5.9240 C.2     1  UNL1        0.0020
     18  C         14.4580  -22.2670   -4.5320 C.2     1  UNL1        0.0030
     19  C         15.6860  -22.3400   -3.8740 C.2     1  UNL1        0.0390
     20  C         16.8730  -22.4090   -4.6110 C.2     1  UNL1        0.0950
     21  O         18.1320  -22.4970   -4.0640 O.2     1  UNL1       -0.3540
     22  C         18.5120  -21.4800   -3.1530 C.3     1  UNL1        0.2100
     23  C         25.6030  -22.2080  -11.0730 C.3     1  UNL1        0.2400
     24  N         25.8600  -21.6400  -12.3920 N.am    1  UNL1       -0.2550
     25  C         26.1900  -20.2950  -12.4620 C.2     1  UNL1        0.2920
     26  O         26.2970  -19.5550  -11.4900 O.2     1  UNL1       -0.2640
     27  C         26.3970  -19.7770  -13.8240 C.2     1  UNL1        0.2000
     28  F         26.7070  -18.4690  -13.9540 F       1  UNL1       -0.1990
     29  C         26.2640  -20.5730  -14.8770 C.2     1  UNL1        0.1460
     30  N         25.9560  -21.9080  -14.7410 N.am    1  UNL1       -0.2790
     31  C         25.7600  -22.4920  -13.4920 C.2     1  UNL1        0.3340
     32  O         25.5350  -23.6980  -13.3520 O.2     1  UNL1       -0.2460
     33  C         25.8960  -22.7760  -15.9140 C.3     1  UNL1        0.2320
     34  C         26.6200  -22.2010  -17.1310 C.3     1  UNL1        0.0560
     35  C         25.5040  -21.8880  -18.0900 C.3     1  UNL1        0.0310
     36  C         24.4780  -22.9280  -17.7140 C.3     1  UNL1        0.1700
     37  O         24.5280  -22.9890  -16.2880 O.3     1  UNL1       -0.3660
@<TRIPOS>BOND
     1    35    36    1
     2    35    34    1
     3    36    37    1
     4    34    33    1
     5    37    33    1
     6    33    30    1
     7    29    30    1
     8    29    27    2
     9    30    31   am
    10    28    27    1
    11    27    25    1
    12    31    32    2
    13    31    24   am
    14    25    24   am
    15    25    26    2
    16    24    23    1
    17     3     2    2
    18    23     2    1
    19     2     1   am
    20     1     4    1
    21     1     5    1
    22    10     5    2
    23    10     9    1
    24     5     6    1
    25     9     8    2
    26     6     7    2
    27     8     7    1
    28     8    11    1
    29    14    11    2
    30    11    12   am
    31    13    12    1
    32    12    15    1
    33    16    15    2
    34    16    17    1
    35    15    20    1
    36    17    18    2
    37    20    21    1
    38    20    19    2
    39    18    19    1
    40    21    22    1
