@<TRIPOS>MOLECULE
28901_out_ligand_01.pdbqt
 36 39 0 0 0
SMALL
GASTEIGER

@<TRIPOS>ATOM
      1  C         20.9950  -22.4990  -10.7700 C.2     1  UNL1        0.0340
      2  C         20.7400  -23.5120   -9.8420 C.2     1  UNL1        0.0310
      3  C         19.4540  -23.6890   -9.3200 C.2     1  UNL1        0.0270
      4  C         18.4220  -22.8420   -9.7250 C.2     1  UNL1        0.0800
      5  C         18.6520  -21.8560  -10.6870 C.2     1  UNL1        0.0270
      6  C         19.9390  -21.6830  -11.1990 C.2     1  UNL1        0.0310
      7  N         22.2640  -22.2410  -11.3170 N.am    1  UNL1       -0.3250
      8  C         23.3630  -21.6730  -10.6960 C.2     1  UNL1        0.2510
      9  O         23.4280  -21.2970   -9.5280 O.2     1  UNL1       -0.2700
     10  H         22.3730  -22.3960  -12.3160 H       1  UNL1        0.1690
     11  C         24.5890  -21.5810  -11.6220 C.3     1  UNL1        0.2170
     12  C         25.7600  -21.0270  -10.8160 C.3     1  UNL1        0.0500
     13  O         25.0010  -22.8570  -12.1180 O.2     1  UNL1       -0.3370
     14  C         25.0060  -23.0340  -13.4760 C.2     1  UNL1        0.0700
     15  C         25.1230  -24.2520  -14.1400 C.2     1  UNL1        0.0370
     16  C         25.1190  -24.2890  -15.5380 C.2     1  UNL1        0.0100
     17  C         25.0090  -23.1110  -16.2940 C.2     1  UNL1       -0.0560
     18  C         24.9810  -23.1980  -17.7970 C.3     1  UNL1        0.0490
     19  C         24.9040  -21.8760  -15.6260 C.2     1  UNL1       -0.0530
     20  C         24.9110  -21.8560  -14.2200 C.2     1  UNL1        0.0440
     21  C         24.7590  -20.5820  -16.3770 C.3     1  UNL1        0.0490
     22  S         16.7990  -23.0360   -9.0230 S.O2    1  UNL1        0.2630
     23  O         16.0080  -23.8080   -9.9600 O.2     1  UNL1       -0.2000
     24  O         16.3530  -21.7390   -8.5600 O.2     1  UNL1       -0.2000
     25  N         17.0650  -24.0500   -7.6970 N.pl3   1  UNL1       -0.2800
     26  H         17.9020  -24.6220   -7.8010 H       1  UNL1        0.1790
     27  C         16.7310  -23.5780   -6.3880 C.2     1  UNL1        0.0530
     28  C         15.5510  -24.0530   -5.8100 C.2     1  UNL1        0.0310
     29  C         15.1450  -23.5900   -4.5640 C.2     1  UNL1        0.0030
     30  C         15.9160  -22.6440   -3.8920 C.2     1  UNL1        0.0120
     31  C         17.1010  -22.1440   -4.4560 C.2     1  UNL1       -0.0240
     32  C         17.8560  -21.1780   -3.7700 C.2     1  UNL1        0.0120
     33  C         17.5310  -22.6100   -5.7240 C.2     1  UNL1        0.0010
     34  C         19.0260  -20.6560   -4.3210 C.2     1  UNL1        0.0010
     35  C         19.4610  -21.1000   -5.5610 C.2     1  UNL1        0.0010
     36  C         18.7280  -22.0680   -6.2520 C.2     1  UNL1        0.0140
@<TRIPOS>BOND
     1    18    17    1
     2    21    19    1
     3    17    19    2
     4    17    16    1
     5    19    20    1
     6    16    15    2
     7    20    14    2
     8    15    14    1
     9    14    13    1
    10    10     7    1
    11    13    11    1
    12    11    12    1
    13    11     8    1
    14     7     1    1
    15     7     8   am
    16     6     1    2
    17     6     5    1
    18     1     2    1
    19     8     9    2
    20     5     4    2
    21    23    22    2
    22     2     3    2
    23     4     3    1
    24     4    22    1
    25    22    24    2
    26    22    25    1
    27    26    25    1
    28    25    27    1
    29    27    28    2
    30    27    33    1
    31    36    33    1
    32    36    35    2
    33    28    29    1
    34    33    31    2
    35    35    34    1
    36    29    30    2
    37    31    30    1
    38    31    32    1
    39    34    32    2
