@<TRIPOS>MOLECULE
28903_out_ligand_01.pdbqt
 35 37 0 0 0
SMALL
GASTEIGER

@<TRIPOS>ATOM
      1  C         18.9010  -20.7690  -11.9410 C.3     1  UNL1        0.0510
      2  C         19.5950  -21.7740  -11.0610 C.2     1  UNL1       -0.0270
      3  C         20.9910  -21.7290  -10.9290 C.2     1  UNL1        0.0340
      4  C         21.6460  -22.6600  -10.1190 C.2     1  UNL1        0.0800
      5  C         20.9270  -23.6580   -9.4620 C.2     1  UNL1        0.0280
      6  C         19.5340  -23.7050   -9.5890 C.2     1  UNL1        0.0390
      7  C         18.8630  -22.7680  -10.3830 C.2     1  UNL1        0.0750
      8  O         17.5090  -22.7430  -10.5960 O.2     1  UNL1       -0.3420
      9  C         16.6760  -22.0940   -9.6430 C.3     1  UNL1        0.2780
     10  C         16.3310  -22.9290   -8.4020 C.2     1  UNL1        0.2460
     11  O         15.9450  -24.0880   -8.5200 O.2     1  UNL1       -0.2710
     12  N         16.5290  -22.2310   -7.2210 N.am    1  UNL1       -0.3250
     13  H         16.8350  -21.2680   -7.3570 H       1  UNL1        0.1690
     14  C         16.3130  -22.6660   -5.8930 C.2     1  UNL1        0.0490
     15  C         15.1530  -23.3600   -5.5210 C.2     1  UNL1        0.0300
     16  C         14.9540  -23.7860   -4.2040 C.2     1  UNL1        0.0020
     17  C         15.9100  -23.5240   -3.2330 C.2     1  UNL1        0.0010
     18  C         17.0660  -22.8320   -3.5800 C.2     1  UNL1        0.0180
     19  C         17.2880  -22.4030   -4.9060 C.2     1  UNL1        0.0740
     20  C         18.5430  -21.6170   -5.1870 C.3     1  UNL1        0.4190
     21  F         19.4000  -22.2490   -6.0430 F       1  UNL1       -0.1660
     22  F         18.2830  -20.4070   -5.7570 F       1  UNL1       -0.1660
     23  F         19.2780  -21.3520   -4.0690 F       1  UNL1       -0.1660
     24  S         23.4190  -22.5990   -9.9680 S.O2    1  UNL1        0.2630
     25  O         23.8080  -23.6060   -9.0040 O.2     1  UNL1       -0.2000
     26  O         23.8100  -21.2150   -9.8070 O.2     1  UNL1       -0.2000
     27  N         23.9440  -23.1640  -11.4710 N.pl3   1  UNL1       -0.2810
     28  H         23.4240  -23.9880  -11.7700 H       1  UNL1        0.1790
     29  C         24.3550  -22.2340  -12.4630 C.2     1  UNL1        0.0420
     30  C         23.4370  -21.7060  -13.3730 C.2     1  UNL1        0.0330
     31  C         23.8660  -20.8190  -14.3630 C.2     1  UNL1        0.0440
     32  C         25.2110  -20.4720  -14.4330 C.2     1  UNL1        0.1160
     33  F         25.6240  -19.6240  -15.3840 F       1  UNL1       -0.2060
     34  C         26.1330  -20.9910  -13.5310 C.2     1  UNL1        0.0440
     35  C         25.7040  -21.8750  -12.5400 C.2     1  UNL1        0.0330
@<TRIPOS>BOND
     1    33    32    1
     2    32    31    2
     3    32    34    1
     4    31    30    1
     5    34    35    2
     6    30    29    2
     7    35    29    1
     8    29    27    1
     9     1     2    1
    10    28    27    1
    11    27    24    1
    12     2     3    2
    13     2     7    1
    14     3     4    1
    15     8     7    1
    16     8     9    1
    17     7     6    2
    18     4    24    1
    19     4     5    2
    20    24    26    2
    21    24    25    2
    22     9    10    1
    23     6     5    1
    24    11    10    2
    25    10    12   am
    26    13    12    1
    27    12    14    1
    28    21    20    1
    29    14    15    2
    30    14    19    1
    31    22    20    1
    32    15    16    1
    33    20    19    1
    34    20    23    1
    35    19    18    2
    36    16    17    2
    37    18    17    1
