@<TRIPOS>MOLECULE
28908_out_ligand_01.pdbqt
 35 37 0 0 0
SMALL
GASTEIGER

@<TRIPOS>ATOM
      1  C         18.8840  -20.8660  -11.7740 C.3     1  UNL1        0.0510
      2  C         19.6340  -21.9140  -10.9980 C.2     1  UNL1       -0.0270
      3  C         21.0210  -21.7880  -10.8260 C.2     1  UNL1        0.0340
      4  C         21.7270  -22.7610  -10.1170 C.2     1  UNL1        0.0800
      5  C         21.0630  -23.8500   -9.5530 C.2     1  UNL1        0.0280
      6  C         19.6820  -23.9790   -9.7200 C.2     1  UNL1        0.0390
      7  C         18.9600  -23.0170  -10.4370 C.2     1  UNL1        0.0750
      8  O         17.6030  -23.0410  -10.6400 O.2     1  UNL1       -0.3420
      9  C         16.7680  -22.3760   -9.7020 C.3     1  UNL1        0.2780
     10  C         16.8840  -22.8550   -8.2470 C.2     1  UNL1        0.2460
     11  O         16.7730  -24.0470   -7.9700 O.2     1  UNL1       -0.2710
     12  N         17.0550  -21.8130   -7.3500 N.am    1  UNL1       -0.3240
     13  H         16.7520  -20.9150   -7.7100 H       1  UNL1        0.1690
     14  C         17.1240  -21.9470   -5.9450 C.2     1  UNL1        0.0470
     15  C         18.3980  -21.7790   -5.3460 C.2     1  UNL1       -0.0350
     16  C         19.6320  -21.4600   -6.1510 C.3     1  UNL1        0.0500
     17  C         18.5300  -21.8790   -3.9520 C.2     1  UNL1        0.0090
     18  C         17.4260  -22.1520   -3.1560 C.2     1  UNL1        0.0010
     19  C         16.1840  -22.3630   -3.7470 C.2     1  UNL1        0.0100
     20  C         16.0080  -22.2930   -5.1460 C.2     1  UNL1       -0.0270
     21  C         14.6600  -22.7310   -5.7150 C.3     1  UNL1        0.0130
     22  C         13.5930  -21.6380   -5.5840 C.3     1  UNL1        0.0150
     23  C         14.1760  -24.0340   -5.0620 C.3     1  UNL1        0.0150
     24  S         23.4780  -22.5880   -9.8840 S.O2    1  UNL1        0.2630
     25  O         23.8830  -23.5660   -8.8950 O.2     1  UNL1       -0.2000
     26  O         23.7940  -21.1870   -9.7170 O.2     1  UNL1       -0.2000
     27  N         24.1020  -23.1380  -11.3580 N.pl3   1  UNL1       -0.2810
     28  H         24.7480  -23.9110  -11.2030 H       1  UNL1        0.1790
     29  C         24.4670  -22.1650  -12.3270 C.2     1  UNL1        0.0420
     30  C         25.7360  -21.5830  -12.2870 C.2     1  UNL1        0.0330
     31  C         26.0750  -20.5970  -13.2150 C.2     1  UNL1        0.0440
     32  C         25.1420  -20.2030  -14.1680 C.2     1  UNL1        0.1160
     33  F         25.4670  -19.2570  -15.0580 F       1  UNL1       -0.2060
     34  C         23.8740  -20.7740  -14.2090 C.2     1  UNL1        0.0440
     35  C         23.5330  -21.7600  -13.2820 C.2     1  UNL1        0.0330
@<TRIPOS>BOND
     1    33    32    1
     2    34    32    2
     3    34    35    1
     4    32    31    1
     5    35    29    2
     6    31    30    2
     7    29    30    1
     8    29    27    1
     9     1     2    1
    10    27    28    1
    11    27    24    1
    12     2     3    2
    13     2     7    1
    14     3     4    1
    15     8     7    1
    16     8     9    1
    17     7     6    2
    18     4    24    1
    19     4     5    2
    20    24    26    2
    21    24    25    2
    22     6     5    1
    23     9    10    1
    24    10    11    2
    25    10    12   am
    26    13    12    1
    27    12    14    1
    28    16    15    1
    29    14    15    2
    30    14    20    1
    31    21    22    1
    32    21    20    1
    33    21    23    1
    34    15    17    1
    35    20    19    2
    36    17    18    2
    37    19    18    1
