@<TRIPOS>MOLECULE
28900_out_ligand_01.pdbqt
 32 34 0 0 0
SMALL
GASTEIGER

@<TRIPOS>ATOM
      1  C         18.8000  -20.5060  -11.5670 C.3     1  UNL1        0.0510
      2  C         19.4830  -21.5870  -10.7730 C.2     1  UNL1       -0.0270
      3  C         20.8840  -21.6510  -10.7560 C.2     1  UNL1        0.0340
      4  C         21.5280  -22.6440  -10.0150 C.2     1  UNL1        0.0800
      5  C         20.7890  -23.6010   -9.3190 C.2     1  UNL1        0.0280
      6  C         19.3930  -23.5440   -9.3370 C.2     1  UNL1        0.0390
      7  C         18.7340  -22.5380  -10.0530 C.2     1  UNL1        0.0750
      8  O         17.3730  -22.4070  -10.1540 O.2     1  UNL1       -0.3420
      9  C         16.5550  -23.5360   -9.8670 C.3     1  UNL1        0.2780
     10  C         16.2760  -23.7770   -8.3770 C.2     1  UNL1        0.2460
     11  O         15.9090  -24.8810   -7.9850 O.2     1  UNL1       -0.2710
     12  N         16.5030  -22.6480   -7.6100 N.am    1  UNL1       -0.3250
     13  H         16.7480  -21.8250   -8.1470 H       1  UNL1        0.1690
     14  C         16.3610  -22.4820   -6.2120 C.2     1  UNL1        0.0410
     15  C         15.1290  -22.6520   -5.5730 C.2     1  UNL1        0.0300
     16  C         15.0110  -22.4890   -4.1950 C.2     1  UNL1        0.0030
     17  C         16.1260  -22.1540   -3.4360 C.2     1  UNL1        0.0070
     18  C         17.3780  -21.9760   -4.0410 C.2     1  UNL1       -0.0540
     19  C         18.5440  -21.6110   -3.1610 C.3     1  UNL1        0.0490
     20  C         17.5050  -22.1390   -5.4430 C.2     1  UNL1       -0.0290
     21  C         18.8430  -21.9400   -6.1190 C.3     1  UNL1        0.0510
     22  S         23.3060  -22.7260  -10.0030 S.O2    1  UNL1        0.2630
     23  O         23.8010  -21.3670   -9.9150 O.2     1  UNL1       -0.2000
     24  O         23.7040  -23.7300   -9.0400 O.2     1  UNL1       -0.2000
     25  N         23.6740  -23.2550  -11.5630 N.pl3   1  UNL1       -0.2810
     26  H         24.1090  -24.1760  -11.5620 H       1  UNL1        0.1790
     27  C         24.1100  -22.3150  -12.5360 C.2     1  UNL1        0.0420
     28  C         23.1600  -21.6790  -13.3380 C.2     1  UNL1        0.0300
     29  C         23.5700  -20.7810  -14.3230 C.2     1  UNL1        0.0020
     30  C         24.9280  -20.5170  -14.5060 C.2     1  UNL1        0.0000
     31  C         25.8760  -21.1480  -13.7020 C.2     1  UNL1        0.0020
     32  C         25.4670  -22.0470  -12.7160 C.2     1  UNL1        0.0300
@<TRIPOS>BOND
     1    30    29    2
     2    30    31    1
     3    29    28    1
     4    31    32    2
     5    28    27    2
     6    32    27    1
     7    27    25    1
     8     1     2    1
     9    25    26    1
    10    25    22    1
    11     2     3    2
    12     2     7    1
    13     3     4    1
    14     8     7    1
    15     8     9    1
    16     7     6    2
    17     4    22    1
    18     4     5    2
    19    22    23    2
    20    22    24    2
    21     9    10    1
    22     6     5    1
    23    10    11    2
    24    10    12   am
    25    13    12    1
    26    12    14    1
    27    14    15    2
    28    14    20    1
    29    21    20    1
    30    15    16    1
    31    20    18    2
    32    16    17    2
    33    18    17    1
    34    18    19    1
