@<TRIPOS>MOLECULE
28905_out_ligand_01.pdbqt
 34 36 0 0 0
SMALL
GASTEIGER

@<TRIPOS>ATOM
      1  C         18.8250  -22.8210  -10.4890 C.2     1  UNL1        0.0750
      2  C         19.4730  -23.7790   -9.7020 C.2     1  UNL1        0.0390
      3  C         20.8580  -23.7240   -9.5190 C.2     1  UNL1        0.0280
      4  C         21.5930  -22.7000  -10.1180 C.2     1  UNL1        0.0800
      5  C         20.9610  -21.7470  -10.9180 C.2     1  UNL1        0.0340
      6  C         19.5710  -21.7940  -11.0990 C.2     1  UNL1       -0.0270
      7  C         18.9010  -20.7650  -11.9690 C.3     1  UNL1        0.0510
      8  O         17.4800  -22.8040  -10.7600 O.2     1  UNL1       -0.3420
      9  C         16.6040  -22.1410   -9.8560 C.3     1  UNL1        0.2780
     10  C         16.2860  -22.8890   -8.5520 C.2     1  UNL1        0.2460
     11  N         16.5720  -22.1450   -7.4290 N.am    1  UNL1       -0.3230
     12  H         16.8860  -21.1880   -7.5800 H       1  UNL1        0.1690
     13  O         15.8390  -24.0330   -8.5810 O.2     1  UNL1       -0.2710
     14  C         16.3660  -22.4690   -6.0720 C.2     1  UNL1        0.0680
     15  C         15.1240  -22.4000   -5.4430 C.2     1  UNL1        0.0320
     16  C         15.0050  -22.7290   -4.0920 C.2     1  UNL1        0.0020
     17  C         16.1250  -23.1300   -3.3680 C.2     1  UNL1        0.0030
     18  C         17.3740  -23.2030   -3.9890 C.2     1  UNL1        0.0390
     19  C         17.5050  -22.8690   -5.3380 C.2     1  UNL1        0.0950
     20  O         18.6790  -22.9000   -6.0540 O.2     1  UNL1       -0.3490
     21  C         19.3080  -21.6680   -6.4050 C.3     1  UNL1        0.1710
     22  C         19.2570  -20.6740   -5.2570 C.3     1  UNL1        0.0340
     23  S         23.3590  -22.6450   -9.9050 S.O2    1  UNL1        0.2630
     24  O         23.7210  -23.6270   -8.9050 O.2     1  UNL1       -0.2000
     25  O         23.7370  -21.2550   -9.7610 O.2     1  UNL1       -0.2000
     26  N         23.9380  -23.1330  -11.4150 N.pl3   1  UNL1       -0.2810
     27  H         24.4630  -24.0030  -11.3580 H       1  UNL1        0.1790
     28  C         24.3670  -22.1510  -12.3500 C.2     1  UNL1        0.0420
     29  C         23.4990  -21.6770  -13.3360 C.2     1  UNL1        0.0330
     30  C         23.9250  -20.6850  -14.2200 C.2     1  UNL1        0.0440
     31  C         25.2150  -20.1780  -14.1100 C.2     1  UNL1        0.1160
     32  F         25.6220  -19.2250  -14.9560 F       1  UNL1       -0.2060
     33  C         26.0870  -20.6450  -13.1330 C.2     1  UNL1        0.0440
     34  C         25.6620  -21.6380  -12.2480 C.2     1  UNL1        0.0330
@<TRIPOS>BOND
     1    32    31    1
     2    30    31    2
     3    30    29    1
     4    31    33    1
     5    29    28    2
     6    33    34    2
     7    28    34    1
     8    28    26    1
     9     7     6    1
    10    26    27    1
    11    26    23    1
    12     6     5    1
    13     6     1    2
    14     5     4    2
    15     8     1    1
    16     8     9    1
    17     1     2    1
    18     4    23    1
    19     4     3    1
    20    23    25    2
    21    23    24    2
    22     9    10    1
    23     2     3    2
    24    13    10    2
    25    10    11   am
    26    12    11    1
    27    11    14    1
    28    21    20    1
    29    21    22    1
    30    14    15    2
    31    14    19    1
    32    20    19    1
    33    15    16    1
    34    19    18    2
    35    16    17    2
    36    18    17    1
