@<TRIPOS>MOLECULE
28919_out_ligand_01.pdbqt
 34 36 0 0 0
SMALL
GASTEIGER

@<TRIPOS>ATOM
      1  C         18.8520  -22.8030  -10.3400 C.2     1  UNL1        0.0750
      2  C         19.4790  -23.7200   -9.4900 C.2     1  UNL1        0.0390
      3  C         20.8660  -23.6950   -9.3200 C.2     1  UNL1        0.0280
      4  C         21.6270  -22.7440   -9.9990 C.2     1  UNL1        0.0800
      5  C         21.0180  -21.8400  -10.8730 C.2     1  UNL1        0.0340
      6  C         19.6270  -21.8610  -11.0460 C.2     1  UNL1       -0.0270
      7  C         18.9810  -20.8710  -11.9770 C.3     1  UNL1        0.0510
      8  O         17.5040  -22.7560  -10.5910 O.2     1  UNL1       -0.3420
      9  C         16.6590  -22.1080   -9.6470 C.3     1  UNL1        0.2780
     10  C         16.3290  -22.9320   -8.3950 C.2     1  UNL1        0.2460
     11  N         16.6260  -22.2550   -7.2250 N.am    1  UNL1       -0.3250
     12  H         16.9570  -21.3050   -7.3640 H       1  UNL1        0.1690
     13  O         15.8710  -24.0650   -8.5000 O.2     1  UNL1       -0.2710
     14  C         16.4620  -22.6820   -5.8900 C.2     1  UNL1        0.0410
     15  C         15.2410  -22.4070   -5.2360 C.2     1  UNL1       -0.0350
     16  C         15.0600  -22.8320   -3.9090 C.2     1  UNL1        0.0090
     17  C         14.1090  -21.6820   -5.9140 C.3     1  UNL1        0.0500
     18  C         16.0700  -23.5140   -3.2310 C.2     1  UNL1        0.0070
     19  C         17.2840  -23.7750   -3.8630 C.2     1  UNL1       -0.0600
     20  C         18.3670  -24.5360   -3.1540 C.3     1  UNL1        0.0480
     21  C         17.4660  -23.3670   -5.1930 C.2     1  UNL1        0.0370
     22  S         23.3940  -22.7100   -9.7800 S.O2    1  UNL1        0.2630
     23  O         23.7410  -23.6970   -8.7800 O.2     1  UNL1       -0.2000
     24  O         23.7840  -21.3230   -9.6300 O.2     1  UNL1       -0.2000
     25  N         23.9750  -23.2010  -11.2890 N.pl3   1  UNL1       -0.2810
     26  H         24.2700  -24.1760  -11.2840 H       1  UNL1        0.1790
     27  C         24.7340  -22.2830  -12.0660 C.2     1  UNL1        0.0430
     28  C         25.9110  -21.7370  -11.5690 C.2     1  UNL1        0.0300
     29  C         26.6730  -20.8820  -12.3670 C.2     1  UNL1        0.0090
     30  C         26.2690  -20.5710  -13.6750 C.2     1  UNL1       -0.0560
     31  C         27.1200  -19.6510  -14.5080 C.3     1  UNL1        0.0490
     32  C         25.0730  -21.1230  -14.1770 C.2     1  UNL1       -0.0540
     33  C         24.6020  -20.8300  -15.5750 C.3     1  UNL1        0.0490
     34  C         24.3150  -21.9790  -13.3620 C.2     1  UNL1        0.0370
@<TRIPOS>BOND
     1    33    32    1
     2    31    30    1
     3    32    30    2
     4    32    34    1
     5    30    29    1
     6    34    27    2
     7    29    28    2
     8    27    28    1
     9    27    25    1
    10     7     6    1
    11    25    26    1
    12    25    22    1
    13     6     5    1
    14     6     1    2
    15     5     4    2
    16     8     1    1
    17     8     9    1
    18     1     2    1
    19     4    22    1
    20     4     3    1
    21    22    24    2
    22    22    23    2
    23     9    10    1
    24     2     3    2
    25    13    10    2
    26    10    11   am
    27    12    11    1
    28    11    14    1
    29    17    15    1
    30    14    15    2
    31    14    21    1
    32    15    16    1
    33    21    19    2
    34    16    18    2
    35    19    18    1
    36    19    20    1
