@<TRIPOS>MOLECULE
28916_out_ligand_01.pdbqt
 35 37 0 0 0
SMALL
GASTEIGER

@<TRIPOS>ATOM
      1  C         21.5030  -22.6520  -10.0870 C.2     1  UNL1        0.0800
      2  C         20.7740  -23.5320   -9.2860 C.2     1  UNL1        0.0280
      3  C         19.3780  -23.4620   -9.2750 C.2     1  UNL1        0.0390
      4  C         18.7090  -22.5190  -10.0650 C.2     1  UNL1        0.0750
      5  C         19.4470  -21.6430  -10.8840 C.2     1  UNL1       -0.0270
      6  C         18.7560  -20.6270  -11.7510 C.3     1  UNL1        0.0510
      7  C         20.8480  -21.7250  -10.8990 C.2     1  UNL1        0.0340
      8  S         23.2800  -22.7460  -10.1090 S.O2    1  UNL1        0.2630
      9  O         23.7880  -21.3910  -10.0320 O.2     1  UNL1       -0.2000
     10  O         23.6880  -23.7530   -9.1550 O.2     1  UNL1       -0.2000
     11  N         23.6160  -23.2790  -11.6770 N.pl3   1  UNL1       -0.2810
     12  H         23.9800  -24.2310  -11.6880 H       1  UNL1        0.1790
     13  C         24.1090  -22.3570  -12.6370 C.2     1  UNL1        0.0420
     14  C         23.2010  -21.6290  -13.4060 C.2     1  UNL1        0.0330
     15  C         23.6610  -20.7550  -14.3980 C.2     1  UNL1        0.0390
     16  C         25.0290  -20.6070  -14.6240 C.2     1  UNL1        0.0680
     17  C         25.9310  -21.3300  -13.8390 C.2     1  UNL1        0.0390
     18  C         25.4760  -22.2030  -12.8490 C.2     1  UNL1        0.0330
     19  O         25.6160  -19.8000  -15.5560 O.2     1  UNL1       -0.3520
     20  C         26.1330  -20.3810  -16.7530 C.3     1  UNL1        0.1710
     21  C         25.0460  -20.5000  -17.8060 C.3     1  UNL1        0.0340
     22  O         17.3470  -22.3790  -10.1430 O.2     1  UNL1       -0.3420
     23  C         16.5250  -23.5080   -9.8670 C.3     1  UNL1        0.2780
     24  C         16.2480  -23.7660   -8.3790 C.2     1  UNL1        0.2460
     25  O         15.8620  -24.8680   -8.0030 O.2     1  UNL1       -0.2710
     26  N         16.5080  -22.6550   -7.5960 N.am    1  UNL1       -0.3250
     27  H         16.7630  -21.8280   -8.1220 H       1  UNL1        0.1690
     28  C         16.3740  -22.5060   -6.1970 C.2     1  UNL1        0.0410
     29  C         15.1580  -22.7380   -5.5460 C.2     1  UNL1        0.0300
     30  C         15.0450  -22.5810   -4.1660 C.2     1  UNL1        0.0030
     31  C         16.1470  -22.1880   -3.4170 C.2     1  UNL1        0.0070
     32  C         17.3830  -21.9480   -4.0340 C.2     1  UNL1       -0.0540
     33  C         18.5380  -21.5200   -3.1670 C.3     1  UNL1        0.0490
     34  C         17.5090  -22.1120   -5.4370 C.2     1  UNL1       -0.0290
     35  C         18.8290  -21.8500   -6.1250 C.3     1  UNL1        0.0510
@<TRIPOS>BOND
     1    21    20    1
     2    20    19    1
     3    19    16    1
     4    16    15    2
     5    16    17    1
     6    15    14    1
     7    17    18    2
     8    14    13    2
     9    18    13    1
    10    13    11    1
    11     6     5    1
    12    12    11    1
    13    11     8    1
    14     7     5    1
    15     7     1    2
    16     5     4    2
    17    22     4    1
    18    22    23    1
    19     8     1    1
    20     8     9    2
    21     8    10    2
    22     1     2    1
    23     4     3    1
    24    23    24    1
    25     2     3    2
    26    24    25    2
    27    24    26   am
    28    27    26    1
    29    26    28    1
    30    28    29    2
    31    28    34    1
    32    35    34    1
    33    29    30    1
    34    34    32    2
    35    30    31    2
    36    32    31    1
    37    32    33    1
