@<TRIPOS>MOLECULE
28929_out_ligand_01.pdbqt
 36 38 0 0 0
SMALL
GASTEIGER

@<TRIPOS>ATOM
      1  C         21.5620  -22.7740  -10.0050 C.2     1  UNL1        0.0800
      2  C         20.7690  -23.7080   -9.3390 C.2     1  UNL1        0.0280
      3  C         19.3880  -23.7190   -9.5500 C.2     1  UNL1        0.0390
      4  C         18.7950  -22.7920  -10.4150 C.2     1  UNL1        0.0750
      5  C         19.5970  -21.8360  -11.0700 C.2     1  UNL1       -0.0270
      6  C         18.9860  -20.8230  -12.0000 C.3     1  UNL1        0.0510
      7  C         20.9830  -21.8290  -10.8550 C.2     1  UNL1        0.0340
      8  O         17.4520  -22.7030  -10.6750 O.2     1  UNL1       -0.3420
      9  C         16.6080  -22.0830   -9.7120 C.3     1  UNL1        0.2780
     10  C         16.3040  -22.9350   -8.4720 C.2     1  UNL1        0.2460
     11  O         15.9560  -24.1050   -8.5930 O.2     1  UNL1       -0.2710
     12  N         16.4580  -22.2280   -7.2900 N.am    1  UNL1       -0.3250
     13  H         16.8020  -21.2760   -7.4200 H       1  UNL1        0.1690
     14  C         16.2590  -22.6760   -5.9640 C.2     1  UNL1        0.0490
     15  C         15.1090  -23.3830   -5.5880 C.2     1  UNL1        0.0300
     16  C         14.9200  -23.8130   -4.2720 C.2     1  UNL1        0.0020
     17  C         15.8800  -23.5480   -3.3060 C.2     1  UNL1        0.0010
     18  C         17.0310  -22.8500   -3.6580 C.2     1  UNL1        0.0180
     19  C         17.2340  -22.4000   -4.9810 C.2     1  UNL1        0.0740
     20  C         18.5320  -21.6970   -5.2910 C.3     1  UNL1        0.4190
     21  F         19.3680  -22.4260   -6.0880 F       1  UNL1       -0.1660
     22  F         18.3600  -20.5090   -5.9390 F       1  UNL1       -0.1660
     23  F         19.2480  -21.4120   -4.1700 F       1  UNL1       -0.1660
     24  S         23.3210  -22.7610   -9.7330 S.O2    1  UNL1        0.2630
     25  O         23.6180  -23.8110   -8.7800 O.2     1  UNL1       -0.2000
     26  O         23.7330  -21.3940   -9.4950 O.2     1  UNL1       -0.2000
     27  N         23.9380  -23.2900  -11.2160 N.pl3   1  UNL1       -0.2810
     28  H         23.2750  -23.8810  -11.7120 H       1  UNL1        0.1790
     29  C         24.7400  -22.4030  -11.9860 C.2     1  UNL1        0.0430
     30  C         25.9420  -21.9110  -11.4860 C.2     1  UNL1        0.0300
     31  C         26.6890  -21.0060  -12.2410 C.2     1  UNL1        0.0090
     32  C         26.2410  -20.5790  -13.5010 C.2     1  UNL1       -0.0560
     33  C         27.0800  -19.6100  -14.2890 C.3     1  UNL1        0.0490
     34  C         25.0270  -21.0840  -14.0100 C.2     1  UNL1       -0.0540
     35  C         24.2850  -21.9940  -13.2400 C.2     1  UNL1        0.0370
     36  C         24.5030  -20.6600  -15.3550 C.3     1  UNL1        0.0490
@<TRIPOS>BOND
     1    36    34    1
     2    33    32    1
     3    34    32    2
     4    34    35    1
     5    32    31    1
     6    35    29    2
     7    31    30    2
     8     6     5    1
     9    29    30    1
    10    29    27    1
    11    28    27    1
    12    27    24    1
    13     5     7    1
    14     5     4    2
    15     7     1    2
    16     8     4    1
    17     8     9    1
    18     4     3    1
    19     1    24    1
    20     1     2    1
    21    24    26    2
    22    24    25    2
    23     9    10    1
    24     3     2    2
    25    11    10    2
    26    10    12   am
    27    13    12    1
    28    12    14    1
    29    21    20    1
    30    14    15    2
    31    14    19    1
    32    22    20    1
    33    15    16    1
    34    20    19    1
    35    20    23    1
    36    19    18    2
    37    16    17    2
    38    18    17    1
