@<TRIPOS>MOLECULE
28930_out_ligand_01.pdbqt
 35 37 0 0 0
SMALL
GASTEIGER

@<TRIPOS>ATOM
      1  C         18.8030  -22.8090  -10.3440 C.2     1  UNL1        0.0750
      2  C         19.4800  -23.7910   -9.6140 C.2     1  UNL1        0.0390
      3  C         20.8700  -23.7420   -9.4870 C.2     1  UNL1        0.0280
      4  C         21.5840  -22.7130  -10.1060 C.2     1  UNL1        0.0800
      5  C         20.9160  -21.7310  -10.8430 C.2     1  UNL1        0.0340
      6  C         19.5210  -21.7850  -10.9860 C.2     1  UNL1       -0.0270
      7  C         18.8130  -20.7460  -11.8100 C.3     1  UNL1        0.0510
      8  O         17.4430  -22.8010  -10.5190 O.2     1  UNL1       -0.3420
      9  C         16.6890  -22.1190   -9.5180 C.3     1  UNL1        0.2780
     10  C         16.2510  -23.0210   -8.3600 C.2     1  UNL1        0.2460
     11  N         16.4290  -22.4200   -7.1310 N.am    1  UNL1       -0.3230
     12  H         16.7760  -21.4620   -7.1460 H       1  UNL1        0.1690
     13  O         15.8120  -24.1480   -8.5690 O.2     1  UNL1       -0.2710
     14  C         16.1550  -22.9360   -5.8510 C.2     1  UNL1        0.0680
     15  C         14.9680  -23.5860   -5.5070 C.2     1  UNL1        0.0320
     16  C         14.7940  -24.0980   -4.2150 C.2     1  UNL1        0.0020
     17  C         15.8050  -23.9690   -3.2600 C.2     1  UNL1        0.0030
     18  C         16.9910  -23.3180   -3.5900 C.2     1  UNL1        0.0390
     19  C         17.1510  -22.7910   -4.8730 C.2     1  UNL1        0.0950
     20  O         18.3400  -22.1770   -5.1940 O.2     1  UNL1       -0.3490
     21  C         18.6220  -21.1200   -4.2650 C.3     1  UNL1        0.1710
     22  C         19.3480  -20.0180   -5.0150 C.3     1  UNL1        0.0340
     23  S         23.3470  -22.6010   -9.8820 S.O2    1  UNL1        0.2630
     24  O         23.7400  -23.6800   -8.9970 O.2     1  UNL1       -0.2000
     25  O         23.6670  -21.2260   -9.5660 O.2     1  UNL1       -0.2000
     26  N         23.9620  -23.0040  -11.4000 N.pl3   1  UNL1       -0.2810
     27  H         23.4270  -23.7430  -11.8520 H       1  UNL1        0.1790
     28  C         24.5470  -21.9990  -12.2190 C.2     1  UNL1        0.0430
     29  C         24.1060  -21.8550  -13.5310 C.2     1  UNL1        0.0300
     30  C         24.6360  -20.8430  -14.3350 C.2     1  UNL1        0.0090
     31  C         25.6070  -19.9610  -13.8350 C.2     1  UNL1       -0.0560
     32  C         26.1490  -18.8790  -14.7310 C.3     1  UNL1        0.0490
     33  C         26.0770  -20.1300  -12.5180 C.2     1  UNL1       -0.0540
     34  C         27.1210  -19.2200  -11.9290 C.3     1  UNL1        0.0490
     35  C         25.5370  -21.1530  -11.7210 C.2     1  UNL1        0.0370
@<TRIPOS>BOND
     1    32    31    1
     2    30    31    2
     3    30    29    1
     4    31    33    1
     5    29    28    2
     6    33    34    1
     7    33    35    2
     8    28    35    1
     9    28    26    1
    10    27    26    1
    11     7     6    1
    12    26    23    1
    13     6     5    1
    14     6     1    2
    15     5     4    2
    16     8     1    1
    17     8     9    1
    18     1     2    1
    19     4    23    1
    20     4     3    1
    21    23    25    2
    22    23    24    2
    23     2     3    2
    24     9    10    1
    25    13    10    2
    26    10    11   am
    27    12    11    1
    28    11    14    1
    29    14    15    2
    30    14    19    1
    31    15    16    1
    32    20    19    1
    33    20    21    1
    34    22    21    1
    35    19    18    2
    36    16    17    2
    37    18    17    1
