@<TRIPOS>MOLECULE
2893_out_ligand_01.pdbqt
 30 33 0 0 0
SMALL
GASTEIGER

@<TRIPOS>ATOM
      1  N         21.4410  -22.1010  -10.1230 N.am    1  UNL1       -0.3230
      2  C         21.1250  -23.1460   -9.2630 C.2     1  UNL1        0.2630
      3  O         21.4990  -24.3040   -9.4290 O.2     1  UNL1       -0.2670
      4  H         20.9660  -21.2250   -9.9610 H       1  UNL1        0.1690
      5  C         20.2710  -22.7470   -8.1420 C.2     1  UNL1        0.0740
      6  C         20.4180  -21.7280   -7.2170 C.2     1  UNL1        0.0340
      7  C         19.3440  -21.6760   -6.2680 C.2     1  UNL1       -0.0290
      8  C         18.4060  -22.6660   -6.5030 C.2     1  UNL1        0.0240
      9  C         19.2110  -20.6760   -5.1640 C.3     1  UNL1        0.1190
     10  S         18.8410  -23.6420   -7.8330 S.3     1  UNL1       -0.0830
     11  C         17.2040  -22.9050   -5.6860 C.2     1  UNL1        0.0010
     12  C         16.1100  -23.6490   -6.1550 C.2     1  UNL1        0.0560
     13  C         17.1420  -22.3590   -4.3800 C.2     1  UNL1        0.0120
     14  C         15.0000  -23.8540   -5.3400 C.2     1  UNL1        0.1170
     15  F         13.9660  -24.5660   -5.8050 F       1  UNL1       -0.2060
     16  C         14.9460  -23.3360   -4.0540 C.2     1  UNL1        0.0430
     17  C         16.0180  -22.5890   -3.5700 C.2     1  UNL1        0.0220
     18  S         18.4840  -21.4020   -3.6600 S.3     1  UNL1       -0.1240
     19  C         22.2810  -22.1350  -11.2560 C.2     1  UNL1        0.0350
     20  C         23.4950  -22.8250  -11.3180 C.2     1  UNL1        0.0370
     21  C         24.2980  -22.8060  -12.4780 C.2     1  UNL1       -0.0440
     22  C         25.6150  -23.5310  -12.4460 C.3     1  UNL1        0.0490
     23  C         23.8370  -22.1060  -13.6050 C.2     1  UNL1        0.0370
     24  C         22.6350  -21.3880  -13.5380 C.2     1  UNL1        0.0200
     25  C         21.8660  -21.4020  -12.3740 C.2     1  UNL1        0.0300
     26  C         24.5610  -22.0570  -14.9000 C.2     1  UNL1        0.2490
     27  N         23.9490  -22.6430  -15.9700 N.am    1  UNL1       -0.3660
     28  H         24.3730  -22.4890  -16.8760 H       1  UNL1        0.1590
     29  H         22.9750  -22.9150  -15.9420 H       1  UNL1        0.1590
     30  O         25.6210  -21.4570  -15.0180 O.2     1  UNL1       -0.2680
@<TRIPOS>BOND
     1    28    27    1
     2    27    29    1
     3    27    26   am
     4    30    26    2
     5    26    23    1
     6    23    24    2
     7    23    21    1
     8    24    25    1
     9    21    22    1
    10    21    20    2
    11    25    19    2
    12    20    19    1
    13    19     1    1
    14     1     4    1
    15     1     2   am
    16     3     2    2
    17     2     5    1
    18     5    10    1
    19     5     6    2
    20    10     8    1
    21     6     7    1
    22     8     7    2
    23     8    11    1
    24     7     9    1
    25    12    11    2
    26    12    14    1
    27    15    14    1
    28    11    13    1
    29    14    16    2
    30     9    18    1
    31    13    18    1
    32    13    17    2
    33    16    17    1
