@<TRIPOS>MOLECULE
28964_out_ligand_01.pdbqt
 42 46 0 0 0
SMALL
GASTEIGER

@<TRIPOS>ATOM
      1  N         19.9890  -22.1140  -12.0440 N.am    1  UNL1       -0.3260
      2  C         20.7330  -20.9560  -12.1350 C.2     1  UNL1        0.2410
      3  O         20.6460  -19.9980  -11.3660 O.2     1  UNL1       -0.2710
      4  H         20.1320  -22.8260  -12.7600 H       1  UNL1        0.1690
      5  C         19.0530  -22.4690  -11.0490 C.2     1  UNL1        0.0340
      6  C         19.5030  -23.3380  -10.0420 C.2     1  UNL1        0.0310
      7  C         18.6600  -23.7200   -8.9950 C.2     1  UNL1        0.0270
      8  C         17.3510  -23.2350   -8.9560 C.2     1  UNL1        0.0750
      9  C         16.8910  -22.3640   -9.9460 C.2     1  UNL1        0.0270
     10  C         17.7410  -21.9910  -10.9940 C.2     1  UNL1        0.0310
     11  S         16.2960  -23.6550   -7.5850 S.O2    1  UNL1        0.2450
     12  O         15.6580  -22.4310   -7.1440 O.2     1  UNL1       -0.2060
     13  O         15.5050  -24.8060   -7.9680 O.2     1  UNL1       -0.2060
     14  N         17.3800  -24.0960   -6.3630 N.pl3   1  UNL1       -0.1790
     15  H         17.0900  -24.9800   -5.9390 H       1  UNL1        0.1460
     16  C         17.7360  -23.1040   -5.3930 C.2     1  UNL1        0.0560
     17  C         18.5680  -22.0390   -5.7470 C.2     1  UNL1        0.0340
     18  C         18.8800  -21.0500   -4.8090 C.2     1  UNL1       -0.0600
     19  C         18.3680  -21.1580   -3.5110 C.2     1  UNL1        0.0090
     20  C         19.8050  -19.9280   -5.1720 C.3     1  UNL1        0.0480
     21  C         17.5360  -22.2270   -3.1530 C.2     1  UNL1        0.0390
     22  C         17.2130  -23.2060   -4.0930 C.2     1  UNL1        0.0900
     23  O         16.4160  -24.3030   -3.8610 O.2     1  UNL1       -0.3540
     24  C         15.0110  -24.1180   -3.9980 C.3     1  UNL1        0.2100
     25  C         21.7380  -20.8830  -13.2760 C.3     1  UNL1        0.2450
     26  N         23.0290  -21.6070  -13.1900 N.pl3   1  UNL1       -0.2620
     27  C         23.4840  -22.2040  -11.9490 C.2     1  UNL1        0.0570
     28  C         22.7230  -22.0880  -10.7690 C.2     1  UNL1        0.0340
     29  C         24.6700  -22.9910  -11.9490 C.2     1  UNL1        0.0060
     30  C         23.1580  -22.6660   -9.5770 C.2     1  UNL1        0.0440
     31  C         24.3430  -23.3770   -9.5610 C.2     1  UNL1        0.1170
     32  F         24.7710  -23.9250   -8.4170 F       1  UNL1       -0.2060
     33  C         25.0900  -23.5440  -10.7210 C.2     1  UNL1        0.0570
     34  C         25.4480  -23.2310  -13.1940 C.2     1  UNL1       -0.0000
     35  C         26.2950  -24.3460  -13.3550 C.2     1  UNL1        0.0140
     36  C         25.3630  -22.3610  -14.2900 C.2     1  UNL1        0.0910
     37  C         27.0240  -24.5570  -14.5340 C.2     1  UNL1        0.0010
     38  C         26.9180  -23.6630  -15.5950 C.2     1  UNL1        0.0020
     39  C         26.0770  -22.5630  -15.4800 C.2     1  UNL1        0.0260
     40  S         24.2590  -21.0010  -14.1900 S.O2    1  UNL1        0.2660
     41  O         23.6960  -20.7680  -15.5010 O.2     1  UNL1       -0.2000
     42  O         24.9120  -19.9330  -13.4570 O.2     1  UNL1       -0.2000
@<TRIPOS>BOND
     1    38    39    2
     2    38    37    1
     3    41    40    2
     4    39    36    1
     5    37    35    2
     6    36    40    1
     7    36    34    2
     8    40    42    2
     9    40    26    1
    10    35    34    1
    11    25    26    1
    12    25     2    1
    13    34    29    1
    14    26    27    1
    15     4     1    1
    16     2     1   am
    17     2     3    2
    18     1     5    1
    19    29    27    2
    20    29    33    1
    21    27    28    1
    22     5    10    2
    23     5     6    1
    24    10     9    1
    25    28    30    2
    26    33    31    2
    27     6     7    2
    28     9     8    2
    29    30    31    1
    30    31    32    1
    31     7     8    1
    32     8    11    1
    33    13    11    2
    34    11    12    2
    35    11    14    1
    36    14    15    1
    37    14    16    1
    38    17    16    2
    39    17    18    1
    40    16    22    1
    41    20    18    1
    42    18    19    2
    43    22    23    1
    44    22    21    2
    45    24    23    1
    46    19    21    1
