@<TRIPOS>MOLECULE
28963_out_ligand_01.pdbqt
 35 38 0 0 0
SMALL
GASTEIGER

@<TRIPOS>ATOM
      1  C         20.7860  -22.3480  -10.8450 C.2     1  UNL1        0.0340
      2  C         20.6040  -23.3570   -9.8900 C.2     1  UNL1        0.0310
      3  C         19.3470  -23.5910   -9.3290 C.2     1  UNL1        0.0270
      4  C         18.2610  -22.8120   -9.7310 C.2     1  UNL1        0.0800
      5  C         18.4310  -21.7890  -10.6650 C.2     1  UNL1        0.0270
      6  C         19.6930  -21.5630  -11.2230 C.2     1  UNL1        0.0310
      7  S         16.6570  -23.0950   -9.0260 S.O2    1  UNL1        0.2630
      8  O         16.1110  -21.8290   -8.5900 O.2     1  UNL1       -0.2000
      9  O         15.9270  -23.9430   -9.9450 O.2     1  UNL1       -0.2000
     10  N         17.0090  -24.0610   -7.6870 N.pl3   1  UNL1       -0.2800
     11  H         16.8130  -25.0430   -7.8710 H       1  UNL1        0.1790
     12  C         16.6900  -23.5590   -6.3870 C.2     1  UNL1        0.0530
     13  C         15.5480  -24.0730   -5.7640 C.2     1  UNL1        0.0310
     14  C         15.1910  -23.6350   -4.4930 C.2     1  UNL1        0.0030
     15  C         15.9740  -22.6830   -3.8430 C.2     1  UNL1        0.0120
     16  C         17.1270  -22.1570   -4.4490 C.2     1  UNL1       -0.0240
     17  C         17.9050  -21.1980   -3.7790 C.2     1  UNL1        0.0120
     18  C         17.5080  -22.5980   -5.7400 C.2     1  UNL1        0.0010
     19  C         19.0560  -20.6720   -4.3640 C.2     1  UNL1        0.0010
     20  C         19.4470  -21.1020   -5.6260 C.2     1  UNL1        0.0010
     21  C         18.6840  -22.0530   -6.3060 C.2     1  UNL1        0.0140
     22  N         22.0840  -22.1840  -11.3620 N.am    1  UNL1       -0.3250
     23  C         23.1890  -21.6310  -10.7350 C.2     1  UNL1        0.2510
     24  O         23.2350  -21.1790   -9.5940 O.2     1  UNL1       -0.2700
     25  H         22.2210  -22.4120  -12.3420 H       1  UNL1        0.1690
     26  C         24.4500  -21.6690  -11.6190 C.3     1  UNL1        0.2170
     27  C         25.6500  -21.2850  -10.7580 C.3     1  UNL1        0.0500
     28  O         24.7230  -22.9680  -12.1480 O.2     1  UNL1       -0.3370
     29  C         24.7770  -23.1170  -13.5060 C.2     1  UNL1        0.0700
     30  C         25.2320  -24.2390  -14.1980 C.2     1  UNL1        0.0370
     31  C         25.2500  -24.2430  -15.5970 C.2     1  UNL1        0.0090
     32  C         24.8250  -23.1230  -16.3210 C.2     1  UNL1       -0.0620
     33  C         24.8150  -23.1450  -17.8210 C.3     1  UNL1        0.0480
     34  C         24.3570  -22.0060  -15.6240 C.2     1  UNL1        0.0090
     35  C         24.3410  -22.0040  -14.2270 C.2     1  UNL1        0.0370
@<TRIPOS>BOND
     1    33    32    1
     2    32    34    2
     3    32    31    1
     4    34    35    1
     5    31    30    2
     6    35    29    2
     7    30    29    1
     8    29    28    1
     9    25    22    1
    10    28    26    1
    11    26    27    1
    12    26    23    1
    13    22     1    1
    14    22    23   am
    15     6     1    2
    16     6     5    1
    17     1     2    1
    18    23    24    2
    19     5     4    2
    20     9     7    2
    21     2     3    2
    22     4     3    1
    23     4     7    1
    24     7     8    2
    25     7    10    1
    26    11    10    1
    27    10    12    1
    28    12    13    2
    29    12    18    1
    30    21    18    1
    31    21    20    2
    32    13    14    1
    33    18    16    2
    34    20    19    1
    35    14    15    2
    36    16    15    1
    37    16    17    1
    38    19    17    2
