@<TRIPOS>MOLECULE
28989_out_ligand_01.pdbqt
 33 35 0 0 0
SMALL
GASTEIGER

@<TRIPOS>ATOM
      1  C         21.1890  -23.0160  -10.1170 C.2     1  UNL1        0.0340
      2  C         20.1280  -22.2100  -10.5550 C.2     1  UNL1        0.0310
      3  C         18.8520  -22.3450  -10.0010 C.2     1  UNL1        0.0270
      4  C         18.6320  -23.3000   -9.0070 C.2     1  UNL1        0.0800
      5  C         19.6870  -24.0850   -8.5380 C.2     1  UNL1        0.0270
      6  C         20.9590  -23.9490   -9.1020 C.2     1  UNL1        0.0310
      7  N         22.4360  -22.8200  -10.7360 N.am    1  UNL1       -0.3250
      8  C         23.3980  -21.8700  -10.4400 C.2     1  UNL1        0.2510
      9  O         23.3320  -21.0100   -9.5660 O.2     1  UNL1       -0.2700
     10  H         22.7050  -23.4910  -11.4490 H       1  UNL1        0.1690
     11  C         24.6280  -21.9580  -11.3700 C.3     1  UNL1        0.2200
     12  C         25.8050  -21.1890  -10.7470 C.3     1  UNL1        0.0380
     13  C         26.3230  -20.0290  -11.5910 C.3     1  UNL1        0.0080
     14  O         24.3980  -21.4350  -12.6800 O.2     1  UNL1       -0.3370
     15  C         24.5760  -22.2630  -13.7540 C.2     1  UNL1        0.0700
     16  C         24.3110  -21.9530  -15.0890 C.2     1  UNL1        0.0370
     17  C         24.5630  -22.8960  -16.0910 C.2     1  UNL1        0.0030
     18  C         25.0830  -24.1470  -15.7650 C.2     1  UNL1        0.0000
     19  C         25.3530  -24.4590  -14.4350 C.2     1  UNL1        0.0030
     20  C         25.1020  -23.5170  -13.4350 C.2     1  UNL1        0.0370
     21  S         17.0190  -23.4640   -8.2780 S.O2    1  UNL1        0.2630
     22  O         17.0930  -24.5360   -7.3060 O.2     1  UNL1       -0.2000
     23  O         16.0570  -23.5120   -9.3570 O.2     1  UNL1       -0.2000
     24  N         16.8160  -22.0510   -7.3750 N.pl3   1  UNL1       -0.2800
     25  H         16.1490  -21.4110   -7.7960 H       1  UNL1        0.1790
     26  C         16.9110  -22.0830   -5.9520 C.2     1  UNL1        0.0540
     27  C         15.7760  -22.4110   -5.1800 C.2     1  UNL1       -0.0340
     28  C         14.4120  -22.6770   -5.7580 C.3     1  UNL1        0.0500
     29  C         15.9110  -22.5290   -3.7870 C.2     1  UNL1        0.0090
     30  C         17.1360  -22.3080   -3.1660 C.2     1  UNL1        0.0010
     31  C         18.2420  -21.9490   -3.9290 C.2     1  UNL1        0.0090
     32  C         18.1420  -21.8150   -5.3230 C.2     1  UNL1       -0.0340
     33  C         19.3770  -21.3860   -6.0710 C.3     1  UNL1        0.0500
@<TRIPOS>BOND
     1    17    18    2
     2    17    16    1
     3    18    19    1
     4    16    15    2
     5    19    20    2
     6    15    20    1
     7    15    14    1
     8    14    11    1
     9    13    12    1
    10    10     7    1
    11    11    12    1
    12    11     8    1
    13     7     8   am
    14     7     1    1
    15     2     1    2
    16     2     3    1
    17     8     9    2
    18     1     6    1
    19     3     4    2
    20    23    21    2
    21     6     5    2
    22     4     5    1
    23     4    21    1
    24    21    24    1
    25    21    22    2
    26    25    24    1
    27    24    26    1
    28    33    32    1
    29    26    32    2
    30    26    27    1
    31    28    27    1
    32    32    31    1
    33    27    29    2
    34    31    30    2
    35    29    30    1
