@<TRIPOS>MOLECULE
28990_out_ligand_01.pdbqt
 36 39 0 0 0
SMALL
GASTEIGER

@<TRIPOS>ATOM
      1  C         20.6240  -22.3270  -11.1400 C.2     1  UNL1        0.0340
      2  C         19.4980  -21.5670  -11.4630 C.2     1  UNL1        0.0310
      3  C         18.2820  -21.7820  -10.8060 C.2     1  UNL1        0.0270
      4  C         18.1890  -22.7770   -9.8320 C.2     1  UNL1        0.0800
      5  C         19.3140  -23.5230   -9.4730 C.2     1  UNL1        0.0270
      6  C         20.5250  -23.2970  -10.1320 C.2     1  UNL1        0.0310
      7  N         21.8740  -22.1790  -11.7650 N.am    1  UNL1       -0.3250
      8  C         23.0510  -21.6990  -11.2150 C.2     1  UNL1        0.2510
      9  O         23.2220  -21.3220  -10.0600 O.2     1  UNL1       -0.2700
     10  H         21.9160  -22.3530  -12.7670 H       1  UNL1        0.1690
     11  C         24.2150  -21.7050  -12.2220 C.3     1  UNL1        0.2170
     12  C         24.7490  -23.1300  -12.3360 C.3     1  UNL1        0.0500
     13  O         23.7880  -21.3160  -13.5300 O.2     1  UNL1       -0.3340
     14  C         24.7320  -20.7420  -14.3460 C.2     1  UNL1        0.1030
     15  C         25.5560  -19.6850  -13.9460 C.2     1  UNL1        0.0400
     16  C         26.4680  -19.1310  -14.8450 C.2     1  UNL1        0.0030
     17  C         26.5530  -19.6200  -16.1450 C.2     1  UNL1        0.0030
     18  C         25.7240  -20.6660  -16.5560 C.2     1  UNL1        0.0390
     19  C         24.8050  -21.2310  -15.6640 C.2     1  UNL1        0.1010
     20  O         23.9460  -22.2540  -15.9750 O.2     1  UNL1       -0.3530
     21  C         24.5070  -23.4340  -16.5310 C.3     1  UNL1        0.2100
     22  S         16.6370  -23.0700   -9.0130 S.O2    1  UNL1        0.2630
     23  O         16.1730  -21.8000   -8.4950 O.2     1  UNL1       -0.2000
     24  O         15.8080  -23.8650   -9.8920 O.2     1  UNL1       -0.2000
     25  N         17.0680  -23.9870   -7.6630 N.pl3   1  UNL1       -0.2800
     26  H         17.0110  -24.9890   -7.8290 H       1  UNL1        0.1790
     27  C         16.7480  -23.4970   -6.3590 C.2     1  UNL1        0.0530
     28  C         15.6270  -24.0300   -5.7160 C.2     1  UNL1        0.0310
     29  C         15.3000  -23.6270   -4.4270 C.2     1  UNL1        0.0030
     30  C         16.0970  -22.6900   -3.7720 C.2     1  UNL1        0.0120
     31  C         17.2270  -22.1390   -4.3960 C.2     1  UNL1       -0.0240
     32  C         18.0190  -21.1970   -3.7190 C.2     1  UNL1        0.0120
     33  C         17.5720  -22.5380   -5.7110 C.2     1  UNL1        0.0010
     34  C         19.1510  -20.6450   -4.3160 C.2     1  UNL1        0.0010
     35  C         19.5040  -21.0250   -5.6040 C.2     1  UNL1        0.0010
     36  C         18.7250  -21.9570   -6.2940 C.2     1  UNL1        0.0140
@<TRIPOS>BOND
     1    18    17    2
     2    18    19    1
     3    21    20    1
     4    17    16    1
     5    20    19    1
     6    19    14    2
     7    16    15    2
     8    14    15    1
     9    14    13    1
    10    13    11    1
    11    10     7    1
    12    12    11    1
    13    11     8    1
    14     7     8   am
    15     7     1    1
    16     2     1    2
    17     2     3    1
    18     8     9    2
    19     1     6    1
    20     3     4    2
    21     6     5    2
    22    24    22    2
    23     4     5    1
    24     4    22    1
    25    22    23    2
    26    22    25    1
    27    26    25    1
    28    25    27    1
    29    27    28    2
    30    27    33    1
    31    36    33    1
    32    36    35    2
    33    28    29    1
    34    33    31    2
    35    35    34    1
    36    29    30    2
    37    31    30    1
    38    31    32    1
    39    34    32    2
