@<TRIPOS>MOLECULE
28_out_ligand_01.pdbqt
 30 33 0 0 0
SMALL
GASTEIGER

@<TRIPOS>ATOM
      1  C         22.0510  -21.6910  -12.5330 C.2     1  UNL1       -0.0270
      2  C         22.4200  -22.4610  -11.4260 C.2     1  UNL1        0.0120
      3  C         21.4930  -22.7650  -10.4200 C.2     1  UNL1        0.0310
      4  C         20.1630  -22.3250  -10.4860 C.2     1  UNL1        0.0430
      5  C         19.7870  -21.5470  -11.6040 C.2     1  UNL1       -0.0300
      6  C         20.7300  -21.2320  -12.6030 C.2     1  UNL1        0.0190
      7  C         18.3930  -20.9950  -11.7610 C.3     1  UNL1        0.0420
      8  C         17.3990  -21.7980  -10.9500 C.3     1  UNL1        0.0250
      9  C         17.9090  -21.9210   -9.5240 C.3     1  UNL1        0.1330
     10  N         19.2080  -22.6090   -9.4430 N.am    1  UNL1       -0.3130
     11  C         19.4710  -23.5250   -8.4070 C.2     1  UNL1        0.2580
     12  O         20.3100  -24.4230   -8.4210 O.2     1  UNL1       -0.2670
     13  C         23.0330  -21.3550  -13.6410 C.3     1  UNL1        0.1790
     14  C         24.4650  -21.0910  -13.0800 C.3     1  UNL1        0.3080
     15  N         25.4580  -22.1510  -13.3620 N.3     1  UNL1        0.0910
     16  C         26.1140  -22.6550  -12.1430 C.3     1  UNL1        0.2720
     17  C         26.6660  -24.0830  -12.2780 C.3     1  UNL1        0.0310
     18  C         27.1210  -24.3780  -13.7020 C.3     1  UNL1        0.0070
     19  C         25.9800  -24.1480  -14.7120 C.3     1  UNL1        0.0100
     20  C         25.3790  -25.4740  -15.1860 C.3     1  UNL1        0.0110
     21  C         24.8680  -23.2420  -14.1450 C.3     1  UNL1        0.2760
     22  O         22.5150  -20.2290  -14.3600 O.3     1  UNL1       -0.3890
     23  H         21.7530  -20.5400  -14.8770 H       1  UNL1        0.2100
     24  C         18.6640  -23.4320   -7.1670 C.2     1  UNL1        0.0350
     25  C         17.6370  -24.3550   -6.9120 C.2     1  UNL1        0.0170
     26  C         16.8690  -24.2350   -5.7520 C.2     1  UNL1        0.0040
     27  C         17.1190  -23.1900   -4.8620 C.2     1  UNL1        0.0420
     28  C         18.1250  -22.2660   -5.1410 C.2     1  UNL1        0.1170
     29  F         18.3470  -21.2580   -4.2860 F       1  UNL1       -0.2060
     30  C         18.8980  -22.3690   -6.2900 C.2     1  UNL1        0.0590
@<TRIPOS>BOND
     1    20    19    1
     2    23    22    1
     3    19    21    1
     4    19    18    1
     5    22    13    1
     6    21    15    1
     7    18    17    1
     8    13    14    1
     9    13     1    1
    10    15    14    1
    11    15    16    1
    12     6     1    2
    13     6     5    1
    14     1     2    1
    15    17    16    1
    16     7     5    1
    17     7     8    1
    18     5     4    2
    19     2     3    2
    20     8     9    1
    21     4     3    1
    22     4    10    1
    23     9    10    1
    24    10    11   am
    25    12    11    2
    26    11    24    1
    27    24    25    2
    28    24    30    1
    29    25    26    1
    30    30    28    2
    31    26    27    2
    32    28    27    1
    33    28    29    1
