@<TRIPOS>MOLECULE
29007_out_ligand_01.pdbqt
 33 35 0 0 0
SMALL
GASTEIGER

@<TRIPOS>ATOM
      1  C         20.9610  -22.9030  -10.2330 C.2     1  UNL1        0.0340
      2  C         19.8420  -22.2240  -10.7370 C.2     1  UNL1        0.0310
      3  C         18.5820  -22.3940  -10.1570 C.2     1  UNL1        0.0270
      4  C         18.4420  -23.2450   -9.0590 C.2     1  UNL1        0.0800
      5  C         19.5410  -23.9520   -8.5690 C.2     1  UNL1        0.0270
      6  C         20.7990  -23.7730   -9.1520 C.2     1  UNL1        0.0310
      7  N         22.1920  -22.6650  -10.8700 N.am    1  UNL1       -0.3250
      8  C         23.2020  -21.8020  -10.4770 C.2     1  UNL1        0.2510
      9  O         23.2110  -21.0880   -9.4790 O.2     1  UNL1       -0.2700
     10  H         22.3320  -23.0970  -11.7780 H       1  UNL1        0.1690
     11  C         24.4130  -21.8370  -11.4290 C.3     1  UNL1        0.2170
     12  C         25.4480  -22.7950  -10.8480 C.3     1  UNL1        0.0500
     13  O         24.0890  -22.3250  -12.7320 O.2     1  UNL1       -0.3370
     14  C         24.6130  -21.6770  -13.8190 C.2     1  UNL1        0.0700
     15  C         25.2380  -20.4290  -13.8130 C.2     1  UNL1        0.0430
     16  C         25.7110  -19.8660  -15.0080 C.2     1  UNL1       -0.0590
     17  C         25.5350  -20.5580  -16.2130 C.2     1  UNL1        0.0130
     18  C         26.3430  -18.5040  -15.0090 C.3     1  UNL1        0.0480
     19  C         24.9230  -21.8160  -16.2300 C.2     1  UNL1       -0.0590
     20  C         24.7150  -22.5420  -17.5260 C.3     1  UNL1        0.0480
     21  C         24.4550  -22.3600  -15.0280 C.2     1  UNL1        0.0430
     22  S         16.8390  -23.4770   -8.3220 S.O2    1  UNL1        0.2630
     23  O         15.8560  -23.3750   -9.3820 O.2     1  UNL1       -0.2000
     24  O         16.8990  -24.6480   -7.4740 O.2     1  UNL1       -0.2000
     25  N         16.6380  -22.0930   -7.3760 N.pl3   1  UNL1       -0.2800
     26  H         17.0610  -21.2700   -7.7980 H       1  UNL1        0.1790
     27  C         16.6130  -22.1920   -5.9550 C.2     1  UNL1        0.0480
     28  C         15.4260  -22.5560   -5.3110 C.2     1  UNL1        0.0300
     29  C         15.3860  -22.6880   -3.9230 C.2     1  UNL1        0.0020
     30  C         16.5330  -22.4520   -3.1720 C.2     1  UNL1        0.0010
     31  C         17.7190  -22.0760   -3.8080 C.2     1  UNL1        0.0090
     32  C         17.7740  -21.9400   -5.2040 C.2     1  UNL1       -0.0350
     33  C         19.0690  -21.5270   -5.8460 C.3     1  UNL1        0.0500
@<TRIPOS>BOND
     1    20    19    1
     2    19    17    2
     3    19    21    1
     4    17    16    1
     5    21    14    2
     6    18    16    1
     7    16    15    2
     8    14    15    1
     9    14    13    1
    10    13    11    1
    11    10     7    1
    12    11    12    1
    13    11     8    1
    14     7     8   am
    15     7     1    1
    16     2     1    2
    17     2     3    1
    18     8     9    2
    19     1     6    1
    20     3     4    2
    21    23    22    2
    22     6     5    2
    23     4     5    1
    24     4    22    1
    25    22    24    2
    26    22    25    1
    27    26    25    1
    28    25    27    1
    29    27    28    2
    30    27    32    1
    31    33    32    1
    32    28    29    1
    33    32    31    2
    34    29    30    2
    35    31    30    1
