@<TRIPOS>MOLECULE
2900_out_ligand_01.pdbqt
 30 33 0 0 0
SMALL
GASTEIGER

@<TRIPOS>ATOM
      1  C         21.4090  -24.7480   -9.1580 C.3     1  UNL1        0.1530
      2  N         22.1020  -23.5160   -8.8030 N.am    1  UNL1       -0.3480
      3  C         21.4840  -22.3930   -8.2560 C.2     1  UNL1        0.2530
      4  O         22.0920  -21.3910   -7.8870 O.2     1  UNL1       -0.2670
      5  C         20.0120  -22.3830   -8.1210 C.2     1  UNL1        0.0330
      6  C         19.2320  -22.3350   -9.2790 C.2     1  UNL1        0.0190
      7  C         17.8370  -22.3420   -9.1950 C.2     1  UNL1        0.0310
      8  C         17.2620  -22.4130   -7.9200 C.ar    1  UNL1        0.0430
      9  N         15.9340  -22.4380   -7.5480 N.ar    1  UNL1       -0.3580
     10  C         18.0240  -22.4880   -6.7490 C.ar    1  UNL1       -0.0000
     11  C         15.8360  -22.5210   -6.1890 C.ar    1  UNL1        0.0170
     12  H         15.1570  -22.4060   -8.1930 H       1  UNL1        0.1660
     13  C         17.1100  -22.5610   -5.6610 C.ar    1  UNL1       -0.0230
     14  C         14.5640  -22.5950   -5.4220 C.3     1  UNL1        0.0570
     15  C         17.3660  -22.6430   -4.1930 C.3     1  UNL1        0.0410
     16  C         16.0970  -23.0720   -3.4310 C.3     1  UNL1        0.0050
     17  C         14.8410  -22.3310   -3.9300 C.3     1  UNL1        0.0060
     18  C         19.4280  -22.4820   -6.8510 C.2     1  UNL1        0.0310
     19  C         23.5010  -23.4010   -9.2040 C.3     1  UNL1        0.1640
     20  C         23.6410  -22.8650  -10.6120 C.2     1  UNL1       -0.0400
     21  C         24.8970  -22.8460  -11.2370 C.2     1  UNL1        0.0100
     22  C         25.0440  -22.3280  -12.5270 C.2     1  UNL1        0.0170
     23  C         23.9300  -21.8270  -13.2110 C.2     1  UNL1        0.0310
     24  C         22.6770  -21.8300  -12.5850 C.2     1  UNL1        0.0170
     25  C         22.5320  -22.3480  -11.2950 C.2     1  UNL1        0.0100
     26  C         24.0320  -21.2600  -14.5820 C.2     1  UNL1        0.2490
     27  N         24.4730  -19.9700  -14.7020 N.am    1  UNL1       -0.3660
     28  H         24.6600  -19.6570  -15.6460 H       1  UNL1        0.1590
     29  H         24.9640  -19.5020  -13.9540 H       1  UNL1        0.1590
     30  O         23.7680  -21.9260  -15.5750 O.2     1  UNL1       -0.2680
@<TRIPOS>BOND
     1    28    27    1
     2    30    26    2
     3    27    26   am
     4    27    29    1
     5    26    23    1
     6    23    24    2
     7    23    22    1
     8    24    25    1
     9    22    21    2
    10    25    20    2
    11    21    20    1
    12    20    19    1
    13     6     7    1
    14     6     5    2
    15    19     2    1
    16     7     8    2
    17     1     2    1
    18     2     3   am
    19     3     5    1
    20     3     4    2
    21    12     9    1
    22     5    18    1
    23     8     9   ar
    24     8    10   ar
    25     9    11   ar
    26    18    10    2
    27    10    13   ar
    28    11    13   ar
    29    11    14    1
    30    13    15    1
    31    14    17    1
    32    15    16    1
    33    17    16    1
