@<TRIPOS>MOLECULE
29008_out_ligand_01.pdbqt
 36 39 0 0 0
SMALL
GASTEIGER

@<TRIPOS>ATOM
      1  C         21.0100  -22.6380  -10.6330 C.2     1  UNL1        0.0340
      2  C         19.9830  -21.8080  -11.0910 C.2     1  UNL1        0.0310
      3  C         18.6840  -21.9460  -10.5930 C.2     1  UNL1        0.0270
      4  C         18.4130  -22.9140   -9.6250 C.2     1  UNL1        0.0800
      5  C         19.4240  -23.7610   -9.1690 C.2     1  UNL1        0.0270
      6  C         20.7190  -23.6180   -9.6730 C.2     1  UNL1        0.0310
      7  N         22.3390  -22.5640  -11.0870 N.am    1  UNL1       -0.3250
      8  C         23.3820  -21.8240  -10.5550 C.2     1  UNL1        0.2510
      9  O         23.3370  -21.1030   -9.5610 O.2     1  UNL1       -0.2700
     10  H         22.5990  -23.1860  -11.8480 H       1  UNL1        0.1690
     11  C         24.6830  -21.9580  -11.3720 C.3     1  UNL1        0.2200
     12  C         25.7800  -21.0680  -10.7700 C.3     1  UNL1        0.0380
     13  C         26.3400  -20.0580  -11.7600 C.3     1  UNL1        0.0080
     14  O         24.4900  -21.5050  -12.7160 O.2     1  UNL1       -0.3330
     15  C         24.6970  -22.3830  -13.7470 C.2     1  UNL1        0.1080
     16  C         25.2230  -23.6710  -13.6370 C.2     1  UNL1        0.0400
     17  C         25.3740  -24.4690  -14.7800 C.2     1  UNL1        0.0030
     18  C         25.0000  -23.9880  -16.0340 C.2     1  UNL1        0.0030
     19  C         24.4710  -22.7050  -16.1520 C.2     1  UNL1        0.0450
     20  C         24.3230  -21.9180  -15.0130 C.2     1  UNL1        0.1490
     21  F         23.7990  -20.6900  -15.1460 F       1  UNL1       -0.2030
     22  S         16.7610  -23.0870   -9.0000 S.O2    1  UNL1        0.2630
     23  O         15.9520  -23.7480  -10.0010 O.2     1  UNL1       -0.2000
     24  O         16.3700  -21.8010   -8.4600 O.2     1  UNL1       -0.2000
     25  N         16.9740  -24.1050   -7.6700 N.pl3   1  UNL1       -0.2800
     26  H         17.8500  -24.6190   -7.7270 H       1  UNL1        0.1790
     27  C         16.5760  -23.6270   -6.3830 C.2     1  UNL1        0.0530
     28  C         15.3640  -24.0970   -5.8700 C.2     1  UNL1        0.0310
     29  C         14.9160  -23.6600   -4.6280 C.2     1  UNL1        0.0030
     30  C         15.6770  -22.7490   -3.8980 C.2     1  UNL1        0.0120
     31  C         16.8950  -22.2600   -4.3980 C.2     1  UNL1       -0.0240
     32  C         17.6500  -21.3400   -3.6500 C.2     1  UNL1        0.0120
     33  C         17.3630  -22.6920   -5.6630 C.2     1  UNL1        0.0010
     34  C         18.8580  -20.8400   -4.1350 C.2     1  UNL1        0.0010
     35  C         19.3260  -21.2500   -5.3760 C.2     1  UNL1        0.0010
     36  C         18.5880  -22.1640   -6.1310 C.2     1  UNL1        0.0140
@<TRIPOS>BOND
     1    19    18    2
     2    19    20    1
     3    18    17    1
     4    21    20    1
     5    20    15    2
     6    17    16    2
     7    15    16    1
     8    15    14    1
     9    14    11    1
    10    10     7    1
    11    13    12    1
    12    11    12    1
    13    11     8    1
    14     2     1    2
    15     2     3    1
    16     7     1    1
    17     7     8   am
    18     1     6    1
    19     3     4    2
    20     8     9    2
    21    23    22    2
    22     6     5    2
    23     4     5    1
    24     4    22    1
    25    22    24    2
    26    22    25    1
    27    26    25    1
    28    25    27    1
    29    27    28    2
    30    27    33    1
    31    36    33    1
    32    36    35    2
    33    28    29    1
    34    33    31    2
    35    35    34    1
    36    29    30    2
    37    31    30    1
    38    31    32    1
    39    34    32    2
