@<TRIPOS>MOLECULE
29014_out_ligand_01.pdbqt
 41 45 0 0 0
SMALL
GASTEIGER

@<TRIPOS>ATOM
      1  N         24.8200  -22.0340  -11.7540 N.am    1  UNL1       -0.3260
      2  C         26.0390  -22.6670  -11.8720 C.2     1  UNL1        0.2410
      3  O         26.3510  -23.7120  -11.3010 O.2     1  UNL1       -0.2710
      4  H         24.7050  -21.1430  -12.2310 H       1  UNL1        0.1690
      5  C         23.6920  -22.4520  -11.0170 C.2     1  UNL1        0.0340
      6  C         22.4360  -22.1140  -11.5410 C.2     1  UNL1        0.0310
      7  C         21.2610  -22.5090  -10.8970 C.2     1  UNL1        0.0270
      8  C         21.3430  -23.2550   -9.7210 C.2     1  UNL1        0.0800
      9  C         22.5840  -23.5690   -9.1680 C.2     1  UNL1        0.0270
     10  C         23.7550  -23.1760   -9.8240 C.2     1  UNL1        0.0310
     11  S         19.8580  -23.7700   -8.8910 S.O2    1  UNL1        0.2630
     12  O         20.0500  -25.1250   -8.4200 O.2     1  UNL1       -0.2000
     13  O         18.7420  -23.4310   -9.7490 O.2     1  UNL1       -0.2000
     14  N         19.7680  -22.7170   -7.5760 N.pl3   1  UNL1       -0.2800
     15  H         20.6870  -22.4440   -7.2440 H       1  UNL1        0.1790
     16  C         18.7150  -22.8460   -6.6230 C.2     1  UNL1        0.0480
     17  C         17.8280  -23.9230   -6.7100 C.2     1  UNL1        0.0310
     18  C         16.7970  -24.0710   -5.7830 C.2     1  UNL1        0.0090
     19  C         16.6400  -23.1430   -4.7520 C.2     1  UNL1       -0.0610
     20  C         15.5170  -23.2720   -3.7660 C.3     1  UNL1        0.0480
     21  C         17.5140  -22.0500   -4.6820 C.2     1  UNL1        0.0150
     22  C         18.5550  -21.8870   -5.6100 C.2     1  UNL1       -0.0340
     23  C         19.4560  -20.6910   -5.4900 C.3     1  UNL1        0.0500
     24  C         27.0540  -22.0140  -12.7990 C.3     1  UNL1        0.2450
     25  N         26.6140  -21.2870  -14.0140 N.pl3   1  UNL1       -0.2620
     26  C         25.9190  -21.9600  -15.0960 C.2     1  UNL1        0.0570
     27  C         25.6310  -23.3370  -15.0260 C.2     1  UNL1        0.0340
     28  C         25.6010  -21.2320  -16.2760 C.2     1  UNL1        0.0060
     29  C         24.9460  -23.9750  -16.0580 C.2     1  UNL1        0.0440
     30  C         24.5640  -23.2480  -17.1700 C.2     1  UNL1        0.1170
     31  F         23.8840  -23.8530  -18.1510 F       1  UNL1       -0.2060
     32  C         24.8850  -21.9020  -17.2890 C.2     1  UNL1        0.0570
     33  C         26.0060  -19.8130  -16.4480 C.2     1  UNL1       -0.0000
     34  C         26.1960  -19.2310  -17.7150 C.2     1  UNL1        0.0140
     35  C         26.2510  -18.9840  -15.3450 C.2     1  UNL1        0.0910
     36  C         26.5870  -17.8930  -17.8590 C.2     1  UNL1        0.0010
     37  C         26.8090  -17.1000  -16.7390 C.2     1  UNL1        0.0020
     38  C         26.6500  -17.6470  -15.4710 C.2     1  UNL1        0.0260
     39  S         26.1220  -19.6820  -13.7410 S.O2    1  UNL1        0.2660
     40  O         24.7190  -19.7250  -13.3770 O.2     1  UNL1       -0.2000
     41  O         27.1050  -19.0560  -12.8830 O.2     1  UNL1       -0.2000
@<TRIPOS>BOND
     1    31    30    1
     2    36    34    1
     3    36    37    2
     4    34    33    2
     5    32    30    2
     6    32    28    1
     7    30    29    1
     8    37    38    1
     9    33    28    1
    10    33    35    1
    11    28    26    2
    12    29    27    2
    13    38    35    2
    14    35    39    1
    15    26    27    1
    16    26    25    1
    17    25    39    1
    18    25    24    1
    19    39    40    2
    20    39    41    2
    21    24     2    1
    22     4     1    1
    23     2     1   am
    24     2     3    2
    25     1     5    1
    26     6     5    2
    27     6     7    1
    28     5    10    1
    29     7     8    2
    30    10     9    2
    31    13    11    2
    32     8     9    1
    33     8    11    1
    34    11    12    2
    35    11    14    1
    36    14    15    1
    37    14    16    1
    38    17    16    2
    39    17    18    1
    40    16    22    1
    41    18    19    2
    42    22    23    1
    43    22    21    2
    44    19    21    1
    45    19    20    1
