@<TRIPOS>MOLECULE
29035_out_ligand_01.pdbqt
 38 42 0 0 0
SMALL
GASTEIGER

@<TRIPOS>ATOM
      1  C         20.8650  -22.7440   -8.2850 C.2     1  UNL1        0.0320
      2  C         20.4200  -24.0610   -8.4220 C.2     1  UNL1        0.0170
      3  C         19.2770  -24.4880   -7.7390 C.2     1  UNL1        0.0110
      4  C         18.5760  -23.6120   -6.8920 C.2     1  UNL1       -0.0250
      5  C         19.0420  -22.2920   -6.7580 C.2     1  UNL1        0.0110
      6  C         20.1810  -21.8590   -7.4450 C.2     1  UNL1        0.0170
      7  C         22.0860  -22.3240   -9.0230 C.2     1  UNL1        0.2560
      8  O         22.9320  -21.6740   -8.4210 O.2     1  UNL1       -0.2670
      9  N         22.1340  -22.7490  -10.3400 N.am    1  UNL1       -0.3230
     10  H         21.3930  -23.3680  -10.6460 H       1  UNL1        0.1690
     11  C         23.1500  -22.4930  -11.2830 C.2     1  UNL1        0.0350
     12  C         22.7780  -21.8200  -12.4560 C.2     1  UNL1        0.0310
     13  C         23.7250  -21.5230  -13.4410 C.2     1  UNL1        0.0270
     14  C         25.0580  -21.8910  -13.2500 C.2     1  UNL1        0.0790
     15  C         25.4360  -22.5880  -12.1010 C.2     1  UNL1        0.0270
     16  C         24.4840  -22.8740  -11.1160 C.2     1  UNL1        0.0310
     17  S         26.2610  -21.5630  -14.5250 S.O2    1  UNL1        0.2600
     18  O         26.8070  -20.2460  -14.2770 O.2     1  UNL1       -0.2000
     19  O         27.1170  -22.7280  -14.6150 O.2     1  UNL1       -0.2000
     20  N         25.3430  -21.4890  -15.9330 N.3     1  UNL1       -0.3070
     21  C         25.5220  -20.3580  -16.8620 C.3     1  UNL1        0.1350
     22  C         24.8780  -20.8480  -18.1520 C.3     1  UNL1        0.0220
     23  C         25.2300  -22.3240  -18.1530 C.3     1  UNL1        0.0220
     24  C         25.0530  -22.7220  -16.6920 C.3     1  UNL1        0.1350
     25  C         17.3250  -24.0390   -6.1410 C.3     1  UNL1        0.1830
     26  S         17.4290  -23.5560   -4.3980 S.3     1  UNL1       -0.1300
     27  C         16.0900  -22.3550   -4.5240 C.3     1  UNL1        0.1790
     28  C         15.4110  -22.5850   -5.8520 C.2     1  UNL1        0.2300
     29  O         14.3600  -22.0350   -6.1690 O.2     1  UNL1       -0.2730
     30  N         16.1060  -23.4600   -6.6650 N.am    1  UNL1       -0.3340
     31  C         15.5710  -23.8910   -7.9560 C.3     1  UNL1        0.1320
     32  C         15.2840  -22.7310   -8.9200 C.3     1  UNL1        0.0580
     33  C         16.4550  -22.3930   -9.8140 C.2     1  UNL1       -0.0570
     34  C         17.3680  -23.3830  -10.1970 C.2     1  UNL1        0.0070
     35  C         18.4300  -23.0740  -11.0480 C.2     1  UNL1        0.0010
     36  C         18.5890  -21.7730  -11.5220 C.2     1  UNL1        0.0000
     37  C         17.6900  -20.7790  -11.1410 C.2     1  UNL1        0.0010
     38  C         16.6270  -21.0860  -10.2890 C.2     1  UNL1        0.0070
@<TRIPOS>BOND
     1    23    22    1
     2    23    24    1
     3    22    21    1
     4    21    20    1
     5    24    20    1
     6    20    17    1
     7    19    17    2
     8    17    18    2
     9    17    14    1
    10    13    14    2
    11    13    12    1
    12    14    15    1
    13    12    11    2
    14    15    16    2
    15    36    37    2
    16    36    35    1
    17    11    16    1
    18    11     9    1
    19    37    38    1
    20    35    34    2
    21    10     9    1
    22     9     7   am
    23    38    33    2
    24    34    33    1
    25    33    32    1
    26     7     8    2
    27     7     1    1
    28    32    31    1
    29     2     1    2
    30     2     3    1
    31     1     6    1
    32    31    30    1
    33     3     4    2
    34     6     5    2
    35     4     5    1
    36     4    25    1
    37    30    25    1
    38    30    28   am
    39    29    28    2
    40    25    26    1
    41    28    27    1
    42    27    26    1
