@<TRIPOS>MOLECULE
29037_out_ligand_01.pdbqt
 33 35 0 0 0
SMALL
GASTEIGER

@<TRIPOS>ATOM
      1  C         21.5790  -23.1240   -9.2650 C.2     1  UNL1       -0.0160
      2  C         20.6860  -24.0990   -8.8150 C.2     1  UNL1        0.0160
      3  C         19.3640  -24.1030   -9.2700 C.2     1  UNL1        0.0390
      4  C         18.9270  -23.1280  -10.1750 C.2     1  UNL1        0.0860
      5  C         19.8240  -22.1270  -10.5830 C.2     1  UNL1        0.0450
      6 BR         19.2860  -20.7480  -11.7750 Br      1  UNL1       -0.0480
      7  C         21.1460  -22.1210  -10.1310 C.2     1  UNL1        0.0340
      8  C         22.9780  -23.0830   -8.7910 C.2     1  UNL1        0.1500
      9  N         24.0840  -23.2750   -9.4530 N.2     1  UNL1       -0.1830
     10  N         24.0470  -23.3260  -10.8230 N.am    1  UNL1       -0.2430
     11  C         24.5700  -22.2870  -11.5960 C.2     1  UNL1        0.2710
     12  O         24.9660  -21.2070  -11.1650 O.2     1  UNL1       -0.2660
     13  H         24.2380  -24.2570  -11.1810 H       1  UNL1        0.1920
     14  C         24.6590  -22.5680  -13.0580 C.2     1  UNL1        0.0330
     15  C         24.1760  -21.6080  -13.9540 C.2     1  UNL1        0.0170
     16  C         24.2310  -21.8380  -15.3310 C.2     1  UNL1        0.0070
     17  C         24.7490  -23.0370  -15.8290 C.2     1  UNL1       -0.0620
     18  C         24.8330  -23.2710  -17.3090 C.3     1  UNL1        0.0480
     19  C         25.2330  -23.9980  -14.9310 C.2     1  UNL1        0.0070
     20  C         25.1820  -23.7700  -13.5520 C.2     1  UNL1        0.0170
     21  O         17.6430  -23.0580  -10.6510 O.2     1  UNL1       -0.3410
     22  C         16.7170  -22.2850   -9.8920 C.3     1  UNL1        0.2780
     23  C         16.3980  -22.8910   -8.5220 C.2     1  UNL1        0.2460
     24  O         15.9290  -24.0220   -8.4330 O.2     1  UNL1       -0.2710
     25  N         16.6800  -22.0180   -7.4850 N.am    1  UNL1       -0.3250
     26  H         17.1000  -21.1430   -7.7800 H       1  UNL1        0.1690
     27  C         16.5070  -22.2130   -6.0980 C.2     1  UNL1        0.0400
     28  C         15.2700  -22.5490   -5.5370 C.2     1  UNL1        0.0300
     29  C         15.1310  -22.7370   -4.1600 C.2     1  UNL1        0.0020
     30  C         16.2300  -22.5930   -3.3220 C.2     1  UNL1        0.0010
     31  C         17.4700  -22.2600   -3.8620 C.2     1  UNL1        0.0090
     32  C         17.6250  -22.0640   -5.2470 C.2     1  UNL1       -0.0350
     33  C         18.9920  -21.7040   -5.7670 C.3     1  UNL1        0.0500
@<TRIPOS>BOND
     1    18    17    1
     2    17    16    2
     3    17    19    1
     4    16    15    1
     5    19    20    2
     6    15    14    2
     7    20    14    1
     8    14    11    1
     9     6     5    1
    10    11    12    2
    11    11    10   am
    12    13    10    1
    13    10     9    1
    14    21     4    1
    15    21    22    1
    16     5     4    2
    17     5     7    1
    18     4     3    1
    19     7     1    2
    20    22    23    1
    21     9     8    2
    22     3     2    2
    23     1     2    1
    24     1     8    1
    25    23    24    2
    26    23    25   am
    27    26    25    1
    28    25    27    1
    29    27    28    2
    30    27    32    1
    31    33    32    1
    32    28    29    1
    33    32    31    2
    34    29    30    2
    35    31    30    1
