@<TRIPOS>MOLECULE
29047_out_ligand_01.pdbqt
 35 37 0 0 0
SMALL
GASTEIGER

@<TRIPOS>ATOM
      1  C         21.6040  -22.9400   -9.2770 C.2     1  UNL1       -0.0160
      2  C         20.8210  -24.0470   -8.9470 C.2     1  UNL1        0.0160
      3  C         19.5160  -24.1560   -9.4410 C.2     1  UNL1        0.0390
      4  C         18.9900  -23.1670  -10.2790 C.2     1  UNL1        0.0860
      5  C         19.8030  -22.0730  -10.6240 C.2     1  UNL1        0.0450
      6 BR         19.1810  -20.7090  -11.7940 Br      1  UNL1       -0.0480
      7  C         21.1060  -21.9610  -10.1360 C.2     1  UNL1        0.0340
      8  C         22.9840  -22.8780   -8.7520 C.2     1  UNL1        0.1500
      9  N         24.1070  -23.1970   -9.3310 N.2     1  UNL1       -0.1830
     10  N         24.1280  -23.4350  -10.6810 N.am    1  UNL1       -0.2430
     11  C         24.4650  -22.4250  -11.5840 C.2     1  UNL1        0.2710
     12  O         24.6080  -21.2380  -11.3070 O.2     1  UNL1       -0.2660
     13  H         24.4980  -24.3530  -10.9060 H       1  UNL1        0.1920
     14  C         24.6930  -22.8800  -12.9860 C.2     1  UNL1        0.0360
     15  C         25.2200  -24.1450  -13.2740 C.2     1  UNL1        0.0170
     16  C         25.4140  -24.5290  -14.6000 C.2     1  UNL1        0.0040
     17  C         25.0740  -23.6550  -15.6330 C.2     1  UNL1        0.0370
     18  C         24.5290  -22.3990  -15.3580 C.2     1  UNL1        0.0690
     19  C         24.3360  -22.0130  -14.0310 C.2     1  UNL1        0.0530
     20  O         24.2330  -21.6490  -16.4630 O.2     1  UNL1       -0.3560
     21  C         25.3000  -21.3870  -17.3670 C.3     1  UNL1        0.2100
     22  O         17.7280  -23.1850  -10.8150 O.2     1  UNL1       -0.3410
     23  C         16.6950  -22.4520  -10.1660 C.3     1  UNL1        0.2780
     24  C         16.3340  -22.9790   -8.7710 C.2     1  UNL1        0.2460
     25  O         15.8690  -24.1070   -8.6310 O.2     1  UNL1       -0.2710
     26  N         16.6190  -22.0580   -7.7780 N.am    1  UNL1       -0.3250
     27  H         16.9540  -21.1660   -8.1250 H       1  UNL1        0.1690
     28  C         16.4360  -22.1740   -6.3820 C.2     1  UNL1        0.0410
     29  C         15.1830  -22.4480   -5.8250 C.2     1  UNL1        0.0300
     30  C         15.0220  -22.5590   -4.4450 C.2     1  UNL1        0.0030
     31  C         16.1140  -22.3990   -3.6010 C.2     1  UNL1        0.0070
     32  C         17.3870  -22.1230   -4.1230 C.2     1  UNL1       -0.0540
     33  C         18.5280  -21.9580   -3.1540 C.3     1  UNL1        0.0490
     34  C         17.5580  -22.0090   -5.5260 C.2     1  UNL1       -0.0290
     35  C         18.9200  -21.7060   -6.1090 C.3     1  UNL1        0.0510
@<TRIPOS>BOND
     1    21    20    1
     2    20    18    1
     3    17    18    2
     4    17    16    1
     5    18    19    1
     6    16    15    2
     7    19    14    2
     8    15    14    1
     9    14    11    1
    10     6     5    1
    11    11    12    2
    12    11    10   am
    13    13    10    1
    14    22     4    1
    15    22    23    1
    16    10     9    1
    17     5     4    2
    18     5     7    1
    19     4     3    1
    20    23    24    1
    21     7     1    2
    22     3     2    2
    23     9     8    2
    24     1     2    1
    25     1     8    1
    26    24    25    2
    27    24    26   am
    28    27    26    1
    29    26    28    1
    30    28    29    2
    31    28    34    1
    32    35    34    1
    33    29    30    1
    34    34    32    2
    35    30    31    2
    36    32    31    1
    37    32    33    1
