@<TRIPOS>MOLECULE
29042_out_ligand_01.pdbqt
 33 35 0 0 0
SMALL
GASTEIGER

@<TRIPOS>ATOM
      1  C         18.6210  -22.7420  -10.6130 C.2     1  UNL1        0.0700
      2  C         18.8260  -21.6650  -11.4830 C.2     1  UNL1        0.0370
      3  C         20.0410  -20.9780  -11.4980 C.2     1  UNL1        0.0040
      4  C         21.0670  -21.3680  -10.6410 C.2     1  UNL1        0.0130
      5  C         20.8700  -22.4510   -9.7800 C.2     1  UNL1       -0.0140
      6  C         19.6450  -23.1270   -9.7480 C.2     1  UNL1        0.0490
      7  O         17.3750  -23.3030  -10.6930 O.2     1  UNL1       -0.3420
      8  C         16.3130  -22.6730   -9.9800 C.3     1  UNL1        0.2780
      9  C         16.1300  -23.1660   -8.5370 C.2     1  UNL1        0.2460
     10  N         16.3450  -22.1620   -7.6090 N.am    1  UNL1       -0.3250
     11  H         16.6420  -21.2810   -8.0150 H       1  UNL1        0.1690
     12  O         15.8050  -24.3270   -8.3120 O.2     1  UNL1       -0.2710
     13  C         16.2720  -22.2280   -6.1980 C.2     1  UNL1        0.0410
     14  C         15.0700  -22.4900   -5.5360 C.2     1  UNL1        0.0300
     15  C         15.0180  -22.5500   -4.1450 C.2     1  UNL1        0.0030
     16  C         16.1690  -22.3460   -3.3960 C.2     1  UNL1        0.0070
     17  C         17.3930  -22.0770   -4.0240 C.2     1  UNL1       -0.0540
     18  C         18.6040  -21.8590   -3.1540 C.3     1  UNL1        0.0490
     19  C         17.4550  -22.0180   -5.4390 C.2     1  UNL1       -0.0290
     20  C         18.7660  -21.7420   -6.1390 C.3     1  UNL1        0.0510
     21  C         21.9190  -22.8670   -8.8260 C.2     1  UNL1        0.1500
     22  N         23.1720  -23.1490   -9.0470 N.2     1  UNL1       -0.1830
     23  N         23.6030  -23.3130  -10.3380 N.am    1  UNL1       -0.2430
     24  C         24.2690  -22.2840  -11.0080 C.2     1  UNL1        0.2710
     25  O         24.6740  -21.2430  -10.5000 O.2     1  UNL1       -0.2660
     26  H         22.9360  -23.8320  -10.9020 H       1  UNL1        0.1920
     27  C         24.4540  -22.5000  -12.4730 C.2     1  UNL1        0.0330
     28  C         23.9000  -21.5690  -13.3610 C.2     1  UNL1        0.0180
     29  C         24.0550  -21.7290  -14.7410 C.2     1  UNL1        0.0200
     30  C         24.7750  -22.8170  -15.2310 C.2     1  UNL1        0.0110
     31 BR         24.9910  -23.0360  -17.0960 Br      1  UNL1       -0.0510
     32  C         25.3450  -23.7430  -14.3570 C.2     1  UNL1        0.0200
     33  C         25.1900  -23.5840  -12.9760 C.2     1  UNL1        0.0180
@<TRIPOS>BOND
     1    31    30    1
     2    30    29    2
     3    30    32    1
     4    29    28    1
     5    32    33    2
     6    28    27    2
     7    33    27    1
     8    27    24    1
     9     3     2    1
    10     3     4    2
    11     2     1    2
    12    24    25    2
    13    24    23   am
    14    26    23    1
    15     7     1    1
    16     7     8    1
    17     4     5    1
    18     1     6    1
    19    23    22    1
    20     8     9    1
    21     5     6    2
    22     5    21    1
    23    22    21    2
    24     9    12    2
    25     9    10   am
    26    11    10    1
    27    10    13    1
    28    13    14    2
    29    13    19    1
    30    20    19    1
    31    14    15    1
    32    19    17    2
    33    15    16    2
    34    17    16    1
    35    17    18    1
