@<TRIPOS>MOLECULE
29049_out_ligand_01.pdbqt
 35 37 0 0 0
SMALL
GASTEIGER

@<TRIPOS>ATOM
      1  C         19.1510  -23.0220  -10.3020 C.2     1  UNL1        0.0860
      2  C         19.6060  -24.0520   -9.4710 C.2     1  UNL1        0.0390
      3  C         20.9420  -24.0840   -9.0550 C.2     1  UNL1        0.0160
      4  C         21.8250  -23.0790   -9.4560 C.2     1  UNL1       -0.0160
      5  C         21.3890  -22.0560  -10.2980 C.2     1  UNL1        0.0340
      6  C         20.0500  -22.0190  -10.6990 C.2     1  UNL1        0.0450
      7 BR         19.5020  -20.5770  -11.8080 Br      1  UNL1       -0.0480
      8  C         23.2310  -23.1650   -9.0050 C.2     1  UNL1        0.1500
      9  N         24.3160  -23.3760   -9.6970 N.2     1  UNL1       -0.1830
     10  N         24.2710  -23.3250  -11.0640 N.am    1  UNL1       -0.2430
     11  C         24.7140  -22.2000  -11.7600 C.2     1  UNL1        0.2710
     12  O         25.0320  -21.1250  -11.2600 O.2     1  UNL1       -0.2660
     13  H         24.5050  -24.2180  -11.4910 H       1  UNL1        0.1920
     14  C         24.8120  -22.3680  -13.2370 C.2     1  UNL1        0.0330
     15  C         25.2750  -23.5590  -13.8180 C.2     1  UNL1        0.0190
     16  C         25.3360  -23.6860  -15.2090 C.2     1  UNL1        0.0370
     17  C         24.9260  -22.6200  -16.0230 C.2     1  UNL1        0.1020
     18  C         24.4510  -21.4330  -15.4510 C.2     1  UNL1        0.0370
     19  C         24.3910  -21.3140  -14.0610 C.2     1  UNL1        0.0190
     20  N         24.9880  -22.7540  -17.4840 N.pl3   1  UNL1       -0.1160
     21  O         26.0610  -23.1250  -17.9810 O.2     1  UNL1       -0.5320
     22  O         23.9660  -22.4860  -18.1310 O.2     1  UNL1       -0.5320
     23  O         17.8490  -22.8980  -10.7130 O.2     1  UNL1       -0.3410
     24  C         17.0050  -22.0510   -9.9370 C.3     1  UNL1        0.2780
     25  C         16.4090  -22.7180   -8.6910 C.2     1  UNL1        0.2460
     26  N         16.9230  -22.2020   -7.5150 N.am    1  UNL1       -0.3250
     27  H         17.6440  -21.4950   -7.6310 H       1  UNL1        0.1690
     28  O         15.5610  -23.5980   -8.8030 O.2     1  UNL1       -0.2710
     29  C         16.6100  -22.5720   -6.1940 C.2     1  UNL1        0.0350
     30  C         15.3590  -22.1860   -5.7000 C.2     1  UNL1        0.0290
     31  C         14.9780  -22.5030   -4.3950 C.2     1  UNL1        0.0030
     32  C         15.8450  -23.2180   -3.5700 C.2     1  UNL1        0.0070
     33  C         17.0930  -23.6280   -4.0500 C.2     1  UNL1       -0.0600
     34  C         18.0410  -24.3690   -3.1530 C.3     1  UNL1        0.0480
     35  C         17.4730  -23.2910   -5.3600 C.2     1  UNL1        0.0360
@<TRIPOS>BOND
     1    22    20    2
     2    21    20    2
     3    20    17    1
     4    17    18    2
     5    17    16    1
     6    18    19    1
     7    16    15    2
     8    19    14    2
     9    15    14    1
    10    14    11    1
    11     7     6    1
    12    11    12    2
    13    11    10   am
    14    13    10    1
    15    10     9    1
    16    23     1    1
    17    23    24    1
    18     6     1    2
    19     6     5    1
    20     1     2    1
    21     5     4    2
    22    24    25    1
    23     9     8    2
    24     2     3    2
    25     4     3    1
    26     4     8    1
    27    28    25    2
    28    25    26   am
    29    27    26    1
    30    26    29    1
    31    29    30    2
    32    29    35    1
    33    30    31    1
    34    35    33    2
    35    31    32    2
    36    33    32    1
    37    33    34    1
