@<TRIPOS>MOLECULE
29044_out_ligand_01.pdbqt
 35 37 0 0 0
SMALL
GASTEIGER

@<TRIPOS>ATOM
      1  C         22.0150  -22.9870   -9.4390 C.2     1  UNL1       -0.0160
      2  C         21.2290  -24.0470   -8.9850 C.2     1  UNL1        0.0160
      3  C         19.8820  -24.1270   -9.3530 C.2     1  UNL1        0.0390
      4  C         19.3220  -23.1580  -10.1940 C.2     1  UNL1        0.0860
      5  C         20.1220  -22.0970  -10.6430 C.2     1  UNL1        0.0450
      6 BR         19.4250  -20.7360  -11.7670 Br      1  UNL1       -0.0480
      7  C         21.4710  -22.0210  -10.2870 C.2     1  UNL1        0.0340
      8  C         23.4390  -22.9510   -9.0480 C.2     1  UNL1        0.1500
      9  N         24.4960  -23.2600   -9.7450 N.2     1  UNL1       -0.1830
     10  N         24.3760  -23.4490  -11.0950 N.am    1  UNL1       -0.2430
     11  C         24.7910  -22.4660  -11.9950 C.2     1  UNL1        0.2710
     12  O         25.1370  -21.3240  -11.7100 O.2     1  UNL1       -0.2660
     13  H         24.5920  -24.4010  -11.3800 H       1  UNL1        0.1920
     14  C         24.8270  -22.9040  -13.4140 C.2     1  UNL1        0.0360
     15  C         25.2820  -24.1940  -13.7040 C.2     1  UNL1        0.0170
     16  C         25.3150  -24.6350  -15.0240 C.2     1  UNL1        0.0040
     17  C         24.9130  -23.7780  -16.0500 C.2     1  UNL1        0.0370
     18  C         24.4890  -22.4760  -15.7720 C.2     1  UNL1        0.0690
     19  C         24.4410  -22.0380  -14.4480 C.2     1  UNL1        0.0530
     20  O         24.1410  -21.7420  -16.8710 O.2     1  UNL1       -0.3560
     21  C         25.0440  -20.7200  -17.2730 C.3     1  UNL1        0.2100
     22  O         18.0000  -23.1550  -10.5560 O.2     1  UNL1       -0.3410
     23  C         17.1300  -22.3460   -9.7690 C.3     1  UNL1        0.2780
     24  C         16.8360  -22.9170   -8.3760 C.2     1  UNL1        0.2460
     25  O         16.1740  -23.9430   -8.2560 O.2     1  UNL1       -0.2710
     26  N         17.3820  -22.1490   -7.3640 N.am    1  UNL1       -0.3250
     27  H         17.9050  -21.3430   -7.6870 H       1  UNL1        0.1690
     28  C         17.3220  -22.3520   -5.9690 C.2     1  UNL1        0.0410
     29  C         16.3180  -23.1200   -5.3660 C.2     1  UNL1        0.0370
     30  C         16.2700  -23.2980   -3.9750 C.2     1  UNL1       -0.0600
     31  C         15.2020  -24.1520   -3.3600 C.3     1  UNL1        0.0480
     32  C         17.2590  -22.7180   -3.1820 C.2     1  UNL1        0.0070
     33  C         18.2660  -21.9530   -3.7670 C.2     1  UNL1        0.0090
     34  C         18.3110  -21.7590   -5.1580 C.2     1  UNL1       -0.0350
     35  C         19.4300  -20.9280   -5.7250 C.3     1  UNL1        0.0500
@<TRIPOS>BOND
     1    21    20    1
     2    20    18    1
     3    17    18    2
     4    17    16    1
     5    18    19    1
     6    16    15    2
     7    19    14    2
     8    15    14    1
     9    14    11    1
    10    11    12    2
    11    11    10   am
    12     6     5    1
    13    13    10    1
    14    10     9    1
    15     5     7    1
    16     5     4    2
    17    22     4    1
    18    22    23    1
    19     7     1    2
    20     4     3    1
    21    23    24    1
    22     9     8    2
    23     1     8    1
    24     1     2    1
    25     3     2    2
    26    24    25    2
    27    24    26   am
    28    27    26    1
    29    26    28    1
    30    28    29    2
    31    28    34    1
    32    35    34    1
    33    29    30    1
    34    34    33    2
    35    30    31    1
    36    30    32    2
    37    33    32    1
