@<TRIPOS>MOLECULE
29071_out_ligand_01.pdbqt
 36 38 0 0 0
SMALL
GASTEIGER

@<TRIPOS>ATOM
      1  C         21.6870  -22.9110   -9.1410 C.2     1  UNL1        0.1130
      2  C         22.9610  -23.5220   -8.9770 C.1     1  UNL1        0.1050
      3  N         24.0110  -24.0100   -8.9010 N.1     1  UNL1       -0.1910
      4  C         21.1070  -22.8540  -10.3560 C.2     1  UNL1        0.0420
      5  C         21.0120  -22.4100   -7.9090 C.2     1  UNL1        0.2660
      6  N         19.8220  -23.0610   -7.6410 N.am    1  UNL1       -0.3220
      7  H         19.5390  -23.7880   -8.2880 H       1  UNL1        0.1690
      8  O         21.5300  -21.5050   -7.2680 O.2     1  UNL1       -0.2670
      9  C         18.9660  -22.8610   -6.5410 C.2     1  UNL1        0.0350
     10  C         18.9190  -21.6870   -5.7880 C.2     1  UNL1        0.0300
     11  C         18.0380  -21.5720   -4.7060 C.2     1  UNL1        0.0090
     12  C         17.1980  -22.6330   -4.3530 C.2     1  UNL1       -0.0620
     13  C         16.2340  -22.4930   -3.2120 C.3     1  UNL1        0.0480
     14  C         17.2330  -23.8040   -5.1140 C.2     1  UNL1        0.0090
     15  C         18.1100  -23.9170   -6.1970 C.2     1  UNL1        0.0300
     16  C         19.7640  -22.3200  -10.6370 C.2     1  UNL1        0.0000
     17  C         18.6480  -22.9390  -10.0520 C.2     1  UNL1        0.0330
     18  C         17.3720  -22.4380  -10.2910 C.2     1  UNL1        0.0110
     19 BR         15.8740  -23.2750   -9.5010 Br      1  UNL1       -0.0510
     20  C         17.1940  -21.3260  -11.1070 C.2     1  UNL1        0.0220
     21  C         18.3000  -20.7030  -11.6950 C.2     1  UNL1        0.0390
     22  C         19.5890  -21.1940  -11.4680 C.2     1  UNL1        0.0790
     23  O         20.7390  -20.6650  -12.0030 O.2     1  UNL1       -0.3410
     24  C         21.2650  -21.2450  -13.1930 C.3     1  UNL1        0.2780
     25  C         22.7920  -21.1980  -13.3430 C.2     1  UNL1        0.2460
     26  O         23.5140  -21.4970  -12.3960 O.2     1  UNL1       -0.2710
     27  N         23.1880  -20.8110  -14.6110 N.am    1  UNL1       -0.3250
     28  H         22.4300  -20.5370  -15.2220 H       1  UNL1        0.1690
     29  C         24.5000  -20.6700  -15.1190 C.2     1  UNL1        0.0410
     30  C         25.3130  -19.5890  -14.7600 C.2     1  UNL1        0.0300
     31  C         26.6120  -19.4760  -15.2520 C.2     1  UNL1        0.0030
     32  C         27.1190  -20.4490  -16.1050 C.2     1  UNL1        0.0070
     33  C         26.3370  -21.5500  -16.4820 C.2     1  UNL1       -0.0540
     34  C         26.9460  -22.5650  -17.4140 C.3     1  UNL1        0.0490
     35  C         25.0090  -21.6620  -16.0000 C.2     1  UNL1       -0.0290
     36  C         24.1370  -22.8230  -16.4220 C.3     1  UNL1        0.0510
@<TRIPOS>BOND
     1    34    33    1
     2    33    32    2
     3    33    35    1
     4    36    35    1
     5    32    31    1
     6    35    29    2
     7    31    30    2
     8    28    27    1
     9    29    30    1
    10    29    27    1
    11    27    25   am
    12    25    24    1
    13    25    26    2
    14    24    23    1
    15    23    22    1
    16    21    22    1
    17    21    20    2
    18    22    16    2
    19    20    18    1
    20    16     4    1
    21    16    17    1
    22     4     1    2
    23    18    17    2
    24    18    19    1
    25     1     2    1
    26     1     5    1
    27     2     3    3
    28     7     6    1
    29     5     6   am
    30     5     8    2
    31     6     9    1
    32     9    15    2
    33     9    10    1
    34    15    14    1
    35    10    11    2
    36    14    12    2
    37    11    12    1
    38    12    13    1
