@<TRIPOS>MOLECULE
290_out_ligand_01.pdbqt
 34 36 0 0 0
SMALL
GASTEIGER

@<TRIPOS>ATOM
      1  C         21.4290  -22.1970  -10.4980 C.2     1  UNL1        0.0820
      2  C         21.1160  -21.2800  -11.4980 C.2     1  UNL1        0.0260
      3  C         19.7810  -20.9840  -11.7540 C.2     1  UNL1        0.0100
      4  C         18.7520  -21.5920  -11.0100 C.2     1  UNL1       -0.0350
      5  C         17.3270  -21.2350  -11.3460 C.3     1  UNL1        0.0500
      6  C         19.0770  -22.5180   -9.9900 C.2     1  UNL1        0.0420
      7  C         20.4220  -22.8110   -9.7410 C.2     1  UNL1        0.0550
      8  N         18.0260  -23.0920   -9.2400 N.am    1  UNL1       -0.3260
      9  C         18.1060  -23.9860   -8.1850 C.2     1  UNL1        0.2310
     10  O         19.1250  -24.5470   -7.7900 O.2     1  UNL1       -0.2720
     11  H         17.0890  -22.7600   -9.4390 H       1  UNL1        0.1690
     12  C         16.7500  -24.3400   -7.5890 C.3     1  UNL1        0.1820
     13  S         15.8090  -22.8640   -7.0570 S.3     1  UNL1       -0.1200
     14  C         16.8310  -22.3350   -5.6800 C.2     1  UNL1        0.0070
     15  C         17.9700  -21.5640   -5.9670 C.2     1  UNL1        0.0250
     16  C         18.8130  -21.1040   -4.9470 C.2     1  UNL1       -0.0610
     17  C         20.0010  -20.2440   -5.2640 C.3     1  UNL1        0.0480
     18  C         18.4940  -21.4040   -3.6240 C.2     1  UNL1        0.0070
     19  C         17.3780  -22.1890   -3.3270 C.2     1  UNL1        0.0090
     20  C         16.5480  -22.6840   -4.3480 C.2     1  UNL1       -0.0450
     21  C         15.3600  -23.5190   -3.9520 C.3     1  UNL1        0.0490
     22  S         23.1300  -22.5530  -10.1350 S.O2    1  UNL1        0.2630
     23  O         23.8260  -21.3070   -9.8920 O.2     1  UNL1       -0.2000
     24  O         23.1580  -23.6160   -9.1510 O.2     1  UNL1       -0.2000
     25  N         23.6850  -23.2350  -11.5810 N.pl3   1  UNL1       -0.2810
     26  H         23.9360  -24.2100  -11.4340 H       1  UNL1        0.1790
     27  C         24.5420  -22.4470  -12.3940 C.2     1  UNL1        0.0420
     28  C         24.0000  -21.6670  -13.4130 C.2     1  UNL1        0.0330
     29  C         24.8390  -20.8520  -14.1760 C.2     1  UNL1        0.0390
     30  C         26.2130  -20.8030  -13.9210 C.2     1  UNL1        0.0680
     31  C         26.7470  -21.5860  -12.8980 C.2     1  UNL1        0.0390
     32  C         25.9110  -22.4060  -12.1320 C.2     1  UNL1        0.0330
     33  O         26.9160  -19.9570  -14.7380 O.2     1  UNL1       -0.3560
     34  C         26.3430  -18.6760  -14.9770 C.3     1  UNL1        0.2100
@<TRIPOS>BOND
     1    34    33    1
     2    33    30    1
     3    29    30    2
     4    29    28    1
     5    30    31    1
     6    28    27    2
     7    31    32    2
     8    27    32    1
     9    27    25    1
    10     3     2    1
    11     3     4    2
    12    25    26    1
    13    25    22    1
    14     2     1    2
    15     5     4    1
    16     4     6    1
    17     1    22    1
    18     1     7    1
    19    22    23    2
    20    22    24    2
    21     6     7    2
    22     6     8    1
    23    11     8    1
    24     8     9   am
    25     9    10    2
    26     9    12    1
    27    12    13    1
    28    13    14    1
    29    15    14    2
    30    15    16    1
    31    14    20    1
    32    17    16    1
    33    16    18    2
    34    20    21    1
    35    20    19    2
    36    18    19    1
