@<TRIPOS>MOLECULE
29104_out_ligand_01.pdbqt
 34 36 0 0 0
SMALL
GASTEIGER

@<TRIPOS>ATOM
      1  C         19.5530  -22.5730  -10.6510 C.2     1  UNL1        0.0180
      2  C         18.2690  -22.9190  -10.2120 C.2     1  UNL1        0.0390
      3  C         17.1860  -22.1240  -10.5700 C.2     1  UNL1        0.0350
      4 CL         15.6030  -22.5510  -10.0460 Cl      1  UNL1       -0.0840
      5  C         17.3750  -20.9770  -11.3360 C.2     1  UNL1        0.0260
      6  C         18.6620  -20.6160  -11.7540 C.2     1  UNL1        0.0390
      7  C         19.7610  -21.4160  -11.4210 C.2     1  UNL1        0.0810
      8  O         21.0550  -21.1220  -11.7690 O.2     1  UNL1       -0.3410
      9  C         21.3330  -20.9620  -13.1600 C.3     1  UNL1        0.2780
     10  C         22.7450  -21.4210  -13.5440 C.2     1  UNL1        0.2460
     11  O         23.2600  -21.0550  -14.5950 O.2     1  UNL1       -0.2710
     12  N         23.2900  -22.2690  -12.5940 N.am    1  UNL1       -0.3250
     13  H         22.7020  -22.4020  -11.7790 H       1  UNL1        0.1690
     14  C         24.5540  -22.9020  -12.5860 C.2     1  UNL1        0.0410
     15  C         25.2360  -23.2030  -13.7710 C.2     1  UNL1        0.0300
     16  C         26.4880  -23.8150  -13.7380 C.2     1  UNL1        0.0030
     17  C         27.0780  -24.1310  -12.5200 C.2     1  UNL1        0.0070
     18  C         26.4250  -23.8460  -11.3120 C.2     1  UNL1       -0.0540
     19  C         27.1210  -24.2070  -10.0250 C.3     1  UNL1        0.0490
     20  C         25.1440  -23.2370  -11.3370 C.2     1  UNL1       -0.0290
     21  C         24.4180  -22.9300  -10.0460 C.3     1  UNL1        0.0510
     22  C         20.7160  -23.3930  -10.2440 C.2     1  UNL1        0.1530
     23  N         21.0080  -23.9010   -9.0790 N.2     1  UNL1       -0.1830
     24  N         20.0670  -23.9060   -8.0830 N.am    1  UNL1       -0.2430
     25  C         19.9280  -22.8260   -7.2080 C.2     1  UNL1        0.2710
     26  O         20.7030  -21.8800   -7.1070 O.2     1  UNL1       -0.2660
     27  H         19.1920  -24.3300   -8.3820 H       1  UNL1        0.1920
     28  C         18.6960  -22.8550   -6.3680 C.2     1  UNL1        0.0330
     29  C         18.5100  -21.8440   -5.4200 C.2     1  UNL1        0.0170
     30  C         17.3660  -21.8350   -4.6170 C.2     1  UNL1        0.0070
     31  C         16.3960  -22.8350   -4.7540 C.2     1  UNL1       -0.0620
     32  C         15.1860  -22.8390   -3.8660 C.3     1  UNL1        0.0480
     33  C         16.6020  -23.8630   -5.6820 C.2     1  UNL1        0.0070
     34  C         17.7440  -23.8750   -6.4890 C.2     1  UNL1        0.0170
@<TRIPOS>BOND
     1    11    10    2
     2    15    16    1
     3    15    14    2
     4    16    17    2
     5    10     9    1
     6    10    12   am
     7     9     8    1
     8    12    14    1
     9    12    13    1
    10    14    20    1
    11    17    18    1
    12     8     7    1
    13     6     7    1
    14     6     5    2
    15     7     1    2
    16    20    18    2
    17    20    21    1
    18     5     3    1
    19    18    19    1
    20     1    22    1
    21     1     2    1
    22     3     2    2
    23     3     4    1
    24    22    23    2
    25    23    24    1
    26    27    24    1
    27    24    25   am
    28    25    26    2
    29    25    28    1
    30    34    28    2
    31    34    33    1
    32    28    29    1
    33    33    31    2
    34    29    30    2
    35    31    30    1
    36    31    32    1
