@<TRIPOS>MOLECULE
29124_out_ligand_01.pdbqt
 36 38 0 0 0
SMALL
GASTEIGER

@<TRIPOS>ATOM
      1  C         20.9940  -23.0110  -10.2560 C.2     1  UNL1        0.0420
      2  C         21.6000  -23.0110   -9.0520 C.2     1  UNL1        0.1130
      3  C         22.8840  -23.6110   -8.9050 C.1     1  UNL1        0.1050
      4  N         23.9150  -24.1400   -8.8360 N.1     1  UNL1       -0.1910
      5  C         21.0250  -22.3640   -7.8350 C.2     1  UNL1        0.2660
      6  O         21.6540  -21.4670   -7.2850 O.2     1  UNL1       -0.2670
      7  N         19.8160  -22.9090   -7.4400 N.am    1  UNL1       -0.3220
      8  H         19.4570  -23.6580   -8.0160 H       1  UNL1        0.1690
      9  C         19.0060  -22.5370   -6.3370 C.2     1  UNL1        0.0410
     10  C         19.3090  -21.4270   -5.5410 C.2     1  UNL1        0.0300
     11  C         18.4960  -21.0740   -4.4650 C.2     1  UNL1        0.0030
     12  C         17.3680  -21.8260   -4.1690 C.2     1  UNL1        0.0070
     13  C         17.0300  -22.9450   -4.9430 C.2     1  UNL1       -0.0540
     14  C         15.7900  -23.7150   -4.5710 C.3     1  UNL1        0.0490
     15  C         17.8540  -23.3150   -6.0360 C.2     1  UNL1       -0.0290
     16  C         17.5010  -24.5150   -6.8830 C.3     1  UNL1        0.0510
     17  C         19.7080  -22.3790  -10.5920 C.2     1  UNL1       -0.0010
     18  C         18.5180  -22.9220  -10.0870 C.2     1  UNL1        0.0140
     19  C         17.2930  -22.3330  -10.3920 C.2     1  UNL1        0.0010
     20  C         17.2500  -21.1940  -11.1900 C.2     1  UNL1        0.0030
     21  C         18.4290  -20.6390  -11.6940 C.2     1  UNL1        0.0370
     22  C         19.6640  -21.2290  -11.4060 C.2     1  UNL1        0.0790
     23  O         20.8760  -20.7680  -11.8560 O.2     1  UNL1       -0.3410
     24  C         21.1760  -20.8820  -13.2440 C.3     1  UNL1        0.2780
     25  C         22.6380  -21.2060  -13.5800 C.2     1  UNL1        0.2460
     26  N         23.1910  -22.1200  -12.7040 N.am    1  UNL1       -0.3250
     27  H         22.5850  -22.3920  -11.9390 H       1  UNL1        0.1690
     28  O         23.1790  -20.6820  -14.5490 O.2     1  UNL1       -0.2710
     29  C         24.4990  -22.6540  -12.6950 C.2     1  UNL1        0.0410
     30  C         25.3960  -22.2310  -11.6900 C.2     1  UNL1       -0.0350
     31  C         26.7030  -22.7460  -11.6740 C.2     1  UNL1        0.0090
     32  C         25.0120  -21.2330  -10.6310 C.3     1  UNL1        0.0500
     33  C         27.1210  -23.6720  -12.6290 C.2     1  UNL1        0.0070
     34  C         26.2360  -24.1090  -13.6140 C.2     1  UNL1       -0.0600
     35  C         26.6860  -25.0790  -14.6670 C.3     1  UNL1        0.0480
     36  C         24.9350  -23.5860  -13.6460 C.2     1  UNL1        0.0370
@<TRIPOS>BOND
     1    35    34    1
     2    28    25    2
     3    36    34    1
     4    36    29    2
     5    34    33    2
     6    25    24    1
     7    25    26   am
     8    24    23    1
     9    26    29    1
    10    26    27    1
    11    29    30    1
    12    33    31    1
    13    23    22    1
    14    21    22    1
    15    21    20    2
    16    30    31    2
    17    30    32    1
    18    22    17    2
    19    20    19    1
    20    17     1    1
    21    17    18    1
    22    19    18    2
    23     1     2    2
    24     2     3    1
    25     2     5    1
    26     3     4    3
    27     8     7    1
    28     5     7   am
    29     5     6    2
    30     7     9    1
    31    16    15    1
    32     9    15    2
    33     9    10    1
    34    15    13    1
    35    10    11    2
    36    13    14    1
    37    13    12    2
    38    11    12    1
