@<TRIPOS>MOLECULE
2913_out_ligand_01.pdbqt
 27 29 0 0 0
SMALL
GASTEIGER

@<TRIPOS>ATOM
      1  N         20.3860  -23.9920   -9.0320 N.pl3   1  UNL1       -0.2890
      2  H         19.9710  -23.8170   -9.9440 H       1  UNL1        0.1280
      3  C         19.5470  -23.5840   -7.9920 C.2     1  UNL1        0.0090
      4  C         19.7210  -22.4030   -7.2690 C.2     1  UNL1        0.0320
      5  C         18.8920  -22.0760   -6.1760 C.2     1  UNL1       -0.0290
      6  C         19.1540  -20.8050   -5.4160 C.3     1  UNL1        0.0420
      7  C         17.8330  -22.9220   -5.8000 C.2     1  UNL1        0.0430
      8  C         18.8550  -21.0560   -3.9520 C.3     1  UNL1        0.0250
      9  C         17.4090  -21.4960   -3.8020 C.3     1  UNL1        0.1320
     10  N         16.9660  -22.5460   -4.7240 N.am    1  UNL1       -0.3180
     11  C         15.6550  -22.9820   -4.5080 C.2     1  UNL1        0.2200
     12  C         14.8870  -23.6520   -5.6210 C.3     1  UNL1        0.1170
     13  O         15.0650  -22.7640   -3.4430 O.2     1  UNL1       -0.2730
     14  C         17.7280  -24.1490   -6.4600 C.2     1  UNL1        0.0320
     15  C         18.5720  -24.4720   -7.5330 C.2     1  UNL1        0.0260
     16  C         21.7980  -23.6380   -8.9990 C.3     1  UNL1        0.1310
     17  C         22.1830  -23.0150  -10.3230 C.2     1  UNL1       -0.0450
     18  C         23.4890  -23.1280  -10.8170 C.2     1  UNL1        0.0090
     19  C         23.8360  -22.5440  -12.0370 C.2     1  UNL1        0.0170
     20  C         22.8850  -21.8260  -12.7750 C.2     1  UNL1        0.0310
     21  C         21.5770  -21.7150  -12.2900 C.2     1  UNL1        0.0170
     22  C         21.2320  -22.3020  -11.0690 C.2     1  UNL1        0.0090
     23  C         23.3060  -21.2240  -14.0680 C.2     1  UNL1        0.2490
     24  N         22.5750  -20.1700  -14.5440 N.am    1  UNL1       -0.3660
     25  H         22.9610  -19.7010  -15.3540 H       1  UNL1        0.1590
     26  H         21.9540  -19.6370  -13.9520 H       1  UNL1        0.1590
     27  O         24.2920  -21.6240  -14.6740 O.2     1  UNL1       -0.2680
@<TRIPOS>BOND
     1    25    24    1
     2    27    23    2
     3    24    23   am
     4    24    26    1
     5    23    20    1
     6    20    21    2
     7    20    19    1
     8    21    22    1
     9    19    18    2
    10    22    17    2
    11    18    17    1
    12    17    16    1
    13     2     1    1
    14     1    16    1
    15     1     3    1
    16     3    15    2
    17     3     4    1
    18    15    14    1
    19     4     5    2
    20    14     7    2
    21     5     7    1
    22     5     6    1
    23     7    10    1
    24    12    11    1
    25     6     8    1
    26    10    11   am
    27    10     9    1
    28    11    13    2
    29     8     9    1
