@<TRIPOS>MOLECULE
2918_out_ligand_01.pdbqt
 31 34 0 0 0
SMALL
GASTEIGER

@<TRIPOS>ATOM
      1  C         18.4850  -22.3930   -9.5560 C.2     1  UNL1        0.0350
      2  C         17.8760  -21.6130  -10.5490 C.2     1  UNL1        0.0290
      3  C         18.5910  -21.1960  -11.6740 C.2     1  UNL1        0.0030
      4  C         19.9300  -21.5510  -11.8170 C.2     1  UNL1        0.0170
      5  C         20.5540  -22.3190  -10.8260 C.2     1  UNL1        0.0340
      6  C         19.8270  -22.7480   -9.7050 C.2     1  UNL1        0.0460
      7  C         21.9810  -22.7210  -10.9490 C.2     1  UNL1        0.2520
      8  O         22.4450  -23.5960  -10.2280 O.2     1  UNL1       -0.2680
      9  N         22.7170  -22.0420  -11.8890 N.am    1  UNL1       -0.3460
     10  H         22.3410  -21.2210  -12.3490 H       1  UNL1        0.1630
     11  C         24.1320  -22.2810  -12.0830 C.3     1  UNL1        0.1470
     12  C         24.8030  -21.2470  -12.9520 C.2     1  UNL1       -0.0270
     13  C         24.3660  -20.7160  -14.1570 C.2     1  UNL1        0.0100
     14  C         26.0490  -20.8820  -12.4220 C.2     1  UNL1       -0.0470
     15  C         25.1830  -19.7950  -14.8150 C.2     1  UNL1        0.0010
     16  C         26.4250  -19.4260  -14.2770 C.2     1  UNL1        0.0010
     17  C         26.8710  -19.9780  -13.0740 C.2     1  UNL1        0.0080
     18  C         26.3350  -21.6260  -11.1500 C.3     1  UNL1        0.0730
     19  C         24.9220  -22.0890  -10.7550 C.3     1  UNL1        0.1490
     20  O         24.2920  -21.0790   -9.9330 O.3     1  UNL1       -0.3930
     21  H         23.4290  -20.8860  -10.3460 H       1  UNL1        0.2100
     22  N         17.6820  -22.7620   -8.4540 N.am    1  UNL1       -0.3230
     23  C         17.8880  -22.4460   -7.1220 C.2     1  UNL1        0.2570
     24  O         18.8350  -21.8320   -6.6510 O.2     1  UNL1       -0.2670
     25  H         16.9060  -23.3730   -8.6680 H       1  UNL1        0.1690
     26  C         16.8490  -22.9450   -6.1880 C.2     1  UNL1        0.0490
     27  C         15.4830  -22.7130   -6.3660 C.2     1  UNL1        0.0200
     28  C         14.5780  -23.2190   -5.4320 C.2     1  UNL1        0.0200
     29  C         15.0730  -23.9330   -4.3520 C.2     1  UNL1        0.1160
     30  N         16.3870  -24.1630   -4.1450 N.2     1  UNL1       -0.2720
     31  C         17.2490  -23.6530   -5.0620 C.2     1  UNL1        0.1330
@<TRIPOS>BOND
     1    15    16    2
     2    15    13    1
     3    16    17    1
     4    13    12    2
     5    17    14    2
     6    12    14    1
     7    12    11    1
     8    14    18    1
     9    10     9    1
    10    11     9    1
    11    11    19    1
    12     9     7   am
    13     4     3    2
    14     4     5    1
    15     3     2    1
    16    18    19    1
    17     7     5    1
    18     7     8    2
    19     5     6    2
    20    19    20    1
    21     2     1    2
    22    21    20    1
    23     6     1    1
    24     1    22    1
    25    25    22    1
    26    22    23   am
    27    23    24    2
    28    23    26    1
    29    27    26    2
    30    27    28    1
    31    26    31    1
    32    28    29    2
    33    31    30    2
    34    29    30    1
