@<TRIPOS>MOLECULE
29304_out_ligand_01.pdbqt
 35 38 0 0 0
SMALL
GASTEIGER

@<TRIPOS>ATOM
      1  N         18.6800  -23.3530   -6.7160 N.am    1  UNL1       -0.3220
      2  C         19.5750  -22.3040   -6.7800 C.2     1  UNL1        0.2560
      3  O         19.5150  -21.2590   -6.1410 O.2     1  UNL1       -0.2670
      4  H         18.9150  -24.2040   -7.2270 H       1  UNL1        0.1690
      5  C         20.7390  -22.5140   -7.6940 C.2     1  UNL1        0.0320
      6  C         20.7480  -23.6530   -8.5080 C.2     1  UNL1        0.0170
      7  C         21.8140  -23.8920   -9.3780 C.2     1  UNL1        0.0100
      8  C         22.8950  -23.0000   -9.4430 C.2     1  UNL1       -0.0300
      9  C         22.8910  -21.8700   -8.6130 C.2     1  UNL1        0.0100
     10  C         21.8250  -21.6290   -7.7400 C.2     1  UNL1        0.0170
     11  C         24.0480  -23.2570  -10.3920 C.3     1  UNL1        0.3110
     12  N         24.7890  -22.0360  -10.7400 N.3     1  UNL1        0.0970
     13  C         26.2350  -22.2840  -10.8670 C.3     1  UNL1        0.2770
     14  C         26.6210  -23.2210  -12.0230 C.3     1  UNL1        0.0690
     15  C         25.8530  -22.9380  -13.2900 C.2     1  UNL1       -0.0490
     16  C         26.2340  -23.5510  -14.4910 C.2     1  UNL1        0.0070
     17  C         24.7140  -22.1130  -13.2580 C.2     1  UNL1       -0.0240
     18  C         25.5040  -23.3270  -15.6580 C.2     1  UNL1        0.0010
     19  C         24.3860  -22.4970  -15.6330 C.2     1  UNL1        0.0010
     20  C         23.9940  -21.8890  -14.4410 C.2     1  UNL1        0.0090
     21  C         24.3000  -21.4070  -11.9820 C.3     1  UNL1        0.3110
     22  C         17.4520  -23.4260   -6.0120 C.2     1  UNL1        0.0500
     23  C         17.3950  -23.5290   -4.6170 C.2     1  UNL1        0.0300
     24  C         16.1680  -23.5660   -3.9470 C.2     1  UNL1        0.0020
     25  C         14.9760  -23.4880   -4.6580 C.2     1  UNL1        0.0010
     26  C         15.0070  -23.3890   -6.0490 C.2     1  UNL1        0.0190
     27  C         16.2360  -23.3750   -6.7340 C.2     1  UNL1        0.0580
     28  C         16.2400  -23.2870   -8.2280 C.2     1  UNL1        0.2530
     29  N         16.8130  -22.1570   -8.7780 N.am    1  UNL1       -0.3570
     30  H         16.9230  -21.3500   -8.1800 H       1  UNL1        0.1620
     31  O         15.7120  -24.1680   -8.9020 O.2     1  UNL1       -0.2680
     32  C         16.7400  -21.9150  -10.2060 C.3     1  UNL1        0.1230
     33  C         18.0480  -22.2580  -10.9150 C.3     1  UNL1        0.0190
     34  C         18.8910  -21.0450  -11.3230 C.3     1  UNL1       -0.0030
     35  C         20.3290  -21.3950  -11.6730 C.3     1  UNL1        0.0050
@<TRIPOS>BOND
     1    18    19    2
     2    18    16    1
     3    19    20    1
     4    16    15    2
     5    20    17    2
     6    15    17    1
     7    15    14    1
     8    17    21    1
     9    14    13    1
    10    21    12    1
    11    35    34    1
    12    34    33    1
    13    33    32    1
    14    13    12    1
    15    12    11    1
    16    11     8    1
    17    32    29    1
    18     8     7    2
    19     8     9    1
    20     7     6    1
    21    31    28    2
    22    29    28   am
    23    29    30    1
    24     9    10    2
    25     6     5    2
    26    28    27    1
    27    10     5    1
    28     5     2    1
    29     4     1    1
    30     2     1   am
    31     2     3    2
    32    27    26    1
    33    27    22    2
    34     1    22    1
    35    26    25    2
    36    22    23    1
    37    25    24    1
    38    23    24    2
