@<TRIPOS>MOLECULE
29303_out_ligand_01.pdbqt
 37 40 0 0 0
SMALL
GASTEIGER

@<TRIPOS>ATOM
      1  C         20.1430  -22.0900   -9.9830 C.2     1  UNL1        0.0350
      2  C         19.5420  -23.1150   -9.3490 C.2     1  UNL1        0.0560
      3  C         20.2250  -24.3350   -9.0360 C.1     1  UNL1        0.1000
      4  N         20.7890  -25.3220   -8.7950 N.1     1  UNL1       -0.1910
      5  C         18.1210  -22.9830   -8.9560 C.2     1  UNL1       -0.0040
      6  C         17.1570  -23.0930   -9.9740 C.2     1  UNL1        0.0140
      7  C         15.8070  -22.9890   -9.6780 C.2     1  UNL1        0.0020
      8  C         15.4000  -22.7740   -8.3650 C.2     1  UNL1        0.0120
      9  C         16.3320  -22.6640   -7.3270 C.2     1  UNL1       -0.0250
     10  C         15.8970  -22.4540   -6.0090 C.2     1  UNL1        0.0120
     11  C         17.7170  -22.7690   -7.6070 C.2     1  UNL1       -0.0140
     12  C         16.8090  -22.3380   -4.9600 C.2     1  UNL1        0.0010
     13  C         18.1660  -22.4430   -5.2130 C.2     1  UNL1        0.0010
     14  C         18.6150  -22.6600   -6.5180 C.2     1  UNL1        0.0130
     15  C         21.5560  -22.0970  -10.3830 C.2     1  UNL1       -0.0320
     16  C         21.8900  -21.9810  -11.7390 C.2     1  UNL1        0.0510
     17  C         23.2270  -21.9360  -12.1360 C.2     1  UNL1        0.1020
     18  C         24.2290  -21.9860  -11.1560 C.2     1  UNL1        0.1020
     19  C         23.9030  -22.1310   -9.8060 C.2     1  UNL1        0.0400
     20  C         22.5640  -22.1760   -9.4210 C.2     1  UNL1        0.0140
     21  O         23.6600  -21.8040  -13.4280 O.2     1  UNL1       -0.3530
     22  C         22.9600  -20.8880  -14.2570 C.3     1  UNL1        0.2100
     23  O         25.5430  -21.9770  -11.5460 O.2     1  UNL1       -0.3390
     24  C         26.2500  -20.8290  -11.1030 C.3     1  UNL1        0.2780
     25  C         26.6100  -19.8030  -12.1920 C.2     1  UNL1        0.2460
     26  O         27.0460  -18.6960  -11.8970 O.2     1  UNL1       -0.2710
     27  N         26.3380  -20.2600  -13.4740 N.am    1  UNL1       -0.3250
     28  H         26.0680  -21.2350  -13.5650 H       1  UNL1        0.1690
     29  C         26.4330  -19.5410  -14.6820 C.2     1  UNL1        0.0370
     30  C         26.3040  -20.2800  -15.8630 C.2     1  UNL1        0.0290
     31  C         26.3620  -19.6620  -17.1180 C.2     1  UNL1        0.0050
     32  C         26.5460  -18.2860  -17.2040 C.2     1  UNL1        0.0360
     33  C         26.6730  -17.5410  -16.0250 C.2     1  UNL1        0.1050
     34  C         26.6200  -18.1580  -14.7640 C.2     1  UNL1        0.0650
     35  N         26.8570  -16.0900  -16.1150 N.pl3   1  UNL1       -0.1160
     36  O         27.1190  -15.4730  -15.0750 O.2     1  UNL1       -0.5320
     37  O         26.7470  -15.5690  -17.2350 O.2     1  UNL1       -0.5320
@<TRIPOS>BOND
     1    37    35    2
     2    32    31    2
     3    32    33    1
     4    31    30    1
     5    35    33    1
     6    35    36    2
     7    33    34    2
     8    30    29    2
     9    34    29    1
    10    29    27    1
    11    22    21    1
    12    28    27    1
    13    27    25   am
    14    21    17    1
    15    25    26    2
    16    25    24    1
    17    17    16    1
    18    17    18    2
    19    16    15    2
    20    23    18    1
    21    23    24    1
    22    18    19    1
    23    15     1    1
    24    15    20    1
    25     1     2    2
    26     6     7    1
    27     6     5    2
    28    19    20    2
    29     7     8    2
    30     2     3    1
    31     2     5    1
    32     3     4    3
    33     5    11    1
    34     8     9    1
    35    11     9    2
    36    11    14    1
    37     9    10    1
    38    14    13    2
    39    10    12    2
    40    13    12    1
