@<TRIPOS>MOLECULE
29340_out_ligand_01.pdbqt
 36 39 0 0 0
SMALL
GASTEIGER

@<TRIPOS>ATOM
      1  N         21.2380  -23.1390   -9.9510 N.pl3   1  UNL1       -0.3460
      2  C         22.4680  -23.0330  -10.5490 C.2     1  UNL1        0.1040
      3  C         22.3580  -22.1380  -11.5900 C.2     1  UNL1       -0.0080
      4  C         20.9940  -21.7160  -11.6600 C.2     1  UNL1        0.0020
      5  C         20.2550  -20.8730  -12.5190 C.2     1  UNL1        0.0140
      6  C         18.8900  -20.6670  -12.2920 C.2     1  UNL1        0.0010
      7  C         18.2490  -21.2900  -11.2280 C.2     1  UNL1        0.0020
      8  C         18.9480  -22.1400  -10.3680 C.2     1  UNL1        0.0300
      9  C         20.3170  -22.3440  -10.6050 C.2     1  UNL1        0.0450
     10  C         23.4710  -21.7730  -12.4100 C.2     1  UNL1        0.0160
     11  C         23.3800  -21.3700  -13.6900 C.2     1  UNL1        0.0330
     12  C         24.4920  -20.9890  -14.5560 C.ar    1  UNL1        0.0750
     13  N         25.0370  -19.7330  -14.3660 N.ar    1  UNL1       -0.3060
     14  C         26.0590  -19.2080  -15.1100 C.ar    1  UNL1        0.3270
     15  H         24.6570  -19.1030  -13.6670 H       1  UNL1        0.1710
     16  O         26.4930  -18.0810  -14.9060 O.2     1  UNL1       -0.2470
     17  N         26.5570  -20.0170  -16.0910 N.ar    1  UNL1       -0.2730
     18  C         26.0970  -21.2770  -16.3930 C.ar    1  UNL1        0.2840
     19  H         27.3130  -19.6500  -16.6510 H       1  UNL1        0.1730
     20  O         26.5960  -21.9390  -17.2950 O.2     1  UNL1       -0.2650
     21  C         24.9870  -21.7420  -15.5540 C.ar    1  UNL1        0.1970
     22  N         24.4660  -23.0450  -15.8010 N.pl3   1  UNL1       -0.1070
     23  O         23.6000  -23.1480  -16.6800 O.2     1  UNL1       -0.5310
     24  O         24.9630  -23.9770  -15.1570 O.2     1  UNL1       -0.5310
     25  C         20.9520  -23.9880   -8.8020 C.3     1  UNL1        0.2310
     26  C         20.0320  -23.3900   -7.7470 C.2     1  UNL1        0.2400
     27  O         20.4390  -22.4280   -7.0930 O.2     1  UNL1       -0.2710
     28  N         18.8090  -24.0120   -7.5690 N.am    1  UNL1       -0.3260
     29  H         18.5700  -24.7630   -8.2070 H       1  UNL1        0.1690
     30  C         17.7920  -23.6720   -6.6500 C.2     1  UNL1        0.0350
     31  C         17.8210  -23.9950   -5.2900 C.2     1  UNL1        0.0320
     32  C         16.7670  -23.6180   -4.4510 C.2     1  UNL1        0.0440
     33  C         15.6870  -22.9190   -4.9710 C.2     1  UNL1        0.1160
     34  F         14.6800  -22.5590   -4.1660 F       1  UNL1       -0.2060
     35  C         15.6390  -22.5900   -6.3190 C.2     1  UNL1        0.0440
     36  C         16.6910  -22.9660   -7.1580 C.2     1  UNL1        0.0320
@<TRIPOS>BOND
     1    20    18    2
     2    23    22    2
     3    19    17    1
     4    18    17   ar
     5    18    21   ar
     6    17    14   ar
     7    22    21    1
     8    22    24    2
     9    21    12   ar
    10    14    16    2
    11    14    13   ar
    12    12    13   ar
    13    12    11    1
    14    13    15    1
    15    11    10    2
    16     5     6    1
    17     5     4    2
    18    10     3    1
    19     6     7    2
    20     4     3    1
    21     4     9    1
    22     3     2    2
    23     7     8    1
    24     9     8    2
    25     9     1    1
    26     2     1    1
    27     1    25    1
    28    25    26    1
    29    29    28    1
    30    26    28   am
    31    26    27    2
    32    28    30    1
    33    36    30    2
    34    36    35    1
    35    30    31    1
    36    35    33    2
    37    31    32    2
    38    33    32    1
    39    33    34    1
