@<TRIPOS>MOLECULE
29344_out_ligand_01.pdbqt
 31 34 0 0 0
SMALL
GASTEIGER

@<TRIPOS>ATOM
      1  C         21.2380  -22.9550   -9.9620 C.2     1  UNL1        0.0320
      2  C         20.8830  -22.2020  -11.0870 C.2     1  UNL1        0.0170
      3  C         21.8580  -21.8170  -12.0080 C.2     1  UNL1        0.0100
      4  C         23.2020  -22.1680  -11.8110 C.2     1  UNL1       -0.0300
      5  C         23.5540  -22.9060  -10.6710 C.2     1  UNL1        0.0100
      6  C         22.5800  -23.2940   -9.7490 C.2     1  UNL1        0.0170
      7  C         20.1690  -23.3480   -9.0010 C.2     1  UNL1        0.2560
      8  O         20.0880  -24.5250   -8.6710 O.2     1  UNL1       -0.2670
      9  N         19.3870  -22.3010   -8.5460 N.am    1  UNL1       -0.3230
     10  H         19.6740  -21.3700   -8.8120 H       1  UNL1        0.1690
     11  C         18.2850  -22.3760   -7.6700 C.2     1  UNL1        0.0350
     12  C         18.3890  -22.3370   -6.2800 C.2     1  UNL1        0.0300
     13  C         17.2440  -22.4230   -5.4760 C.2     1  UNL1        0.0180
     14  C         15.9720  -22.5460   -6.0510 C.2     1  UNL1        0.0480
     15  C         15.8710  -22.5960   -7.4480 C.2     1  UNL1        0.0180
     16  C         17.0160  -22.5110   -8.2480 C.2     1  UNL1        0.0300
     17  C         14.7410  -22.6600   -5.1860 C.3     1  UNL1        0.4170
     18  F         13.6790  -21.9870   -5.7080 F       1  UNL1       -0.1660
     19  F         14.3230  -23.9440   -5.0090 F       1  UNL1       -0.1660
     20  F         14.9240  -22.1540   -3.9340 F       1  UNL1       -0.1660
     21  C         24.2600  -21.7470  -12.8140 C.3     1  UNL1        0.3110
     22  N         25.2600  -22.7950  -13.0690 N.3     1  UNL1        0.0970
     23  C         26.5910  -22.2330  -13.3480 C.3     1  UNL1        0.2770
     24  C         26.6760  -21.4080  -14.6430 C.3     1  UNL1        0.0690
     25  C         25.9330  -22.0430  -15.7920 C.2     1  UNL1       -0.0490
     26  C         26.0910  -21.5370  -17.0900 C.2     1  UNL1        0.0070
     27  C         25.0350  -23.1000  -15.5600 C.2     1  UNL1       -0.0240
     28  C         25.3790  -22.0920  -18.1530 C.2     1  UNL1        0.0010
     29  C         24.5010  -23.1500  -17.9270 C.2     1  UNL1        0.0010
     30  C         24.3330  -23.6550  -16.6390 C.2     1  UNL1        0.0090
     31  C         24.8750  -23.6930  -14.1740 C.3     1  UNL1        0.3110
@<TRIPOS>BOND
     1    28    29    2
     2    28    26    1
     3    29    30    1
     4    26    25    2
     5    30    27    2
     6    25    27    1
     7    25    24    1
     8    27    31    1
     9    24    23    1
    10    31    22    1
    11    23    22    1
    12    22    21    1
    13    21     4    1
    14     3     4    2
    15     3     2    1
    16     4     5    1
    17     2     1    2
    18     5     6    2
    19     1     6    1
    20     1     7    1
    21     7     8    2
    22     7     9   am
    23    10     9    1
    24     9    11    1
    25    16    11    2
    26    16    15    1
    27    11    12    1
    28    15    14    2
    29    12    13    2
    30    14    13    1
    31    14    17    1
    32    18    17    1
    33    17    19    1
    34    17    20    1
