@<TRIPOS>MOLECULE
2935_out_ligand_01.pdbqt
 34 37 0 0 0
SMALL
GASTEIGER

@<TRIPOS>ATOM
      1  C         18.5240  -22.3270  -10.0160 C.2     1  UNL1        0.0340
      2  C         18.2910  -21.3470  -10.9900 C.2     1  UNL1        0.0170
      3  C         19.3070  -20.9780  -11.8690 C.2     1  UNL1        0.0030
      4  C         20.5620  -21.5810  -11.7740 C.2     1  UNL1        0.0300
      5  C         20.8070  -22.5390  -10.7900 C.2     1  UNL1        0.0430
      6  C         19.7910  -22.9130   -9.9090 C.2     1  UNL1        0.0470
      7  N         22.0990  -23.1240  -10.7150 N.pl3   1  UNL1       -0.2810
      8  H         22.4020  -23.7350  -11.4790 H       1  UNL1        0.1790
      9  S         23.3780  -22.3220   -9.9640 S.O2    1  UNL1        0.2630
     10  O         24.1440  -23.3450   -9.2930 O.2     1  UNL1       -0.2000
     11  O         22.8750  -21.1760   -9.2470 O.2     1  UNL1       -0.2000
     12  C         24.3540  -21.7280  -11.3280 C.2     1  UNL1        0.0800
     13  C         25.5900  -21.1180  -11.0750 C.2     1  UNL1        0.0270
     14  C         26.3790  -20.6860  -12.1400 C.2     1  UNL1        0.0320
     15  C         25.9390  -20.8910  -13.4460 C.2     1  UNL1        0.0450
     16  N         26.7390  -20.4770  -14.5190 N.am    1  UNL1       -0.3230
     17  C         24.7090  -21.5210  -13.7060 C.2     1  UNL1       -0.0080
     18  C         26.3980  -20.6630  -15.8320 C.2     1  UNL1        0.2450
     19  H         27.6310  -20.0260  -14.3530 H       1  UNL1        0.1690
     20  O         27.1210  -20.2990  -16.7550 O.2     1  UNL1       -0.2680
     21  C         25.1000  -21.3330  -16.0980 C.2     1  UNL1        0.0750
     22  C         24.3020  -21.7350  -15.0980 C.2     1  UNL1        0.0190
     23  C         23.9120  -21.9410  -12.6390 C.2     1  UNL1        0.0390
     24  C         17.4050  -22.7090   -9.1020 C.2     1  UNL1        0.2560
     25  O         16.4050  -23.2190   -9.5950 O.2     1  UNL1       -0.2670
     26  N         17.6440  -22.4770   -7.7590 N.am    1  UNL1       -0.3230
     27  H         18.5690  -22.1540   -7.5030 H       1  UNL1        0.1690
     28  C         16.7730  -22.7260   -6.6760 C.2     1  UNL1        0.0370
     29  C         17.0850  -23.5500   -5.5900 C.2     1  UNL1        0.0290
     30  C         16.1610  -23.7460   -4.5540 C.2     1  UNL1        0.0050
     31  C         14.9190  -23.1180   -4.5950 C.2     1  UNL1        0.0420
     32  C         14.6120  -22.3020   -5.6750 C.2     1  UNL1        0.1180
     33  F         13.4210  -21.6920   -5.7220 F       1  UNL1       -0.2060
     34  C         15.5220  -22.1020   -6.7110 C.2     1  UNL1        0.0710
@<TRIPOS>BOND
     1    20    18    2
     2    21    18    1
     3    21    22    2
     4    18    16   am
     5    22    17    1
     6    16    19    1
     7    16    15    1
     8    17    15    2
     9    17    23    1
    10    15    14    1
    11    23    12    2
    12    14    13    2
    13     3     4    2
    14     3     2    1
    15     4     5    1
    16     8     7    1
    17    12    13    1
    18    12     9    1
    19     2     1    2
    20     5     7    1
    21     5     6    2
    22     7     9    1
    23     1     6    1
    24     1    24    1
    25     9    10    2
    26     9    11    2
    27    25    24    2
    28    24    26   am
    29    26    27    1
    30    26    28    1
    31    34    28    2
    32    34    32    1
    33    28    29    1
    34    33    32    1
    35    32    31    2
    36    29    30    2
    37    31    30    1
