@<TRIPOS>MOLECULE
29357_out_ligand_01.pdbqt
 29 32 0 0 0
SMALL
GASTEIGER

@<TRIPOS>ATOM
      1  C         20.1190  -23.3530   -7.8840 C.2     1  UNL1        0.0320
      2  C         20.8730  -22.2070   -7.5960 C.2     1  UNL1        0.0170
      3  C         22.1520  -22.0550   -8.1410 C.2     1  UNL1        0.0100
      4  C         22.6950  -23.0450   -8.9730 C.2     1  UNL1       -0.0300
      5  C         21.9400  -24.1990   -9.2370 C.2     1  UNL1        0.0100
      6  C         20.6630  -24.3530   -8.6950 C.2     1  UNL1        0.0170
      7  C         18.7490  -23.5520   -7.3220 C.2     1  UNL1        0.2560
      8  O         18.1630  -24.5970   -7.5650 O.2     1  UNL1       -0.2670
      9  N         18.2450  -22.4660   -6.6350 N.am    1  UNL1       -0.3180
     10  H         18.6930  -21.5710   -6.7980 H       1  UNL1        0.1690
     11  C         17.0130  -22.3940   -5.9410 C.2     1  UNL1        0.1130
     12  C         15.7430  -22.3820   -6.5230 C.2     1  UNL1        0.1460
     13  F         15.5650  -22.5290   -7.8410 F       1  UNL1       -0.2040
     14  C         14.5910  -22.3020   -5.7330 C.2     1  UNL1        0.0450
     15  C         14.6870  -22.2480   -4.3440 C.2     1  UNL1        0.0060
     16  C         15.9420  -22.2900   -3.7430 C.2     1  UNL1        0.0450
     17  C         17.0830  -22.3680   -4.5420 C.2     1  UNL1        0.1460
     18  F         18.2850  -22.4120   -3.9430 F       1  UNL1       -0.2040
     19  C         24.0890  -22.8930   -9.5480 C.3     1  UNL1        0.3110
     20  N         24.1400  -22.0360  -10.7420 N.3     1  UNL1        0.0970
     21  C         23.8930  -22.8320  -11.9540 C.3     1  UNL1        0.2770
     22  C         23.7420  -21.9230  -13.1800 C.3     1  UNL1        0.0690
     23  C         24.8550  -20.9140  -13.2900 C.2     1  UNL1       -0.0490
     24  C         25.0730  -20.2320  -14.4950 C.2     1  UNL1        0.0070
     25  C         25.6380  -20.6110  -12.1630 C.2     1  UNL1       -0.0240
     26  C         26.0800  -19.2710  -14.5890 C.2     1  UNL1        0.0010
     27  C         26.8700  -18.9810  -13.4780 C.2     1  UNL1        0.0010
     28  C         26.6520  -19.6480  -12.2720 C.2     1  UNL1        0.0090
     29  C         25.4450  -21.3540  -10.8550 C.3     1  UNL1        0.3110
@<TRIPOS>BOND
     1    26    24    1
     2    26    27    2
     3    24    23    2
     4    27    28    1
     5    23    22    1
     6    23    25    1
     7    22    21    1
     8    28    25    2
     9    25    29    1
    10    21    20    1
    11    29    20    1
    12    20    19    1
    13    19     4    1
    14     5     4    2
    15     5     6    1
    16     4     3    1
    17     6     1    2
    18     3     2    2
    19     1     2    1
    20     1     7    1
    21    13    12    1
    22     8     7    2
    23     7     9   am
    24    10     9    1
    25     9    11    1
    26    12    11    2
    27    12    14    1
    28    11    17    1
    29    14    15    2
    30    17    18    1
    31    17    16    2
    32    15    16    1
