@<TRIPOS>MOLECULE
29365_out_ligand_01.pdbqt
 34 36 0 0 0
SMALL
GASTEIGER

@<TRIPOS>ATOM
      1  C         19.1950  -23.2610   -7.6440 C.2     1  UNL1       -0.0130
      2  C         20.1520  -22.3480   -7.1680 C.2     1  UNL1        0.0110
      3  C         19.8040  -21.3580   -6.2470 C.2     1  UNL1        0.0010
      4  C         18.4960  -21.2620   -5.7810 C.2     1  UNL1        0.0020
      5  C         17.5310  -22.1590   -6.2370 C.2     1  UNL1        0.0230
      6  C         17.8720  -23.1560   -7.1630 C.2     1  UNL1        0.0530
      7  C         16.8500  -24.0630   -7.6040 C.1     1  UNL1        0.1000
      8  N         16.0430  -24.8090   -7.9780 N.1     1  UNL1       -0.1910
      9  C         19.5630  -24.3460   -8.6440 C.3     1  UNL1        0.2160
     10  O         19.8670  -23.7930   -9.9230 O.2     1  UNL1       -0.3440
     11  C         21.1240  -23.2800  -10.1210 C.2     1  UNL1        0.1020
     12  C         22.2670  -23.6920   -9.4290 C.2     1  UNL1        0.0400
     13  C         23.5050  -23.1080   -9.7040 C.2     1  UNL1        0.0140
     14  C         23.6130  -22.1020  -10.6660 C.2     1  UNL1       -0.0330
     15  C         22.4750  -21.6990  -11.3760 C.2     1  UNL1        0.0510
     16  C         21.2300  -22.2800  -11.1090 C.2     1  UNL1        0.1020
     17  C         24.9040  -21.4740  -10.9620 C.2     1  UNL1        0.0140
     18  C         25.6050  -21.5480  -12.1070 C.2     1  UNL1        0.0330
     19  C         25.3070  -22.3100  -13.3170 C.ar    1  UNL1        0.0750
     20  N         25.7440  -23.6200  -13.3570 N.ar    1  UNL1       -0.3060
     21  C         25.5680  -24.4690  -14.4160 C.ar    1  UNL1        0.3270
     22  H         26.2310  -24.0220  -12.5620 H       1  UNL1        0.1710
     23  O         25.9810  -25.6220  -14.4030 O.2     1  UNL1       -0.2470
     24  N         24.9070  -23.9440  -15.4920 N.ar    1  UNL1       -0.2730
     25  C         24.4600  -22.6500  -15.5960 C.ar    1  UNL1        0.2840
     26  H         24.7760  -24.5510  -16.2890 H       1  UNL1        0.1730
     27  O         23.9180  -22.2420  -16.6170 O.2     1  UNL1       -0.2650
     28  C         24.6970  -21.8210  -14.4100 C.ar    1  UNL1        0.1970
     29  N         24.2190  -20.4800  -14.4260 N.pl3   1  UNL1       -0.1070
     30  O         25.0590  -19.5850  -14.5860 O.2     1  UNL1       -0.5310
     31  O         22.9950  -20.3200  -14.3340 O.2     1  UNL1       -0.5310
     32  O         20.0610  -21.9420  -11.7460 O.2     1  UNL1       -0.3490
     33  C         19.4460  -20.7020  -11.4070 C.3     1  UNL1        0.1710
     34  C         17.9430  -20.9070  -11.4230 C.3     1  UNL1        0.0340
@<TRIPOS>BOND
     1    27    25    2
     2    26    24    1
     3    25    24   ar
     4    25    28   ar
     5    24    21   ar
     6    30    29    2
     7    29    28    1
     8    29    31    2
     9    21    23    2
    10    21    20   ar
    11    28    19   ar
    12    20    19   ar
    13    20    22    1
    14    19    18    1
    15    18    17    2
    16    32    33    1
    17    32    16    1
    18    34    33    1
    19    15    16    1
    20    15    14    2
    21    16    11    2
    22    17    14    1
    23    14    13    1
    24    11    10    1
    25    11    12    1
    26    10     9    1
    27    13    12    2
    28     9     1    1
    29     8     7    3
    30     1     2    2
    31     1     6    1
    32     7     6    1
    33     2     3    1
    34     6     5    2
    35     3     4    2
    36     5     4    1
