@<TRIPOS>MOLECULE
2937_out_ligand_01.pdbqt
 26 29 0 0 0
SMALL
GASTEIGER

@<TRIPOS>ATOM
      1  C         21.9670  -22.1270  -11.2670 C.2     1  UNL1        0.0400
      2  C         21.3820  -21.2210  -12.1590 C.2     1  UNL1        0.0180
      3  C         20.0160  -20.9900  -12.1040 C.2     1  UNL1        0.0030
      4  C         19.2330  -21.6580  -11.1590 C.2     1  UNL1        0.0300
      5  C         19.7840  -22.5850  -10.2550 C.2     1  UNL1        0.0440
      6  C         21.1800  -22.8220  -10.3160 C.2     1  UNL1       -0.0150
      7  C         21.8430  -23.7870   -9.3620 C.3     1  UNL1        0.0430
      8  C         20.8500  -24.7690   -8.7770 C.3     1  UNL1        0.0250
      9  C         19.6630  -24.0080   -8.2220 C.3     1  UNL1        0.1330
     10  N         18.9670  -23.2350   -9.2560 N.am    1  UNL1       -0.3120
     11  C         17.5560  -23.1520   -9.2500 C.2     1  UNL1        0.2790
     12  O         16.8850  -22.9660  -10.2650 O.2     1  UNL1       -0.2650
     13  C         16.8570  -23.3000   -7.9650 C.2     1  UNL1        0.1490
     14  C         15.8500  -24.2080   -7.7220 C.2     1  UNL1        0.1810
     15  O         15.4050  -24.0370   -6.4510 O.2     1  UNL1       -0.3050
     16  C         16.1620  -23.0060   -5.9610 C.2     1  UNL1        0.1490
     17  N         17.0390  -22.5290   -6.8250 N.2     1  UNL1       -0.2210
     18  C         16.0140  -22.4350   -4.5100 C.3     1  UNL1        0.0630
     19  C         17.3470  -22.0230   -3.8460 C.3     1  UNL1        0.0130
     20  C         17.3810  -23.3970   -3.1530 C.3     1  UNL1        0.0020
     21  C         15.8640  -23.5020   -3.4020 C.3     1  UNL1        0.0130
     22  C         23.4440  -22.3060  -11.3350 C.2     1  UNL1        0.2490
     23  N         23.8900  -23.3240  -12.1320 N.am    1  UNL1       -0.3660
     24  H         24.8820  -23.5200  -12.1080 H       1  UNL1        0.1590
     25  H         23.2710  -24.0340  -12.4970 H       1  UNL1        0.1590
     26  O         24.2210  -21.6000  -10.7080 O.2     1  UNL1       -0.2680
@<TRIPOS>BOND
     1    25    23    1
     2     2     3    1
     3     2     1    2
     4    23    24    1
     5    23    22   am
     6     3     4    2
     7    22     1    1
     8    22    26    2
     9     1     6    1
    10     4     5    1
    11     6     5    2
    12     6     7    1
    13    12    11    2
    14     5    10    1
    15     7     8    1
    16    10    11   am
    17    10     9    1
    18    11    13    1
    19     8     9    1
    20    13    14    2
    21    13    17    1
    22    14    15    1
    23    17    16    2
    24    15    16    1
    25    16    18    1
    26    18    19    1
    27    18    21    1
    28    19    20    1
    29    21    20    1
