@<TRIPOS>MOLECULE
29391_out_ligand_01.pdbqt
 36 38 0 0 0
SMALL
GASTEIGER

@<TRIPOS>ATOM
      1  C         23.3280  -22.9860   -9.8240 C.2     1  UNL1        0.1130
      2  C         24.2380  -23.7740   -9.0680 C.1     1  UNL1        0.1050
      3  N         24.9450  -24.4120   -8.4030 N.1     1  UNL1       -0.1910
      4  C         22.0040  -23.0500   -9.5760 C.2     1  UNL1        0.0400
      5  C         23.9170  -22.1460  -10.9090 C.2     1  UNL1        0.2660
      6  N         23.9640  -22.7870  -12.1330 N.am    1  UNL1       -0.3220
      7  H         23.6260  -23.7400  -12.1670 H       1  UNL1        0.1690
      8  O         24.2740  -21.0030  -10.6560 O.2     1  UNL1       -0.2670
      9  C         24.4730  -22.2810  -13.3460 C.2     1  UNL1        0.0350
     10  C         23.7470  -21.4870  -14.2310 C.2     1  UNL1        0.0320
     11  C         24.3380  -21.0290  -15.4150 C.2     1  UNL1        0.0390
     12  C         25.6550  -21.3590  -15.7350 C.2     1  UNL1        0.0680
     13  C         26.3870  -22.1470  -14.8510 C.2     1  UNL1        0.0390
     14  C         25.7990  -22.6050  -13.6650 C.2     1  UNL1        0.0320
     15  O         26.1060  -20.8430  -16.9180 O.2     1  UNL1       -0.3560
     16  C         25.1260  -20.3310  -17.8100 C.3     1  UNL1        0.2100
     17  C         20.9390  -22.3650  -10.3210 C.2     1  UNL1       -0.0320
     18  C         21.2180  -21.6460  -11.4880 C.2     1  UNL1        0.0110
     19  C         20.1880  -21.0170  -12.1850 C.2     1  UNL1        0.0040
     20  C         18.8770  -21.1100  -11.7210 C.2     1  UNL1        0.0370
     21  C         18.5820  -21.8270  -10.5600 C.2     1  UNL1        0.0700
     22  C         19.6140  -22.4650   -9.8670 C.2     1  UNL1        0.0480
     23  O         17.2530  -21.8560  -10.2350 O.2     1  UNL1       -0.3420
     24  C         16.6460  -23.1260  -10.0300 C.3     1  UNL1        0.2780
     25  C         16.3040  -23.4580   -8.5730 C.2     1  UNL1        0.2460
     26  O         15.8520  -24.5590   -8.2800 O.2     1  UNL1       -0.2710
     27  N         16.5680  -22.4050   -7.7170 N.am    1  UNL1       -0.3250
     28  H         16.8600  -21.5530   -8.1810 H       1  UNL1        0.1690
     29  C         16.3980  -22.3450   -6.3130 C.2     1  UNL1        0.0410
     30  C         15.1520  -22.5630   -5.7160 C.2     1  UNL1        0.0300
     31  C         15.0050  -22.5140   -4.3320 C.2     1  UNL1        0.0030
     32  C         16.1030  -22.2490   -3.5230 C.2     1  UNL1        0.0070
     33  C         17.3690  -22.0280   -4.0860 C.2     1  UNL1       -0.0540
     34  C         18.5190  -21.7480   -3.1540 C.3     1  UNL1        0.0490
     35  C         17.5250  -22.0680   -5.4950 C.2     1  UNL1       -0.0290
     36  C         18.8760  -21.8140   -6.1230 C.3     1  UNL1        0.0510
@<TRIPOS>BOND
     1    16    15    1
     2    15    12    1
     3    12    11    2
     4    12    13    1
     5    11    10    1
     6    13    14    2
     7    10     9    2
     8    14     9    1
     9     9     6    1
    10    19    20    2
    11    19    18    1
    12     7     6    1
    13     6     5   am
    14    20    21    1
    15    18    17    2
    16     5     8    2
    17     5     1    1
    18    21    23    1
    19    21    22    2
    20    17    22    1
    21    17     4    1
    22    23    24    1
    23    24    25    1
    24     1     4    2
    25     1     2    1
    26     2     3    3
    27    25    26    2
    28    25    27   am
    29    28    27    1
    30    27    29    1
    31    29    30    2
    32    29    35    1
    33    36    35    1
    34    30    31    1
    35    35    33    2
    36    31    32    2
    37    33    32    1
    38    33    34    1
