@<TRIPOS>MOLECULE
29417_out_ligand_01.pdbqt
 36 40 0 0 0
SMALL
GASTEIGER

@<TRIPOS>ATOM
      1  C         18.4850  -22.0510  -10.4620 C.2     1  UNL1        0.0340
      2  C         17.3570  -21.5270  -11.1110 C.2     1  UNL1        0.0170
      3  C         16.0740  -21.7750  -10.6160 C.2     1  UNL1        0.0030
      4  C         15.9080  -22.5580   -9.4750 C.2     1  UNL1        0.0250
      5  C         17.0320  -23.1020   -8.8470 C.2     1  UNL1        0.0810
      6  C         18.3220  -22.8550   -9.3290 C.2     1  UNL1        0.0420
      7  C         19.8330  -21.7570  -11.0270 C.2     1  UNL1        0.2700
      8  N         20.8870  -22.0230  -10.1740 N.am    1  UNL1       -0.1520
      9  H         20.7040  -22.2960   -9.2210 H       1  UNL1        0.1870
     10  O         19.8880  -21.2940  -12.1590 O.2     1  UNL1       -0.2670
     11  C         22.1920  -21.8530  -10.5720 C.ar    1  UNL1        0.7270
     12  N         23.2300  -21.4070   -9.9070 N.ar    1  UNL1        0.0440
     13  N         24.3180  -21.4150  -10.7510 N.ar    1  UNL1       -0.1140
     14  C         23.9330  -21.8620  -11.9310 C.ar    1  UNL1        0.1750
     15  N         22.5930  -22.1490  -11.8450 N.ar    1  UNL1       -0.1690
     16  H         22.0140  -22.5090  -12.5840 H       1  UNL1        0.1860
     17  C         24.7680  -22.0300  -13.1220 C.2     1  UNL1        0.0120
     18  C         26.1450  -22.2770  -13.0530 C.2     1  UNL1        0.0160
     19  C         26.9060  -22.4320  -14.2200 C.2     1  UNL1        0.0070
     20  C         26.3010  -22.3520  -15.4790 C.2     1  UNL1       -0.0620
     21  C         27.1210  -22.4850  -16.7290 C.3     1  UNL1        0.0480
     22  C         24.9300  -22.0910  -15.5550 C.2     1  UNL1        0.0070
     23  C         24.1740  -21.9380  -14.3890 C.2     1  UNL1        0.0160
     24  S         16.8070  -24.1060   -7.3890 S.O2    1  UNL1        0.2650
     25  O         15.8270  -25.1220   -7.7270 O.2     1  UNL1       -0.2000
     26  O         18.1420  -24.4770   -6.9720 O.2     1  UNL1       -0.2000
     27  N         16.0970  -22.9930   -6.2810 N.pl3   1  UNL1       -0.2710
     28  C         14.8280  -23.4420   -5.6370 C.3     1  UNL1        0.1420
     29  C         15.1070  -24.2180   -4.3600 C.3     1  UNL1        0.0260
     30  C         15.8490  -23.3430   -3.3620 C.3     1  UNL1        0.0420
     31  C         16.9560  -22.5410   -3.9930 C.2     1  UNL1       -0.0310
     32  C         17.8880  -21.9080   -3.1530 C.2     1  UNL1        0.0090
     33  C         17.0350  -22.3440   -5.3830 C.2     1  UNL1        0.0510
     34  C         18.8850  -21.0910   -3.6840 C.2     1  UNL1        0.0010
     35  C         18.9500  -20.8830   -5.0580 C.2     1  UNL1        0.0020
     36  C         18.0240  -21.5010   -5.9010 C.2     1  UNL1        0.0310
@<TRIPOS>BOND
     1    21    20    1
     2    22    20    2
     3    22    23    1
     4    20    19    1
     5    23    17    2
     6    19    18    2
     7    17    18    1
     8    17    14    1
     9    16    15    1
    10    10     7    2
    11    14    15   ar
    12    14    13   ar
    13    15    11   ar
    14     2     3    1
    15     2     1    2
    16     7     1    1
    17     7     8   am
    18    13    12   ar
    19     3     4    2
    20    11     8    1
    21    11    12   ar
    22     1     6    1
    23     8     9    1
    24     4     5    1
    25     6     5    2
    26     5    24    1
    27    25    24    2
    28    24    26    2
    29    24    27    1
    30    27    28    1
    31    27    33    1
    32    36    33    1
    33    36    35    2
    34    28    29    1
    35    33    31    2
    36    35    34    1
    37    29    30    1
    38    31    30    1
    39    31    32    1
    40    34    32    2
