@<TRIPOS>MOLECULE
2941_out_ligand_01.pdbqt
 33 38 0 0 0
SMALL
GASTEIGER

@<TRIPOS>ATOM
      1  C         22.7640  -22.7460  -10.7140 C.ar    1  UNL1        0.1150
      2  N         21.5430  -22.2760  -11.0510 N.ar    1  UNL1       -0.2250
      3  C         21.4090  -21.5940  -12.1960 C.ar    1  UNL1        0.1330
      4  N         22.4380  -21.3840  -13.0280 N.ar    1  UNL1       -0.2140
      5  C         23.6490  -21.8900  -12.7050 C.ar    1  UNL1        0.1540
      6  C         23.8690  -22.5720  -11.5270 C.ar    1  UNL1        0.1140
      7  C         25.2330  -23.0240  -11.2280 C.ar    1  UNL1        0.2660
      8  O         25.5900  -23.4360  -10.1330 O.2     1  UNL1       -0.2670
      9  N         26.1390  -22.9080  -12.2440 N.ar    1  UNL1       -0.2740
     10  C         25.9920  -22.1420  -13.3640 C.ar    1  UNL1        0.3310
     11  O         26.9820  -21.8920  -14.0500 O.2     1  UNL1       -0.2460
     12  N         24.7130  -21.6860  -13.6300 N.ar    1  UNL1       -0.2780
     13  H         27.0910  -23.1640  -12.0220 H       1  UNL1        0.1730
     14  S         22.7480  -23.6820   -9.1970 S.3     1  UNL1       -0.1040
     15  C         20.9500  -23.6690   -8.7670 C.3     1  UNL1        0.0550
     16  C         20.4490  -25.0780   -8.4460 C.3     1  UNL1        0.0220
     17  C         20.6330  -22.6470   -7.6630 C.3     1  UNL1        0.0740
     18  C         19.1530  -22.5530   -7.3810 C.2     1  UNL1        0.0360
     19  C         18.2350  -22.5190   -8.4230 C.2     1  UNL1        0.0280
     20  C         16.8810  -22.4490   -8.1160 C.2     1  UNL1        0.0160
     21  C         16.4720  -22.4180   -6.7780 C.2     1  UNL1       -0.0070
     22  C         15.1140  -22.3460   -6.4200 C.2     1  UNL1        0.0140
     23  C         17.4680  -22.4610   -5.7830 C.2     1  UNL1        0.0670
     24  C         14.7410  -22.3190   -5.0770 C.2     1  UNL1        0.0010
     25  C         15.7200  -22.3630   -4.0920 C.2     1  UNL1        0.0020
     26  C         17.0690  -22.4340   -4.4540 C.2     1  UNL1        0.0320
     27  N         18.7790  -22.5290   -6.0780 N.2     1  UNL1       -0.2530
     28  C         20.0520  -21.0420  -12.5480 C.3     1  UNL1        0.0570
     29  C         18.7970  -21.6300  -11.9470 C.3     1  UNL1        0.0130
     30  C         19.2640  -20.2720  -11.5130 C.3     1  UNL1        0.0130
     31  C         24.4640  -20.8870  -14.8140 C.3     1  UNL1        0.0960
     32  C         24.4700  -21.4810  -16.2030 C.3     1  UNL1        0.0280
     33  C         25.5590  -20.5420  -15.7960 C.3     1  UNL1        0.0280
@<TRIPOS>BOND
     1    32    33    1
     2    32    31    1
     3    33    31    1
     4    31    12    1
     5    11    10    2
     6    12    10   ar
     7    12     5   ar
     8    10     9   ar
     9     4     5   ar
    10     4     3   ar
    11     5     6   ar
    12    28     3    1
    13    28    29    1
    14    28    30    1
    15     9    13    1
    16     9     7   ar
    17     3     2   ar
    18    29    30    1
    19     6     7   ar
    20     6     1   ar
    21     7     8    2
    22     2     1   ar
    23     1    14    1
    24    14    15    1
    25    15    16    1
    26    15    17    1
    27    19    20    1
    28    19    18    2
    29    20    21    2
    30    17    18    1
    31    18    27    1
    32    21    22    1
    33    21    23    1
    34    22    24    2
    35    27    23    2
    36    23    26    1
    37    24    25    1
    38    26    25    2
