@<TRIPOS>MOLECULE
29424_out_ligand_01.pdbqt
 40 44 0 0 0
SMALL
GASTEIGER

@<TRIPOS>ATOM
      1  C         20.6810  -21.8260  -11.5510 C.2     1  UNL1        0.0320
      2  C         21.3380  -22.5910  -10.5770 C.2     1  UNL1        0.0190
      3  C         22.6710  -22.9650  -10.7540 C.2     1  UNL1        0.0310
      4  C         23.3560  -22.5610  -11.9000 C.2     1  UNL1        0.0420
      5  C         22.7150  -21.7840  -12.8650 C.2     1  UNL1        0.0310
      6  C         21.3760  -21.4160  -12.6950 C.2     1  UNL1        0.0190
      7  C         19.2620  -21.4510  -11.3160 C.2     1  UNL1        0.2510
      8  N         18.4040  -22.4810  -11.0020 N.am    1  UNL1       -0.3530
      9  H         18.7680  -23.3980  -10.7820 H       1  UNL1        0.1630
     10  O         18.9190  -20.2750  -11.3690 O.2     1  UNL1       -0.2680
     11  C         17.0310  -22.2020  -10.6530 C.3     1  UNL1        0.1610
     12  C         16.7250  -22.6690   -9.2550 C.2     1  UNL1       -0.0400
     13  C         15.7650  -23.6620   -9.0270 C.2     1  UNL1        0.0110
     14  C         15.4760  -24.1120   -7.7330 C.2     1  UNL1        0.0310
     15  C         16.1900  -23.5430   -6.6730 C.ar    1  UNL1        0.0430
     16  N         16.1060  -23.7790   -5.3220 N.ar    1  UNL1       -0.3590
     17  C         17.1710  -22.5720   -6.8570 C.ar    1  UNL1       -0.0010
     18  C         17.0020  -22.9970   -4.6370 C.ar    1  UNL1        0.0120
     19  H         15.4670  -24.4380   -4.9000 H       1  UNL1        0.1660
     20  C         17.0940  -23.0660   -3.1550 C.3     1  UNL1        0.0680
     21  C         17.6950  -22.2360   -5.5660 C.ar    1  UNL1       -0.0270
     22  C         18.7620  -21.2410   -5.2790 C.3     1  UNL1        0.0510
     23  C         17.4440  -22.1330   -8.1690 C.2     1  UNL1        0.0230
     24  N         24.7300  -22.8980  -12.0430 N.pl3   1  UNL1       -0.2810
     25  H         25.0260  -23.8310  -11.7610 H       1  UNL1        0.1790
     26  S         25.9050  -21.7300  -11.7080 S.O2    1  UNL1        0.2630
     27  O         27.1170  -22.3740  -11.2460 O.2     1  UNL1       -0.2000
     28  O         25.2420  -20.7110  -10.9170 O.2     1  UNL1       -0.2000
     29  C         26.2320  -21.0260  -13.3130 C.2     1  UNL1        0.0820
     30  C         26.7470  -21.8550  -14.3420 C.2     1  UNL1        0.0280
     31  C         26.9960  -21.3340  -15.6160 C.2     1  UNL1        0.0330
     32  C         26.7340  -19.9960  -15.7980 C.ar    1  UNL1        0.0630
     33  N         26.8790  -19.2110  -16.9360 N.ar    1  UNL1       -0.3070
     34  C         26.2520  -19.1820  -14.7740 C.ar    1  UNL1        0.0640
     35  C         26.4890  -17.8980  -16.6320 C.ar    1  UNL1        0.3250
     36  H         27.2080  -19.5000  -17.8430 H       1  UNL1        0.1700
     37  O         26.4820  -16.9450  -17.3890 O.2     1  UNL1       -0.2470
     38  N         26.1060  -17.8980  -15.2840 N.ar    1  UNL1       -0.3060
     39  H         25.7880  -17.0750  -14.7970 H       1  UNL1        0.1700
     40  C         25.9910  -19.6600  -13.5130 C.2     1  UNL1        0.0570
@<TRIPOS>BOND
     1    36    33    1
     2    37    35    2
     3    33    35   ar
     4    33    32   ar
     5    35    38   ar
     6    32    31    2
     7    32    34   ar
     8    31    30    1
     9    38    39    1
    10    38    34   ar
    11    34    40    2
    12    30    29    2
    13    40    29    1
    14    29    26    1
    15     5     6    1
    16     5     4    2
    17     6     1    2
    18    24     4    1
    19    24    25    1
    20    24    26    1
    21     4     3    1
    22    26    27    2
    23    26    28    2
    24     1     7    1
    25     1     2    1
    26    10     7    2
    27     7     8   am
    28     8     9    1
    29     8    11    1
    30     3     2    2
    31    11    12    1
    32    12    13    2
    33    12    23    1
    34    13    14    1
    35    23    17    2
    36    14    15    2
    37    17    15   ar
    38    17    21   ar
    39    15    16   ar
    40    21    22    1
    41    21    18   ar
    42    16    19    1
    43    16    18   ar
    44    18    20    1
