@<TRIPOS>MOLECULE
29428_out_ligand_01.pdbqt
 35 39 0 0 0
SMALL
GASTEIGER

@<TRIPOS>ATOM
      1  N         23.1490  -22.3450  -12.0420 N.am    1  UNL1       -0.2430
      2  C         22.2950  -21.5840  -12.8110 C.2     1  UNL1        0.2660
      3  O         22.4340  -21.0500  -13.8960 O.2     1  UNL1       -0.2670
      4  C         21.0050  -21.5710  -12.1280 C.2     1  UNL1        0.0480
      5  C         19.8240  -20.9340  -12.4600 C.2     1  UNL1        0.0190
      6  C         18.7250  -21.1290  -11.6140 C.2     1  UNL1        0.0180
      7  C         18.8310  -21.9470  -10.4610 C.2     1  UNL1        0.0330
      8  C         20.0410  -22.5940  -10.1650 C.2     1  UNL1        0.0350
      9  C         21.1070  -22.3790  -11.0170 C.2     1  UNL1        0.0490
     10  C         22.4710  -22.8980  -10.9730 C.2     1  UNL1        0.2660
     11  O         22.8370  -23.6530  -10.0900 O.2     1  UNL1       -0.2670
     12  C         17.6710  -22.1800   -9.5480 C.2     1  UNL1        0.2560
     13  O         16.5800  -21.7370   -9.8840 O.2     1  UNL1       -0.2670
     14  N         17.9550  -22.9130   -8.4150 N.am    1  UNL1       -0.3220
     15  H         18.8950  -23.2940   -8.3300 H       1  UNL1        0.1690
     16  C         17.0920  -23.2560   -7.3410 C.2     1  UNL1        0.0490
     17  C         16.0270  -24.1510   -7.5040 C.2     1  UNL1        0.0300
     18  C         15.1870  -24.4690   -6.4340 C.2     1  UNL1        0.0020
     19  C         15.3950  -23.8920   -5.1890 C.2     1  UNL1        0.0010
     20  C         16.4490  -22.9960   -5.0060 C.2     1  UNL1        0.0170
     21  C         17.3150  -22.6660   -6.0670 C.2     1  UNL1        0.0380
     22  C         18.4230  -21.7220   -5.8480 C.2     1  UNL1        0.1630
     23  N         19.5990  -21.7310   -6.4570 N.2     1  UNL1       -0.1300
     24  N         20.3670  -20.7090   -5.9580 N.2     1  UNL1       -0.1430
     25  C         19.6540  -20.0910   -5.0490 C.2     1  UNL1        0.2330
     26  N         18.4350  -20.6880   -4.9440 N.pl3   1  UNL1       -0.3320
     27  H         17.6970  -20.4350   -4.3050 H       1  UNL1        0.1680
     28  C         24.5000  -22.6500  -12.3770 C.2     1  UNL1        0.0520
     29  C         25.6130  -21.9930  -11.8080 C.2     1  UNL1       -0.0350
     30  C         26.9080  -22.3120  -12.2620 C.2     1  UNL1        0.0090
     31  C         25.5300  -20.9930  -10.6860 C.3     1  UNL1        0.0500
     32  C         27.1210  -23.2980  -13.2230 C.2     1  UNL1        0.0070
     33  C         26.0390  -23.9850  -13.7640 C.2     1  UNL1       -0.0600
     34  C         26.2510  -25.0830  -14.7630 C.3     1  UNL1        0.0480
     35  C         24.7450  -23.6660  -13.3260 C.2     1  UNL1        0.0370
@<TRIPOS>BOND
     1    34    33    1
     2     3     2    2
     3    33    35    1
     4    33    32    2
     5    35    28    2
     6    32    30    1
     7     2     4    1
     8     2     1   am
     9     5     4    2
    10     5     6    1
    11    28     1    1
    12    28    29    1
    13    30    29    2
    14     4     9    1
    15     1    10   am
    16    29    31    1
    17     6     7    2
    18     9    10    1
    19     9     8    2
    20    10    11    2
    21     7     8    1
    22     7    12    1
    23    13    12    2
    24    12    14   am
    25    14    15    1
    26    14    16    1
    27    17    16    2
    28    17    18    1
    29    16    21    1
    30    23    24    1
    31    23    22    2
    32    18    19    2
    33    21    22    1
    34    21    20    2
    35    24    25    2
    36    22    26    1
    37    19    20    1
    38    25    26    1
    39    26    27    1
