@<TRIPOS>MOLECULE
29429_out_ligand_01.pdbqt
 34 38 0 0 0
SMALL
GASTEIGER

@<TRIPOS>ATOM
      1  C         22.6910  -23.1760   -8.9740 C.2     1  UNL1        0.0340
      2  C         21.7320  -24.1780   -9.1170 C.2     1  UNL1        0.0300
      3  C         20.4740  -24.0560   -8.5070 C.2     1  UNL1        0.0170
      4  C         20.1500  -22.9290   -7.7420 C.2     1  UNL1        0.0100
      5  C         21.1230  -21.9300   -7.6000 C.2     1  UNL1        0.0170
      6  C         22.3770  -22.0510   -8.2090 C.2     1  UNL1        0.0300
      7  N         23.9720  -23.2230   -9.5540 N.am    1  UNL1       -0.3250
      8  C         24.3110  -23.0980  -10.8920 C.2     1  UNL1        0.2530
      9  O         23.5310  -22.9640  -11.8320 O.2     1  UNL1       -0.2700
     10  H         24.7570  -23.2870   -8.9120 H       1  UNL1        0.1690
     11  C         25.8290  -23.2430  -11.1240 C.3     1  UNL1        0.2390
     12  C         26.1360  -23.8740  -12.4740 C.3     1  UNL1        0.1740
     13  N         25.8720  -22.9510  -13.5880 N.am    1  UNL1       -0.3130
     14  C         25.4010  -23.4010  -14.8280 C.2     1  UNL1        0.2200
     15  C         26.2160  -21.5790  -13.3100 C.2     1  UNL1        0.0700
     16  C         25.3080  -24.9010  -15.0110 C.3     1  UNL1        0.1170
     17  O         25.0510  -22.6860  -15.7660 O.2     1  UNL1       -0.2730
     18  C         26.2500  -20.5800  -14.2940 C.2     1  UNL1        0.0330
     19  C         26.5810  -21.2050  -12.0010 C.2     1  UNL1        0.0970
     20  C         26.6380  -19.2690  -13.9890 C.2     1  UNL1        0.0020
     21  C         27.0100  -18.9280  -12.6940 C.2     1  UNL1        0.0030
     22  C         26.9850  -19.8980  -11.7000 C.2     1  UNL1        0.0390
     23  O         26.5760  -22.0490  -10.9160 O.2     1  UNL1       -0.3330
     24  C         18.8470  -22.7550   -7.0890 C.ar    1  UNL1        0.1390
     25  N         17.6890  -22.5970   -7.7100 N.ar    1  UNL1       -0.2280
     26  C         16.7360  -22.4760   -6.7300 C.ar    1  UNL1        0.0880
     27  C         15.3530  -22.2880   -6.8450 C.2     1  UNL1        0.0760
     28  C         17.3130  -22.5670   -5.4700 C.ar    1  UNL1        0.0630
     29  C         14.6110  -22.1990   -5.6680 C.2     1  UNL1        0.1180
     30  F         13.2860  -22.0180   -5.7470 F       1  UNL1       -0.2060
     31  C         15.2050  -22.2950   -4.4110 C.2     1  UNL1        0.0440
     32  C         16.5850  -22.4820   -4.2810 C.2     1  UNL1        0.0350
     33  N         18.6480  -22.7460   -5.7270 N.ar    1  UNL1       -0.3380
     34  H         19.3660  -22.8610   -5.0280 H       1  UNL1        0.1670
@<TRIPOS>BOND
     1    17    14    2
     2    16    14    1
     3    14    13   am
     4    18    20    1
     5    18    15    2
     6    20    21    2
     7    13    15    1
     8    13    12    1
     9    15    19    1
    10    21    22    1
    11    12    11    1
    12    19    22    2
    13    19    23    1
    14     9     8    2
    15    11    23    1
    16    11     8    1
    17     8     7   am
    18     7     1    1
    19     7    10    1
    20     2     1    2
    21     2     3    1
    22     1     6    1
    23     3     4    2
    24     6     5    2
    25     4     5    1
    26     4    24    1
    27    25    24   ar
    28    25    26   ar
    29    24    33   ar
    30    27    26    2
    31    27    29    1
    32    26    28   ar
    33    30    29    1
    34    33    28   ar
    35    33    34    1
    36    29    31    2
    37    28    32    2
    38    31    32    1
