@<TRIPOS>MOLECULE
29439_out_ligand_01.pdbqt
 27 29 0 0 0
SMALL
GASTEIGER

@<TRIPOS>ATOM
      1  C         17.4670  -22.6210  -10.2260 C.3     1  UNL1        0.2500
      2  C         17.0090  -21.5900  -11.2660 C.3     1  UNL1        0.0480
      3  C         18.9930  -22.6590  -10.1790 C.2     1  UNL1       -0.0260
      4  C         19.7400  -21.5890  -10.6990 C.2     1  UNL1        0.0110
      5  C         21.1360  -21.6060  -10.6520 C.2     1  UNL1        0.0260
      6  C         21.7930  -22.7030  -10.0910 C.2     1  UNL1        0.0790
      7  C         21.0690  -23.7710   -9.5560 C.2     1  UNL1        0.0260
      8  C         19.6740  -23.7490   -9.6070 C.2     1  UNL1        0.0110
      9  S         23.5660  -22.7300  -10.0080 S.O2    1  UNL1        0.2580
     10  O         23.9470  -23.6870   -8.9940 O.2     1  UNL1       -0.2010
     11  O         24.0420  -21.3640   -9.9870 O.2     1  UNL1       -0.2010
     12  N         23.9880  -23.4050  -11.4820 N.3     1  UNL1       -0.3200
     13  C         24.2350  -22.5520  -12.6330 C.3     1  UNL1        0.1590
     14  H         23.6500  -24.3560  -11.6250 H       1  UNL1        0.1710
     15  N         16.9490  -22.3530   -8.8800 N.3     1  UNL1        0.1010
     16  H         17.1260  -21.3740   -8.6680 H       1  UNL1        0.3170
     17  C         17.5140  -23.1710   -7.8070 C.3     1  UNL1        0.2560
     18  C         16.3850  -23.9530   -7.0890 C.3     1  UNL1        0.0540
     19  C         15.9270  -23.1290   -5.8560 C.3     1  UNL1       -0.0180
     20  C         15.5520  -24.0700   -4.7020 C.3     1  UNL1        0.0200
     21  C         14.7410  -22.2100   -6.1690 C.3     1  UNL1        0.0200
     22  C         17.1770  -22.3300   -5.5730 C.2     1  UNL1       -0.0420
     23  C         17.4950  -21.6200   -4.4220 C.2     1  UNL1        0.0080
     24  C         18.0690  -22.3760   -6.6560 C.2     1  UNL1       -0.0180
     25  C         18.7270  -20.9680   -4.3530 C.2     1  UNL1        0.0010
     26  C         19.6270  -21.0330   -5.4250 C.2     1  UNL1        0.0010
     27  C         19.3020  -21.7400   -6.5820 C.2     1  UNL1        0.0100
@<TRIPOS>BOND
     1    13    12    1
     2    14    12    1
     3    12     9    1
     4     2     1    1
     5     4     5    1
     6     4     3    2
     7     5     6    2
     8     1     3    1
     9     1    15    1
    10     3     8    1
    11     6     9    1
    12     6     7    1
    13     9    11    2
    14     9    10    2
    15     8     7    2
    16    15    16    1
    17    15    17    1
    18    17    18    1
    19    17    24    1
    20    18    19    1
    21    24    27    1
    22    24    22    2
    23    27    26    2
    24    21    19    1
    25    19    22    1
    26    19    20    1
    27    22    23    1
    28    26    25    1
    29    23    25    2
