@<TRIPOS>MOLECULE
2943_out_ligand_01.pdbqt
 27 29 0 0 0
SMALL
GASTEIGER

@<TRIPOS>ATOM
      1  N         17.2230  -23.0720  -10.1090 N.pl3   1  UNL1       -0.3850
      2  H         17.3880  -24.0630   -9.9550 H       1  UNL1        0.1600
      3  C         16.3490  -22.5110   -9.0870 C.3     1  UNL1        0.1580
      4  C         16.8930  -22.8630   -7.7210 C.2     1  UNL1       -0.0400
      5  C         16.7380  -24.1530   -7.1960 C.2     1  UNL1        0.0090
      6  C         17.2300  -24.4670   -5.9270 C.2     1  UNL1        0.0020
      7  C         17.8860  -23.4960   -5.1690 C.2     1  UNL1        0.0170
      8  C         18.0570  -22.2050   -5.6810 C.2     1  UNL1        0.0320
      9  C         17.5520  -21.8910   -6.9500 C.2     1  UNL1        0.0260
     10  C         18.7390  -21.1330   -4.9080 C.2     1  UNL1        0.2490
     11  N         18.4810  -21.0610   -3.5660 N.am    1  UNL1       -0.3660
     12  H         19.0580  -20.4120   -3.0460 H       1  UNL1        0.1590
     13  H         18.0850  -21.8380   -3.0560 H       1  UNL1        0.1590
     14  O         19.5290  -20.3600   -5.4350 O.2     1  UNL1       -0.2680
     15  C         18.3910  -22.4020  -10.5170 C.2     1  UNL1        0.0420
     16  C         18.3470  -21.3290  -11.4080 C.2     1  UNL1        0.0490
     17  C         19.5250  -20.7220  -11.7870 C.2     1  UNL1        0.1190
     18  N         20.7380  -21.1170  -11.3640 N.2     1  UNL1       -0.2580
     19  C         20.8230  -22.1920  -10.5520 C.2     1  UNL1        0.1020
     20  C         22.0560  -22.6750  -10.1160 C.2     1  UNL1        0.1320
     21  C         19.6710  -22.8890  -10.1120 C.2     1  UNL1        0.0220
     22  C         22.2270  -23.8020   -9.3020 C.2     1  UNL1        0.0380
     23  C         21.1010  -24.4950   -8.8970 C.2     1  UNL1        0.0030
     24  C         19.8420  -24.0440   -9.2990 C.2     1  UNL1        0.0160
     25  N         23.2460  -21.9760  -10.5290 N.pl3   1  UNL1       -0.1130
     26  O         23.6930  -21.1190   -9.7540 O.2     1  UNL1       -0.5320
     27  O         23.7790  -22.3470  -11.5840 O.2     1  UNL1       -0.5320
@<TRIPOS>BOND
     1    17    16    1
     2    17    18    2
     3    27    25    2
     4    16    15    2
     5    18    19    1
     6    19    20    2
     7    19    21    1
     8    25    20    1
     9    25    26    2
    10    15    21    1
    11    15     1    1
    12    20    22    1
    13    21    24    2
    14     1     2    1
    15     1     3    1
    16    22    23    2
    17    24    23    1
    18     3     4    1
    19     4     5    2
    20     4     9    1
    21     5     6    1
    22     9     8    2
    23     6     7    2
    24     8     7    1
    25     8    10    1
    26    14    10    2
    27    10    11   am
    28    11    13    1
    29    11    12    1
