@<TRIPOS>MOLECULE
29437_out_ligand_01.pdbqt
 28 31 0 0 0
SMALL
GASTEIGER

@<TRIPOS>ATOM
      1  N         23.0020  -23.0330  -10.8660 N.am    1  UNL1       -0.3530
      2  C         22.4580  -22.1160   -9.9940 C.2     1  UNL1        0.2520
      3  O         23.0600  -21.1450   -9.5490 O.2     1  UNL1       -0.2680
      4  H         22.5110  -23.9060  -11.0080 H       1  UNL1        0.1630
      5  C         24.3910  -22.9760  -11.2570 C.3     1  UNL1        0.1610
      6  C         24.5210  -22.8380  -12.7530 C.2     1  UNL1       -0.0400
      7  C         25.2030  -23.8160  -13.4940 C.2     1  UNL1        0.0100
      8  C         25.3090  -23.7130  -14.8840 C.2     1  UNL1        0.0170
      9  C         24.7320  -22.6260  -15.5510 C.2     1  UNL1        0.0310
     10  C         24.0320  -21.6600  -14.8190 C.2     1  UNL1        0.0170
     11  C         23.9270  -21.7650  -13.4290 C.2     1  UNL1        0.0100
     12  C         24.8130  -22.4690  -17.0290 C.2     1  UNL1        0.2490
     13  N         24.4200  -21.2730  -17.5610 N.am    1  UNL1       -0.3660
     14  H         24.3620  -21.2400  -18.5710 H       1  UNL1        0.1590
     15  H         23.8540  -20.6160  -17.0440 H       1  UNL1        0.1590
     16  O         25.1830  -23.3850  -17.7540 O.2     1  UNL1       -0.2680
     17  C         21.0820  -22.4140   -9.5330 C.2     1  UNL1        0.0430
     18  C         20.9590  -23.1870   -8.3530 C.2     1  UNL1        0.0180
     19  C         19.7010  -23.5600   -7.8620 C.2     1  UNL1        0.0090
     20  C         18.5740  -23.1520   -8.5540 C.2     1  UNL1       -0.0460
     21  C         18.7090  -22.3840   -9.6850 C.2     1  UNL1       -0.0120
     22  C         17.1300  -23.4130   -8.2380 C.2     1  UNL1        0.0440
     23  C         17.4730  -22.0750  -10.1950 C.2     1  UNL1       -0.0460
     24  C         19.9280  -21.9650  -10.2310 C.2     1  UNL1       -0.0090
     25  C         17.3770  -21.2860  -11.3280 C.2     1  UNL1        0.0080
     26  C         16.3720  -22.6810   -9.3730 C.2     1  UNL1        0.0440
     27  C         18.5560  -20.8150  -11.9190 C.2     1  UNL1        0.0010
     28  C         19.8170  -21.1410  -11.3810 C.2     1  UNL1        0.0130
@<TRIPOS>BOND
     1    14    13    1
     2    16    12    2
     3    13    15    1
     4    13    12   am
     5    12     9    1
     6     9     8    2
     7     9    10    1
     8     8     7    1
     9    10    11    2
    10     7     6    2
    11    11     6    1
    12     6     5    1
    13    27    28    2
    14    27    25    1
    15    28    24    1
    16    25    23    2
    17     5     1    1
    18     4     1    1
    19     1     2   am
    20    24    21    1
    21    24    17    2
    22    23    21    1
    23    23    26    1
    24     2     3    2
    25     2    17    1
    26    21    20    2
    27    17    18    1
    28    26    22    2
    29    20    22    1
    30    20    19    1
    31    18    19    2
