@<TRIPOS>MOLECULE
29446_out_ligand_01.pdbqt
 35 39 0 0 0
SMALL
GASTEIGER

@<TRIPOS>ATOM
      1  C         21.2480  -21.6640  -11.0480 C.2     1  UNL1        0.0480
      2  C         20.7790  -20.7250  -11.9800 C.2     1  UNL1        0.0180
      3  C         19.4200  -20.6570  -12.2720 C.2     1  UNL1        0.0010
      4  C         18.5360  -21.5330  -11.6470 C.2     1  UNL1        0.0010
      5  C         19.0060  -22.4720  -10.7210 C.2     1  UNL1        0.0190
      6  C         20.3690  -22.5410  -10.3890 C.2     1  UNL1        0.0160
      7  C         22.7080  -21.7120  -10.8370 C.2     1  UNL1        0.2530
      8  O         23.2240  -21.2720   -9.8140 O.2     1  UNL1       -0.2680
      9  N         23.4120  -22.2490  -11.8960 N.am    1  UNL1       -0.3480
     10  H         22.8850  -22.6590  -12.6670 H       1  UNL1        0.1630
     11  C         24.8420  -22.4520  -11.8050 C.3     1  UNL1        0.1200
     12  C         25.3240  -23.6150  -12.6850 C.3     1  UNL1        0.0450
     13  C         24.9430  -23.4820  -14.1540 C.3     1  UNL1        0.1480
     14  S         24.9720  -21.8200  -14.7870 S.O2    1  UNL1        0.1760
     15  O         23.6030  -21.3420  -14.8590 O.2     1  UNL1       -0.2230
     16  O         25.8440  -21.7990  -15.9460 O.2     1  UNL1       -0.2230
     17  C         25.7390  -20.8310  -13.5330 C.2     1  UNL1        0.0670
     18  C         26.4550  -19.6910  -13.9070 C.2     1  UNL1        0.0240
     19  C         25.5860  -21.1970  -12.1890 C.2     1  UNL1       -0.0140
     20  C         27.0190  -18.8850  -12.9180 C.2     1  UNL1        0.0020
     21  C         26.8610  -19.2200  -11.5720 C.2     1  UNL1        0.0010
     22  C         26.1480  -20.3660  -11.2080 C.2     1  UNL1        0.0110
     23  S         20.9590  -23.7730   -9.2250 S.3     1  UNL1       -0.1200
     24  C         20.3590  -23.1200   -7.6280 C.3     1  UNL1        0.1820
     25  C         18.9240  -23.5200   -7.2770 C.2     1  UNL1        0.2340
     26  O         18.2930  -24.3420   -7.9380 O.2     1  UNL1       -0.2720
     27  N         18.3940  -22.8500   -6.1770 N.am    1  UNL1       -0.3170
     28  C         19.0630  -21.8000   -5.3880 C.2     1  UNL1        0.1370
     29  C         17.1220  -23.0780   -5.6140 C.2     1  UNL1        0.0430
     30  C         18.0380  -21.2390   -4.3930 C.2     1  UNL1        0.0610
     31  C         16.8930  -22.1830   -4.5660 C.2     1  UNL1       -0.0300
     32  C         15.7080  -22.2030   -3.8430 C.2     1  UNL1        0.0090
     33  C         14.7430  -23.1550   -4.1800 C.2     1  UNL1        0.0010
     34  C         14.9700  -24.0580   -5.2290 C.2     1  UNL1        0.0020
     35  C         16.1660  -24.0210   -5.9550 C.2     1  UNL1        0.0300
@<TRIPOS>BOND
     1    16    14    2
     2    15    14    2
     3    14    13    1
     4    14    17    1
     5    13    12    1
     6    18    17    2
     7    18    20    1
     8    17    19    1
     9    20    21    2
    10    12    11    1
    11    10     9    1
    12     3     2    1
    13     3     4    2
    14    19    11    1
    15    19    22    2
    16     2     1    2
    17     9    11    1
    18     9     7   am
    19     4     5    1
    20    21    22    1
    21     1     7    1
    22     1     6    1
    23     7     8    2
    24     5     6    2
    25     6    23    1
    26    23    24    1
    27    26    25    2
    28    24    25    1
    29    25    27   am
    30    27    29    1
    31    27    28    1
    32    35    29    2
    33    35    34    1
    34    29    31    1
    35    28    30    2
    36    34    33    2
    37    31    30    1
    38    31    32    2
    39    33    32    1
