@<TRIPOS>MOLECULE
29457_out_ligand_01.pdbqt
 33 36 0 0 0
SMALL
GASTEIGER

@<TRIPOS>ATOM
      1  N         19.5330  -22.3270   -6.8010 N.am    1  UNL1       -0.3270
      2  C         19.2540  -21.3960   -5.8080 C.2     1  UNL1        0.2270
      3  O         19.9850  -20.4810   -5.4330 O.2     1  UNL1       -0.2730
      4  H         18.7660  -22.9520   -7.0470 H       1  UNL1        0.1690
      5  C         20.7090  -22.4410   -7.5650 C.2     1  UNL1        0.0340
      6  C         20.8860  -23.6290   -8.2880 C.2     1  UNL1        0.0300
      7  C         22.0330  -23.8290   -9.0640 C.2     1  UNL1        0.0170
      8  C         23.0090  -22.8340   -9.1400 C.2     1  UNL1        0.0100
      9  C         22.8440  -21.6510   -8.4120 C.2     1  UNL1        0.0170
     10  C         21.6990  -21.4610   -7.6260 C.2     1  UNL1        0.0300
     11  C         24.2200  -23.0760   -9.9680 C.2     1  UNL1        0.1410
     12  N         25.1650  -23.9270   -9.4460 N.am    1  UNL1       -0.3070
     13  C         26.3010  -24.2580  -10.1210 C.2     1  UNL1        0.2480
     14  H         25.0500  -24.3740   -8.5420 H       1  UNL1        0.1700
     15  C         26.4720  -23.5970  -11.4250 C.2     1  UNL1        0.1010
     16  O         27.1170  -25.0650   -9.6960 O.2     1  UNL1       -0.2680
     17  C         25.4990  -22.7760  -11.8480 C.2     1  UNL1        0.0380
     18  C         25.5850  -22.1010  -13.1910 C.3     1  UNL1        0.0700
     19  N         24.3630  -22.4980  -11.1210 N.2     1  UNL1       -0.2350
     20  C         17.8930  -21.6130   -5.1720 C.3     1  UNL1        0.1630
     21  C         17.0670  -22.5290   -6.0140 C.2     1  UNL1        0.0500
     22  C         16.1920  -23.5030   -5.5630 C.2     1  UNL1        0.0790
     23  S         15.4430  -24.2790   -6.8960 S.3     1  UNL1       -0.0840
     24  C         16.3510  -23.2890   -7.9780 C.2     1  UNL1        0.0790
     25  N         17.1370  -22.3990   -7.3980 N.2     1  UNL1       -0.2490
     26  C         16.2190  -23.4610   -9.4670 C.3     1  UNL1        0.1050
     27  C         17.0600  -22.4720  -10.2440 C.2     1  UNL1       -0.0500
     28  C         16.5190  -21.2460  -10.6760 C.2     1  UNL1        0.0070
     29  C         17.2900  -20.3560  -11.4270 C.2     1  UNL1        0.0020
     30  C         18.6040  -20.6780  -11.7550 C.2     1  UNL1        0.0240
     31  C         19.1490  -21.8910  -11.3270 C.2     1  UNL1        0.0340
     32 CL         20.7740  -22.2870  -11.7280 Cl      1  UNL1       -0.0840
     33  C         18.3820  -22.7860  -10.5800 C.2     1  UNL1        0.0310
@<TRIPOS>BOND
     1    18    17    1
     2    17    15    2
     3    17    19    1
     4    30    29    2
     5    30    31    1
     6    32    31    1
     7    29    28    1
     8    15    13    1
     9    31    33    2
    10    19    11    2
    11    28    27    2
    12    33    27    1
    13    27    26    1
    14    13    16    2
    15    13    12   am
    16    11    12    1
    17    11     8    1
    18    26    24    1
    19    12    14    1
    20     8     7    2
    21     8     9    1
    22     7     6    1
    23     9    10    2
    24     6     5    2
    25    24    25    2
    26    24    23    1
    27    10     5    1
    28     5     1    1
    29    25    21    1
    30     4     1    1
    31    23    22    1
    32     1     2   am
    33    21    22    2
    34    21    20    1
    35     2     3    2
    36     2    20    1
