@<TRIPOS>MOLECULE
29458_out_ligand_01.pdbqt
 40 45 0 0 0
SMALL
GASTEIGER

@<TRIPOS>ATOM
      1  C         20.9690  -21.6310  -11.7910 C.2     1  UNL1        0.0320
      2  C         21.9130  -22.5160  -11.2530 C.2     1  UNL1        0.0190
      3  C         23.1320  -22.7210  -11.8990 C.2     1  UNL1        0.0310
      4  C         23.4090  -22.0470  -13.0870 C.2     1  UNL1        0.0420
      5  C         22.4700  -21.1750  -13.6390 C.2     1  UNL1        0.0310
      6  C         21.2460  -20.9680  -12.9950 C.2     1  UNL1        0.0190
      7  C         19.6750  -21.4550  -11.0720 C.2     1  UNL1        0.2560
      8  O         19.0150  -20.4520  -11.3130 O.2     1  UNL1       -0.2670
      9  N         19.3340  -22.4910  -10.2210 N.am    1  UNL1       -0.3230
     10  H         19.9270  -23.3100  -10.2330 H       1  UNL1        0.1690
     11  C         18.1880  -22.5820   -9.3990 C.2     1  UNL1        0.0350
     12  C         16.8950  -22.7900   -9.8900 C.2     1  UNL1        0.0320
     13  C         15.7860  -22.8720   -9.0340 C.2     1  UNL1        0.0400
     14  C         16.0330  -22.7370   -7.6720 C.ar    1  UNL1        0.0870
     15  O         15.0940  -22.7920   -6.6900 O.2     1  UNL1       -0.3090
     16  C         17.2960  -22.5280   -7.1320 C.ar    1  UNL1        0.0130
     17  C         15.7450  -22.6200   -5.5070 C.ar    1  UNL1        0.0870
     18  C         15.1440  -22.6130   -4.2510 C.2     1  UNL1        0.0380
     19  C         17.1090  -22.4500   -5.7200 C.ar    1  UNL1        0.0110
     20  C         15.9890  -22.4210   -3.1530 C.2     1  UNL1        0.0030
     21  C         17.3650  -22.2450   -3.3240 C.2     1  UNL1        0.0010
     22  C         17.9420  -22.2580   -4.6020 C.2     1  UNL1        0.0150
     23  C         18.3950  -22.4440   -8.0120 C.2     1  UNL1        0.0440
     24  N         24.6350  -22.3000  -13.7580 N.pl3   1  UNL1       -0.2810
     25  H         24.8790  -23.2720  -13.9460 H       1  UNL1        0.1790
     26  S         26.0000  -21.4300  -13.2650 S.O2    1  UNL1        0.2630
     27  O         25.7210  -20.7700  -12.0080 O.2     1  UNL1       -0.2000
     28  O         27.1200  -22.3370  -13.3980 O.2     1  UNL1       -0.2000
     29  C         26.1560  -20.2010  -14.5400 C.2     1  UNL1        0.0820
     30  C         25.9170  -20.5690  -15.8880 C.2     1  UNL1        0.0280
     31  C         26.0300  -19.6250  -16.9150 C.2     1  UNL1        0.0330
     32  C         26.3670  -18.3450  -16.5390 C.ar    1  UNL1        0.0630
     33  N         26.5510  -17.2110  -17.3220 N.ar    1  UNL1       -0.3070
     34  C         26.5860  -17.9870  -15.2080 C.ar    1  UNL1        0.0640
     35  C         26.8860  -16.1350  -16.4870 C.ar    1  UNL1        0.3250
     36  H         26.4660  -17.1370  -18.3230 H       1  UNL1        0.1700
     37  O         27.1200  -14.9910  -16.8320 O.2     1  UNL1       -0.2470
     38  N         26.9030  -16.6340  -15.1760 N.ar    1  UNL1       -0.3060
     39  H         27.1110  -16.0700  -14.3680 H       1  UNL1        0.1700
     40  C         26.4850  -18.8870  -14.1770 C.2     1  UNL1        0.0570
@<TRIPOS>BOND
     1    36    33    1
     2    33    32   ar
     3    33    35   ar
     4    31    32    2
     5    31    30    1
     6    37    35    2
     7    32    34   ar
     8    35    38   ar
     9    30    29    2
    10    34    38   ar
    11    34    40    2
    12    38    39    1
    13    29    40    1
    14    29    26    1
    15    25    24    1
    16    24    26    1
    17    24     4    1
    18     5     4    2
    19     5     6    1
    20    28    26    2
    21    26    27    2
    22     4     3    1
    23     6     1    2
    24     3     2    2
    25     1     2    1
    26     1     7    1
    27     8     7    2
    28     7     9   am
    29    10     9    1
    30     9    11    1
    31    12    11    2
    32    12    13    1
    33    11    23    1
    34    13    14    2
    35    23    16    2
    36    14    16   ar
    37    14    15   ar
    38    16    19   ar
    39    15    17   ar
    40    19    17   ar
    41    19    22    1
    42    17    18    1
    43    22    21    2
    44    18    20    2
    45    21    20    1
