@<TRIPOS>MOLECULE
29451_out_ligand_01.pdbqt
 26 28 0 0 0
SMALL
GASTEIGER

@<TRIPOS>ATOM
      1  N         19.7090  -22.3090   -9.0660 N.am    1  UNL1       -0.3220
      2  C         19.4020  -23.4890   -8.4140 C.2     1  UNL1        0.2590
      3  O         19.8900  -24.5860   -8.6670 O.2     1  UNL1       -0.2670
      4  H         19.1890  -21.5000   -8.7470 H       1  UNL1        0.1690
      5  C         20.6670  -22.0790  -10.0830 C.2     1  UNL1        0.0420
      6  C         22.0410  -22.0190   -9.7340 C.2     1  UNL1       -0.0190
      7  C         22.4840  -22.1020   -8.2940 C.3     1  UNL1        0.0520
      8  C         22.9990  -21.8900  -10.7690 C.2     1  UNL1        0.0400
      9  C         22.6020  -21.7670  -12.1070 C.2     1  UNL1        0.0180
     10  C         21.2520  -21.7760  -12.4320 C.2     1  UNL1        0.0030
     11  C         20.2970  -21.9370  -11.4270 C.2     1  UNL1        0.0300
     12  C         24.4600  -21.9230  -10.4900 C.2     1  UNL1        0.2490
     13  N         25.0060  -23.1600  -10.2920 N.am    1  UNL1       -0.3660
     14  H         24.5060  -24.0100  -10.5110 H       1  UNL1        0.1590
     15  H         26.0130  -23.2060  -10.2020 H       1  UNL1        0.1590
     16  O         25.1410  -20.9080  -10.4500 O.2     1  UNL1       -0.2680
     17  C         18.3710  -23.4060   -7.3170 C.2     1  UNL1        0.0680
     18  C         17.2920  -24.3070   -7.4020 C.2     1  UNL1        0.0200
     19  C         16.2790  -24.3190   -6.4410 C.2     1  UNL1        0.0040
     20  C         16.3360  -23.4370   -5.3680 C.2     1  UNL1        0.0400
     21  C         17.4020  -22.5470   -5.2570 C.2     1  UNL1        0.1030
     22  C         18.4110  -22.5050   -6.2360 C.2     1  UNL1        0.1170
     23  O         17.3800  -21.7360   -4.1480 O.2     1  UNL1       -0.3460
     24  O         19.4490  -21.6030   -6.1510 O.2     1  UNL1       -0.3450
     25  C         19.1840  -20.5460   -5.2210 C.3     1  UNL1        0.2020
     26  C         18.6460  -21.1130   -3.9220 C.3     1  UNL1        0.2020
@<TRIPOS>BOND
     1    10     9    2
     2    10    11    1
     3     9     8    1
     4    11     5    2
     5     8    12    1
     6     8     6    2
     7    14    13    1
     8    12    16    2
     9    12    13   am
    10    13    15    1
    11     5     6    1
    12     5     1    1
    13     6     7    1
    14     1     4    1
    15     1     2   am
    16     3     2    2
    17     2    17    1
    18    18    17    2
    19    18    19    1
    20    17    22    1
    21    19    20    2
    22    22    24    1
    23    22    21    2
    24    24    25    1
    25    20    21    1
    26    21    23    1
    27    25    26    1
    28    23    26    1
