@<TRIPOS>MOLECULE
29462_out_ligand_01.pdbqt
 24 26 0 0 0
SMALL
GASTEIGER

@<TRIPOS>ATOM
      1  C         21.9390  -24.0370   -9.0760 C.3     1  UNL1        0.0490
      2  C         21.7390  -23.1190  -10.2530 C.2     1  UNL1       -0.0520
      3  C         22.8350  -22.8310  -11.0820 C.2     1  UNL1        0.0260
      4  C         22.6880  -21.9840  -12.1770 C.2     1  UNL1        0.0120
      5 BR         24.1780  -21.6080  -13.2800 Br      1  UNL1       -0.0510
      6  C         21.4540  -21.4130  -12.4680 C.2     1  UNL1        0.0270
      7  C         20.3460  -21.6910  -11.6550 C.2     1  UNL1       -0.0470
      8  C         20.4840  -22.5260  -10.5260 C.2     1  UNL1       -0.0180
      9  C         19.2720  -22.8350   -9.6570 C.3     1  UNL1        0.3120
     10  N         18.1410  -21.8990   -9.8290 N.3     1  UNL1        0.0970
     11  C         17.8500  -21.7360  -11.2590 C.3     1  UNL1        0.2770
     12  C         19.0210  -21.0410  -11.9620 C.3     1  UNL1        0.0690
     13  C         16.9450  -22.3780   -9.1160 C.3     1  UNL1        0.3110
     14  C         17.2350  -22.8220   -7.6980 C.2     1  UNL1       -0.0290
     15  C         17.0040  -24.1490   -7.3070 C.2     1  UNL1        0.0090
     16  C         17.2850  -24.5650   -6.0050 C.2     1  UNL1        0.0020
     17  C         17.7920  -23.6600   -5.0730 C.2     1  UNL1        0.0170
     18  C         18.0140  -22.3270   -5.4420 C.2     1  UNL1        0.0320
     19  C         17.7470  -21.9170   -6.7560 C.2     1  UNL1        0.0260
     20  C         18.5470  -21.3180   -4.4880 C.2     1  UNL1        0.2490
     21  N         19.2880  -20.2890   -5.0020 N.am    1  UNL1       -0.3660
     22  H         19.7430  -19.6930   -4.3210 H       1  UNL1        0.1590
     23  H         19.6920  -20.3270   -5.9260 H       1  UNL1        0.1590
     24  O         18.3680  -21.4150   -3.2800 O.2     1  UNL1       -0.2680
@<TRIPOS>BOND
     1     5     4    1
     2     6     4    2
     3     6     7    1
     4     4     3    1
     5    12     7    1
     6    12    11    1
     7     7     8    2
     8    11    10    1
     9     3     2    2
    10     8     2    1
    11     8     9    1
    12     2     1    1
    13    10     9    1
    14    10    13    1
    15    13    14    1
    16    14    15    2
    17    14    19    1
    18    15    16    1
    19    19    18    2
    20    16    17    2
    21    23    21    1
    22    18    17    1
    23    18    20    1
    24    21    20   am
    25    21    22    1
    26    20    24    2
