@<TRIPOS>MOLECULE
2946_out_ligand_01.pdbqt
 36 40 0 0 0
SMALL
GASTEIGER

@<TRIPOS>ATOM
      1  N         23.5220  -23.1830  -10.4030 N.am    1  UNL1       -0.3230
      2  C         22.9420  -22.3300   -9.4810 C.2     1  UNL1        0.2560
      3  O         23.3390  -21.2160   -9.1610 O.2     1  UNL1       -0.2670
      4  H         23.0150  -24.0270  -10.6400 H       1  UNL1        0.1690
      5  C         24.7200  -22.9760  -11.1240 C.2     1  UNL1        0.0350
      6  C         25.9890  -23.2650  -10.6270 C.2     1  UNL1        0.0290
      7  C         27.1210  -23.0380  -11.4100 C.2     1  UNL1        0.0030
      8  C         26.9950  -22.5120  -12.6970 C.2     1  UNL1        0.0100
      9  C         25.7320  -22.1910  -13.2280 C.2     1  UNL1       -0.0190
     10  C         24.6030  -22.4540  -12.4240 C.2     1  UNL1        0.0390
     11  C         25.5900  -21.6300  -14.6410 C.3     1  UNL1        0.1390
     12  C         26.3400  -20.3150  -14.9040 C.3     1  UNL1        0.0540
     13  N         25.9770  -22.5960  -15.6590 N.am    1  UNL1       -0.3210
     14  C         24.9400  -22.9250  -16.4970 C.2     1  UNL1        0.3240
     15  H         26.8870  -23.0360  -15.7350 H       1  UNL1        0.1650
     16  O         25.0100  -23.7270  -17.4140 O.2     1  UNL1       -0.2470
     17  N         23.8420  -22.2240  -16.1270 N.am    1  UNL1       -0.2770
     18  C         24.1030  -21.4480  -15.0360 C.2     1  UNL1        0.2580
     19  H         22.9440  -22.3000  -16.5760 H       1  UNL1        0.1730
     20  O         23.2860  -20.7160  -14.4930 O.2     1  UNL1       -0.2700
     21  C         21.6760  -22.8230   -8.8610 C.2     1  UNL1        0.0330
     22  C         21.1380  -24.0330   -9.3230 C.2     1  UNL1        0.0190
     23  C         19.9550  -24.5430   -8.7780 C.2     1  UNL1        0.0310
     24  C         19.2800  -23.8390   -7.7770 C.ar    1  UNL1        0.0470
     25  N         18.1240  -24.3690   -7.1820 N.ar    1  UNL1       -0.3550
     26  C         19.8290  -22.6350   -7.3110 C.ar    1  UNL1        0.0430
     27  C         17.3840  -23.6710   -6.2130 C.ar    1  UNL1        0.0460
     28  H         17.6290  -25.0810   -7.7020 H       1  UNL1        0.1660
     29  C         16.2070  -24.2120   -5.6860 C.2     1  UNL1        0.0300
     30  C         17.8650  -22.4620   -5.6860 C.ar    1  UNL1        0.0420
     31  C         15.5060  -23.5390   -4.6800 C.2     1  UNL1        0.0020
     32  C         15.9830  -22.3270   -4.1800 C.2     1  UNL1        0.0010
     33  C         17.1670  -21.7860   -4.6790 C.2     1  UNL1        0.0180
     34  C         19.1320  -21.9060   -6.2210 C.ar    1  UNL1        0.1960
     35  O         19.6060  -20.8670   -5.7730 O.2     1  UNL1       -0.2860
     36  C         21.0090  -22.1130   -7.8570 C.2     1  UNL1        0.0340
@<TRIPOS>BOND
     1    16    14    2
     2    19    17    1
     3    14    17   am
     4    14    13   am
     5    17    18   am
     6    15    13    1
     7    13    11    1
     8    18    11    1
     9    18    20    2
    10    12    11    1
    11    11     9    1
    12     9     8    2
    13     9    10    1
    14     8     7    1
    15    10     5    2
    16     7     6    2
    17     5     6    1
    18     5     1    1
    19     4     1    1
    20     1     2   am
    21     2     3    2
    22     2    21    1
    23    22    21    2
    24    22    23    1
    25    21    36    1
    26    23    24    2
    27    36    26    2
    28    24    26   ar
    29    24    25   ar
    30    28    25    1
    31    26    34   ar
    32    25    27   ar
    33    34    35    2
    34    34    30   ar
    35    27    29    2
    36    27    30   ar
    37    29    31    1
    38    30    33    2
    39    31    32    2
    40    33    32    1
