@<TRIPOS>MOLECULE
29463_out_ligand_01.pdbqt
 29 31 0 0 0
SMALL
GASTEIGER

@<TRIPOS>ATOM
      1  C         20.0220  -21.9060  -10.2740 C.2     1  UNL1        0.0350
      2  C         19.6720  -21.5360  -11.5690 C.2     1  UNL1        0.0290
      3  C         20.6470  -21.4520  -12.5640 C.2     1  UNL1        0.0030
      4  C         21.9820  -21.7390  -12.2750 C.2     1  UNL1        0.0100
      5  C         22.3710  -22.1190  -10.9810 C.2     1  UNL1       -0.0190
      6  C         21.3680  -22.1890   -9.9910 C.2     1  UNL1        0.0390
      7  N         19.1040  -22.0260   -9.2110 N.am    1  UNL1       -0.3230
      8  C         18.8880  -23.1280   -8.4070 C.2     1  UNL1        0.2570
      9  O         19.4090  -24.2320   -8.5050 O.2     1  UNL1       -0.2670
     10  H         18.5650  -21.1940   -9.0010 H       1  UNL1        0.1690
     11  C         17.8460  -22.9500   -7.3640 C.2     1  UNL1        0.0510
     12  C         16.4720  -23.0730   -7.5950 C.2     1  UNL1        0.0270
     13  C         15.5710  -22.8920   -6.5350 C.2     1  UNL1        0.0280
     14 BR         15.7230  -23.4240   -9.3040 Br      1  UNL1       -0.0500
     15  C         16.0250  -22.5790   -5.2430 C.2     1  UNL1       -0.0390
     16  C         15.0260  -22.3900   -4.1340 C.3     1  UNL1        0.0500
     17  C         17.4040  -22.4390   -5.0310 C.2     1  UNL1        0.0410
     18  C         18.3050  -22.6170   -6.0810 C.2     1  UNL1        0.0430
     19 CL         18.0420  -22.0450   -3.4760 Cl      1  UNL1       -0.0840
     20  C         23.8220  -22.4200  -10.6220 C.3     1  UNL1        0.1390
     21  C         23.9360  -23.5060   -9.5510 C.3     1  UNL1        0.0540
     22  N         24.5680  -21.2430  -10.2160 N.am    1  UNL1       -0.3210
     23  C         25.6270  -20.9680  -11.0390 C.2     1  UNL1        0.3240
     24  H         24.4040  -20.7000   -9.3790 H       1  UNL1        0.1650
     25  O         26.4240  -20.0630  -10.8720 O.2     1  UNL1       -0.2470
     26  N         25.6500  -21.8770  -12.0370 N.am    1  UNL1       -0.2770
     27  C         24.6750  -22.8100  -11.8580 C.2     1  UNL1        0.2580
     28  H         26.3580  -21.9160  -12.7480 H       1  UNL1        0.1730
     29  O         24.5340  -23.8010  -12.5620 O.2     1  UNL1       -0.2700
@<TRIPOS>BOND
     1    28    26    1
     2     3     4    2
     3     3     2    1
     4    29    27    2
     5     4     5    1
     6    26    27   am
     7    26    23   am
     8    27    20    1
     9     2     1    2
    10    23    25    2
    11    23    22   am
    12     5    20    1
    13     5     6    2
    14    20    22    1
    15    20    21    1
    16     1     6    1
    17     1     7    1
    18    22    24    1
    19    14    12    1
    20     7    10    1
    21     7     8   am
    22     9     8    2
    23     8    11    1
    24    12    11    2
    25    12    13    1
    26    11    18    1
    27    13    15    2
    28    18    17    2
    29    15    17    1
    30    15    16    1
    31    17    19    1
