@<TRIPOS>MOLECULE
29469_out_ligand_01.pdbqt
 32 35 0 0 0
SMALL
GASTEIGER

@<TRIPOS>ATOM
      1  C         21.7530  -21.9920  -11.5980 C.ar    1  UNL1       -0.0180
      2  C         21.9400  -22.7600  -10.4560 C.ar    1  UNL1        0.0500
      3  N         23.1880  -23.3300  -10.5460 N.ar    1  UNL1       -0.3540
      4  C         23.8220  -22.9450  -11.7020 C.ar    1  UNL1        0.0430
      5  C         25.0930  -23.2730  -12.1870 C.2     1  UNL1        0.0300
      6  C         25.4780  -22.7290  -13.4160 C.2     1  UNL1        0.0020
      7  C         24.6230  -21.8930  -14.1280 C.2     1  UNL1        0.0010
      8  C         23.3550  -21.5750  -13.6280 C.2     1  UNL1        0.0140
      9  C         22.9440  -22.1080  -12.3890 C.ar    1  UNL1       -0.0010
     10  H         23.5900  -23.9400   -9.8480 H       1  UNL1        0.1660
     11  C         20.5340  -21.1970  -11.9540 C.3     1  UNL1        0.0510
     12  C         19.2980  -22.0760  -12.1050 C.3     1  UNL1        0.1070
     13  C         18.1280  -21.4190  -11.4160 C.2     1  UNL1        0.2180
     14  N         17.5050  -22.2130  -10.4850 N.am    1  UNL1       -0.3550
     15  H         17.6850  -23.2100  -10.4900 H       1  UNL1        0.1620
     16  O         17.7630  -20.2770  -11.6830 O.2     1  UNL1       -0.2740
     17  C         16.2740  -21.7860   -9.8610 C.3     1  UNL1        0.1840
     18  C         16.0240  -22.6450   -8.6800 C.2     1  UNL1        0.0860
     19  C         15.8390  -22.3030   -7.3590 C.2     1  UNL1        0.1380
     20  N         15.6720  -23.5020   -6.7280 N.pl3   1  UNL1       -0.2790
     21  N         15.7620  -24.5250   -7.5960 N.2     1  UNL1        0.0050
     22  N         15.9750  -24.0120   -8.7990 N.2     1  UNL1       -0.1610
     23  C         15.4420  -23.7600   -5.3150 C.3     1  UNL1        0.0970
     24  C         15.6040  -22.4900   -4.4820 C.3     1  UNL1        0.0330
     25  C         14.0800  -24.4110   -5.0780 C.3     1  UNL1        0.0330
     26  C         21.0650  -23.0050   -9.3170 C.2     1  UNL1       -0.0090
     27  C         20.9520  -22.0530   -8.2950 C.2     1  UNL1        0.0170
     28  C         20.1060  -22.2870   -7.2090 C.2     1  UNL1        0.0430
     29  C         19.3790  -23.4710   -7.1480 C.2     1  UNL1        0.1160
     30  F         18.5700  -23.6970   -6.1060 F       1  UNL1       -0.2060
     31  C         19.4800  -24.4240   -8.1550 C.2     1  UNL1        0.0430
     32  C         20.3250  -24.1920   -9.2420 C.2     1  UNL1        0.0170
@<TRIPOS>BOND
     1     7     8    2
     2     7     6    1
     3     8     9    1
     4     6     5    2
     5     9     4   ar
     6     9     1   ar
     7     5     4    1
     8    12    11    1
     9    12    13    1
    10    11     1    1
    11     4     3   ar
    12    16    13    2
    13     1     2   ar
    14    13    14   am
    15     3     2   ar
    16     3    10    1
    17    15    14    1
    18    14    17    1
    19     2    26    1
    20    17    18    1
    21    26    32    2
    22    26    27    1
    23    32    31    1
    24    22    18    1
    25    22    21    2
    26    18    19    2
    27    27    28    2
    28    31    29    2
    29    21    20    1
    30    19    20    1
    31    28    29    1
    32    29    30    1
    33    20    23    1
    34    23    25    1
    35    23    24    1
