@<TRIPOS>MOLECULE
29460_out_ligand_01.pdbqt
 32 35 0 0 0
SMALL
GASTEIGER

@<TRIPOS>ATOM
      1  C         20.2400  -22.6730   -9.0540 C.2     1  UNL1        0.0470
      2  C         19.9740  -22.8050   -7.6920 C.2     1  UNL1        0.0500
      3  C         18.6990  -22.5090   -7.2440 C.2     1  UNL1        0.0700
      4  N         17.7120  -22.1300   -8.0930 N.2     1  UNL1       -0.2470
      5  C         17.9850  -21.9620   -9.3980 C.2     1  UNL1        0.0680
      6  C         16.9660  -21.5220  -10.2300 C.2     1  UNL1        0.0320
      7  C         17.1650  -21.3020  -11.5940 C.2     1  UNL1        0.0020
      8  C         18.4180  -21.5190  -12.1480 C.2     1  UNL1        0.0010
      9  C         19.4590  -21.9640  -11.3360 C.2     1  UNL1        0.0150
     10  C         19.2540  -22.2100   -9.9530 C.2     1  UNL1        0.0080
     11  C         21.6000  -23.0600   -9.4950 C.2     1  UNL1        0.2570
     12  N         22.1460  -22.2140  -10.4410 N.am    1  UNL1       -0.3220
     13  H         21.5920  -21.4400  -10.7810 H       1  UNL1        0.1690
     14  O         22.0870  -24.0880   -9.0420 O.2     1  UNL1       -0.2670
     15  C         23.4070  -22.3530  -10.9850 C.2     1  UNL1        0.0530
     16  C         24.4400  -21.4900  -10.6990 C.2     1  UNL1        0.1200
     17  N         25.5550  -21.9160  -11.3810 N.pl3   1  UNL1       -0.3540
     18  C         26.8670  -21.3240  -11.2230 C.3     1  UNL1        0.1560
     19  C         25.2460  -23.0210  -12.1480 C.2     1  UNL1        0.1040
     20  C         23.9190  -23.3250  -11.8730 C.2     1  UNL1        0.0660
     21  C         26.1270  -23.7540  -13.0260 C.2     1  UNL1        0.2660
     22  N         26.2600  -23.2360  -14.2850 N.am    1  UNL1       -0.3650
     23  H         26.7020  -23.8740  -14.9340 H       1  UNL1        0.1590
     24  H         25.5020  -22.6790  -14.6510 H       1  UNL1        0.1590
     25  O         26.6870  -24.8060  -12.7420 O.2     1  UNL1       -0.2660
     26  C         18.2980  -22.6460   -5.8360 C.2     1  UNL1        0.0140
     27  C         17.6190  -23.8150   -5.4340 C.2     1  UNL1        0.0150
     28  C         17.2210  -24.0130   -4.1100 C.2     1  UNL1        0.0010
     29  C         17.4870  -23.0400   -3.1530 C.2     1  UNL1        0.0020
     30  C         18.1420  -21.8670   -3.5240 C.2     1  UNL1        0.0250
     31  C         18.5420  -21.6680   -4.8520 C.2     1  UNL1        0.0460
     32 CL         19.3030  -20.1570   -5.2180 Cl      1  UNL1       -0.0830
@<TRIPOS>BOND
     1    23    22    1
     2    24    22    1
     3    22    21   am
     4    21    25    2
     5    21    19    1
     6    19    20    2
     7    19    17    1
     8     8     7    1
     9     8     9    2
    10    20    15    1
    11     7     6    2
    12    17    18    1
    13    17    16    1
    14     9    10    1
    15    15    16    2
    16    15    12    1
    17    13    12    1
    18    12    11   am
    19     6     5    1
    20    10     5    1
    21    10     1    2
    22    11     1    1
    23    11    14    2
    24     5     4    2
    25     1     2    1
    26     4     3    1
    27     2     3    2
    28     3    26    1
    29    26    27    2
    30    26    31    1
    31    27    28    1
    32    32    31    1
    33    31    30    2
    34    28    29    2
    35    30    29    1
