@<TRIPOS>MOLECULE
29467_out_ligand_01.pdbqt
 35 37 0 0 0
SMALL
GASTEIGER

@<TRIPOS>ATOM
      1  N         22.3280  -22.0270  -10.1850 N.am    1  UNL1       -0.3250
      2  C         21.6280  -22.9860   -9.4670 C.2     1  UNL1        0.2560
      3  O         21.9540  -24.1640   -9.3290 O.2     1  UNL1       -0.2700
      4  H         21.8540  -21.1320  -10.2630 H       1  UNL1        0.1690
      5  C         23.5510  -22.1700  -10.8660 C.2     1  UNL1        0.0350
      6  C         24.6580  -21.4980  -10.3330 C.2     1  UNL1        0.0290
      7  C         25.9110  -21.5790  -10.9480 C.2     1  UNL1        0.0030
      8  C         26.0680  -22.3350  -12.1080 C.2     1  UNL1        0.0170
      9  C         24.9680  -23.0110  -12.6470 C.2     1  UNL1        0.0340
     10  C         23.7160  -22.9380  -12.0200 C.2     1  UNL1        0.0460
     11  C         25.1010  -23.8380  -13.8760 C.2     1  UNL1        0.2520
     12  N         24.9360  -23.1700  -15.0700 N.am    1  UNL1       -0.3480
     13  H         24.6040  -22.2160  -15.0630 H       1  UNL1        0.1630
     14  O         25.3260  -25.0380  -13.7930 O.2     1  UNL1       -0.2680
     15  C         24.8860  -23.8740  -16.3450 C.3     1  UNL1        0.2250
     16  C         24.0860  -23.0960  -17.3910 C.2     1  UNL1        0.2330
     17  N         22.9450  -23.7030  -17.8440 N.am    1  UNL1       -0.3690
     18  H         22.5260  -24.4220  -17.2640 H       1  UNL1        0.1590
     19  H         22.3230  -23.1180  -18.3870 H       1  UNL1        0.1590
     20  O         24.3760  -21.9640  -17.7610 O.2     1  UNL1       -0.2720
     21  C         20.3430  -22.4340   -8.8020 C.3     1  UNL1        0.2540
     22  O         19.8210  -23.4540   -7.9290 O.2     1  UNL1       -0.3320
     23  C         19.0860  -23.0510   -6.8470 C.2     1  UNL1        0.0730
     24  C         18.1020  -23.8050   -6.2020 C.2     1  UNL1        0.0370
     25  C         17.4280  -23.2800   -5.0930 C.2     1  UNL1        0.0060
     26  C         17.7320  -22.0030   -4.6270 C.2     1  UNL1        0.0420
     27  C         18.7270  -21.2680   -5.2610 C.2     1  UNL1        0.1190
     28  F         19.0300  -20.0440   -4.8110 F       1  UNL1       -0.2060
     29  C         19.4090  -21.7830   -6.3580 C.2     1  UNL1        0.0790
     30  C         19.3400  -22.0110   -9.8680 C.2     1  UNL1       -0.0200
     31  C         19.7240  -21.2880  -11.0090 C.2     1  UNL1        0.0100
     32  C         18.7770  -20.9080  -11.9620 C.2     1  UNL1        0.0010
     33  C         17.4340  -21.2370  -11.7840 C.2     1  UNL1        0.0000
     34  C         17.0360  -21.9450  -10.6530 C.2     1  UNL1        0.0010
     35  C         17.9820  -22.3310   -9.7000 C.2     1  UNL1        0.0100
@<TRIPOS>BOND
     1    19    17    1
     2    17    16   am
     3    17    18    1
     4    20    16    2
     5    16    15    1
     6    15    12    1
     7    12    13    1
     8    12    11   am
     9    11    14    2
    10    11     9    1
    11     9     8    2
    12     9    10    1
    13     8     7    1
    14    10     5    2
    15    32    33    2
    16    32    31    1
    17    33    34    1
    18    31    30    2
    19     7     6    2
    20     5     6    1
    21     5     1    1
    22    34    35    2
    23     4     1    1
    24     1     2   am
    25    30    35    1
    26    30    21    1
    27     2     3    2
    28     2    21    1
    29    21    22    1
    30    22    23    1
    31    23    29    2
    32    23    24    1
    33    29    27    1
    34    24    25    2
    35    27    28    1
    36    27    26    2
    37    25    26    1
