@<TRIPOS>MOLECULE
29473_out_ligand_01.pdbqt
 31 34 0 0 0
SMALL
GASTEIGER

@<TRIPOS>ATOM
      1  N         17.7630  -22.6390  -10.3220 N.am    1  UNL1       -0.3370
      2  C         18.4460  -21.6740  -11.0620 C.2     1  UNL1        0.2780
      3  O         17.8700  -20.7170  -11.5830 O.2     1  UNL1       -0.2650
      4  C         18.3940  -23.5140   -9.3250 C.3     1  UNL1        0.1680
      5  C         18.3270  -23.0380   -7.8900 C.2     1  UNL1       -0.0020
      6  C         18.9330  -21.8710   -7.4070 C.2     1  UNL1        0.0130
      7  C         18.8020  -21.5120   -6.0600 C.2     1  UNL1        0.0180
      8  C         18.0580  -22.3040   -5.1750 C.2     1  UNL1        0.0340
      9  C         17.4630  -23.4770   -5.6430 C.2     1  UNL1        0.0590
     10  C         17.6030  -23.8240   -6.9830 C.2     1  UNL1        0.1250
     11  F         17.0200  -24.9530   -7.4140 F       1  UNL1       -0.2050
     12  C         17.9440  -21.8640   -3.7610 C.2     1  UNL1        0.2490
     13  N         16.7200  -21.9670   -3.1580 N.am    1  UNL1       -0.3660
     14  H         16.6490  -21.5720   -2.2260 H       1  UNL1        0.1590
     15  H         15.8640  -22.1410   -3.6600 H       1  UNL1        0.1590
     16  O         18.8970  -21.3940   -3.1530 O.2     1  UNL1       -0.2680
     17  C         16.3130  -22.5450  -10.2870 C.3     1  UNL1        0.0880
     18  C         15.5120  -23.7720   -9.9170 C.3     1  UNL1        0.0270
     19  C         15.4930  -22.5730   -9.0220 C.3     1  UNL1        0.0270
     20  C         19.9300  -21.7950  -11.2160 C.2     1  UNL1        0.1470
     21  C         20.4470  -21.3600  -12.3720 C.2     1  UNL1        0.0980
     22  C         21.8890  -21.5100  -12.6110 C.2     1  UNL1        0.1870
     23  O         22.4060  -21.1130  -13.6460 O.2     1  UNL1       -0.2870
     24  C         22.6680  -22.1630  -11.5480 C.2     1  UNL1        0.0500
     25  C         24.0490  -22.3380  -11.6780 C.2     1  UNL1        0.0420
     26  C         22.0000  -22.6000  -10.4040 C.2     1  UNL1        0.0900
     27  C         24.7520  -22.9650  -10.6490 C.2     1  UNL1        0.0350
     28 CL         26.4510  -23.1850  -10.7870 Cl      1  UNL1       -0.0840
     29  C         24.0860  -23.4180   -9.5060 C.2     1  UNL1        0.0260
     30  C         22.7070  -23.2340   -9.3840 C.2     1  UNL1        0.0400
     31  O         20.6500  -22.4400  -10.2240 O.2     1  UNL1       -0.3040
@<TRIPOS>BOND
     1    23    22    2
     2    22    21    1
     3    22    24    1
     4    21    20    2
     5    25    24    2
     6    25    27    1
     7     3     2    2
     8    24    26    1
     9    20     2    1
    10    20    31    1
    11     2     1   am
    12    28    27    1
    13    27    29    2
    14    26    31    1
    15    26    30    2
    16     1    17    1
    17     1     4    1
    18    17    18    1
    19    17    19    1
    20    18    19    1
    21    29    30    1
    22     4     5    1
    23     5     6    2
    24     5    10    1
    25    11    10    1
    26     6     7    1
    27    10     9    2
    28     7     8    2
    29     9     8    1
    30     8    12    1
    31    12    13   am
    32    12    16    2
    33    15    13    1
    34    13    14    1
