@<TRIPOS>MOLECULE
29478_out_ligand_01.pdbqt
 30 33 0 0 0
SMALL
GASTEIGER

@<TRIPOS>ATOM
      1  C         20.2130  -23.4320   -7.7930 C.2     1  UNL1        0.0320
      2  C         20.7850  -24.4500   -8.5590 C.2     1  UNL1        0.0170
      3  C         22.0290  -24.2500   -9.1620 C.2     1  UNL1        0.0090
      4  C         22.7100  -23.0280   -9.0180 C.2     1  UNL1       -0.0480
      5  C         22.1100  -22.0090   -8.2700 C.2     1  UNL1        0.0090
      6  C         20.8700  -22.2050   -7.6550 C.2     1  UNL1        0.0170
      7  C         24.0240  -22.8070   -9.7360 C.3     1  UNL1        0.1210
      8  S         23.9110  -23.0620  -11.5290 S.3     1  UNL1       -0.0860
      9  C         22.4420  -22.2360  -11.8540 C.ar    1  UNL1        0.1890
     10  N         22.2310  -21.2490  -12.6860 N.ar    1  UNL1       -0.1220
     11  N         20.9040  -20.9040  -12.5790 N.ar    1  UNL1       -0.1290
     12  C         20.3210  -21.7240  -11.7150 C.ar    1  UNL1        0.1620
     13  N         21.2800  -22.5860  -11.2440 N.ar    1  UNL1       -0.3170
     14  H         21.1740  -23.2990  -10.5430 H       1  UNL1        0.1690
     15  C         18.9180  -21.7000  -11.2990 C.2     1  UNL1        0.0140
     16  C         18.3960  -22.8000  -10.6130 C.2     1  UNL1        0.0340
     17  C         17.0720  -22.7780  -10.2150 C.2     1  UNL1        0.1170
     18  N         16.2380  -21.7420  -10.4540 N.2     1  UNL1       -0.2730
     19  C         16.7580  -20.6840  -11.1090 C.2     1  UNL1        0.1170
     20  C         18.0750  -20.6160  -11.5440 C.2     1  UNL1        0.0340
     21  C         18.8920  -23.6690   -7.1580 C.2     1  UNL1        0.2560
     22  O         18.4120  -24.7920   -7.2190 O.2     1  UNL1       -0.2670
     23  N         18.3660  -22.5560   -6.5220 N.am    1  UNL1       -0.3230
     24  H         18.9670  -21.7390   -6.4510 H       1  UNL1        0.1690
     25  C         17.1200  -22.4560   -5.8680 C.2     1  UNL1        0.0350
     26  C         15.8990  -22.3600   -6.5350 C.2     1  UNL1        0.0290
     27  C         14.7040  -22.2540   -5.8150 C.2     1  UNL1        0.0020
     28  C         14.7210  -22.2450   -4.4220 C.2     1  UNL1        0.0000
     29  C         15.9340  -22.3460   -3.7480 C.2     1  UNL1        0.0020
     30  C         17.1280  -22.4450   -4.4670 C.2     1  UNL1        0.0290
@<TRIPOS>BOND
     1    10    11   ar
     2    10     9   ar
     3    11    12   ar
     4     9     8    1
     5     9    13   ar
     6    12    15    1
     7    12    13   ar
     8    20    15    2
     9    20    19    1
    10     8     7    1
    11    15    16    1
    12    13    14    1
    13    19    18    2
    14    16    17    2
    15    18    17    1
    16     7     4    1
    17     3     4    2
    18     3     2    1
    19     4     5    1
    20     2     1    2
    21     5     6    2
    22     1     6    1
    23     1    21    1
    24    22    21    2
    25    21    23   am
    26    26    25    2
    27    26    27    1
    28    23    24    1
    29    23    25    1
    30    25    30    1
    31    27    28    2
    32    30    29    2
    33    28    29    1
