@<TRIPOS>MOLECULE
2948_out_ligand_01.pdbqt
 32 34 0 0 0
SMALL
GASTEIGER

@<TRIPOS>ATOM
      1  C         19.4550  -22.0750  -10.1690 C.2     1  UNL1        0.0870
      2  C         18.9890  -21.2260  -11.1790 C.2     1  UNL1        0.0520
      3 CL         20.0510  -20.3040  -12.1810 Cl      1  UNL1       -0.0830
      4  C         17.6140  -21.1070  -11.4120 C.2     1  UNL1        0.0250
      5  C         16.7040  -21.8420  -10.6500 C.2     1  UNL1        0.0040
      6  C         17.1650  -22.6920   -9.6460 C.2     1  UNL1        0.0380
      7  C         18.5350  -22.7960   -9.3900 C.2     1  UNL1        0.0930
      8  C         20.9030  -22.2510   -9.9390 C.2     1  UNL1        0.2600
      9  N         21.6280  -22.4850  -11.0930 N.am    1  UNL1       -0.3230
     10  H         21.1020  -22.5870  -11.9530 H       1  UNL1        0.1690
     11  O         21.3250  -22.1330   -8.7960 O.2     1  UNL1       -0.2670
     12  C         23.0280  -22.5730  -11.2170 C.2     1  UNL1        0.0360
     13  C         23.5290  -23.1990  -12.3670 C.2     1  UNL1        0.0490
     14  C         24.9110  -23.3160  -12.5830 C.2     1  UNL1        0.0720
     15  C         25.7890  -22.7970  -11.6330 C.2     1  UNL1        0.1320
     16  C         25.3050  -22.1750  -10.4870 C.2     1  UNL1        0.0450
     17  F         27.1190  -22.8800  -11.7920 F       1  UNL1       -0.2050
     18  C         23.9270  -22.0630  -10.2780 C.2     1  UNL1        0.0320
     19  C         25.3680  -23.9930  -13.8240 C.2     1  UNL1        0.2520
     20  N         25.9260  -23.2340  -14.8100 N.am    1  UNL1       -0.3660
     21  H         26.0400  -22.2300  -14.7410 H       1  UNL1        0.1590
     22  H         26.2300  -23.7000  -15.6540 H       1  UNL1        0.1590
     23  O         25.2510  -25.2050  -13.9640 O.2     1  UNL1       -0.2680
     24  O         18.8980  -23.6730   -8.3890 O.2     1  UNL1       -0.3100
     25  C         18.5070  -23.3550   -7.1070 C.2     1  UNL1        0.0770
     26  C         17.7520  -24.3160   -6.4290 C.2     1  UNL1        0.0400
     27  C         17.3310  -24.0750   -5.1210 C.2     1  UNL1        0.0470
     28  C         17.6540  -22.8690   -4.5070 C.2     1  UNL1        0.1380
     29  F         17.2490  -22.6600   -3.2470 F       1  UNL1       -0.2040
     30  C         18.3850  -21.8980   -5.1920 C.2     1  UNL1        0.0750
     31 CL         18.7820  -20.4030   -4.4360 Cl      1  UNL1       -0.0810
     32  C         18.8060  -22.1320   -6.5010 C.2     1  UNL1        0.0640
@<TRIPOS>BOND
     1    22    20    1
     2    20    21    1
     3    20    19   am
     4    23    19    2
     5    19    14    1
     6    14    13    1
     7    14    15    2
     8    13    12    2
     9     3     2    1
    10    10     9    1
    11    17    15    1
    12    15    16    1
    13     4     2    1
    14     4     5    2
    15    12     9    1
    16    12    18    1
    17     2     1    2
    18     9     8   am
    19     5     6    1
    20    16    18    2
    21     1     8    1
    22     1     7    1
    23     8    11    2
    24     6     7    2
    25     7    24    1
    26    24    25    1
    27    25    32    2
    28    25    26    1
    29    32    30    1
    30    26    27    2
    31    30    28    2
    32    30    31    1
    33    27    28    1
    34    28    29    1
