@<TRIPOS>MOLECULE
29487_out_ligand_01.pdbqt
 35 38 0 0 0
SMALL
GASTEIGER

@<TRIPOS>ATOM
      1  C         17.1450  -22.8630   -8.9400 C.2     1  UNL1        0.0800
      2  C         16.4300  -22.1420   -9.8980 C.2     1  UNL1        0.0260
      3  C         17.1170  -21.4550  -10.9030 C.2     1  UNL1        0.0090
      4  C         18.5200  -21.4820  -10.9610 C.2     1  UNL1       -0.0460
      5  C         19.2260  -20.7140  -12.0450 C.3     1  UNL1        0.0490
      6  C         19.2180  -22.2400  -10.0030 C.2     1  UNL1        0.0390
      7  C         18.5380  -22.9270   -8.9930 C.2     1  UNL1        0.0420
      8  C         20.6930  -22.3230   -9.9860 C.2     1  UNL1        0.2570
      9  O         21.2900  -22.1980   -8.9240 O.2     1  UNL1       -0.2670
     10  N         21.2710  -22.5680  -11.2170 N.am    1  UNL1       -0.3070
     11  H         20.6920  -22.7120  -12.0310 H       1  UNL1        0.1700
     12  C         22.6450  -22.6670  -11.3540 C.ar    1  UNL1        0.1380
     13  N         23.4590  -23.3090  -10.4460 N.ar    1  UNL1       -0.2600
     14  N         24.7730  -23.2930  -10.7510 N.ar    1  UNL1       -0.1520
     15  H         23.1490  -23.7730   -9.5950 H       1  UNL1        0.1910
     16  C         24.8170  -22.6260  -11.9040 C.ar    1  UNL1        0.1850
     17  N         25.9240  -22.3410  -12.6380 N.2     1  UNL1       -0.2030
     18  C         23.5060  -22.2120  -12.3210 C.ar    1  UNL1        0.0590
     19  C         25.5980  -21.6430  -13.7530 C.2     1  UNL1        0.1640
     20  C         24.3280  -21.2160  -14.2000 C.2     1  UNL1        0.0590
     21  C         23.1720  -21.4960  -13.4640 C.2     1  UNL1        0.0240
     22  O         26.6770  -21.3410  -14.5260 O.2     1  UNL1       -0.3450
     23  H         26.2870  -21.4570  -15.4130 H       1  UNL1        0.2190
     24  S         16.2740  -23.7790   -7.6880 S.O2    1  UNL1        0.2630
     25  O         15.7610  -24.9840   -8.3020 O.2     1  UNL1       -0.2000
     26  O         15.3820  -22.8500   -7.0240 O.2     1  UNL1       -0.2000
     27  N         17.4710  -24.1610   -6.5710 N.pl3   1  UNL1       -0.2810
     28  H         17.5200  -25.1610   -6.3810 H       1  UNL1        0.1790
     29  C         17.8250  -23.2590   -5.5290 C.2     1  UNL1        0.0430
     30  C         17.5110  -23.6120   -4.2150 C.2     1  UNL1        0.0300
     31  C         17.8080  -22.7390   -3.1700 C.2     1  UNL1        0.0030
     32  C         18.4270  -21.5150   -3.4340 C.2     1  UNL1        0.0070
     33  C         18.7800  -21.1680   -4.7410 C.2     1  UNL1       -0.0600
     34  C         19.4120  -19.8400   -5.0200 C.3     1  UNL1        0.0480
     35  C         18.4820  -22.0530   -5.7860 C.2     1  UNL1        0.0370
@<TRIPOS>BOND
     1    23    22    1
     2    22    19    1
     3    20    19    1
     4    20    21    2
     5    19    17    2
     6    21    18    1
     7    17    16    1
     8    18    16   ar
     9    18    12   ar
    10     5     4    1
    11    11    10    1
    12    16    14   ar
    13    12    10    1
    14    12    13   ar
    15    10     8   am
    16     4     3    2
    17     4     6    1
    18     3     2    1
    19    14    13   ar
    20    13    15    1
    21     6     8    1
    22     6     7    2
    23     8     9    2
    24     2     1    2
    25     7     1    1
    26     1    24    1
    27    25    24    2
    28    24    26    2
    29    24    27    1
    30    27    28    1
    31    27    29    1
    32    35    29    2
    33    35    33    1
    34    29    30    1
    35    34    33    1
    36    33    32    2
    37    30    31    2
    38    32    31    1
