@<TRIPOS>MOLECULE
29484_out_ligand_01.pdbqt
 26 29 0 0 0
SMALL
GASTEIGER

@<TRIPOS>ATOM
      1  N         20.0050  -23.4540   -8.5370 N.3     1  UNL1        0.0960
      2  H         20.6590  -24.2330   -8.5170 H       1  UNL1        0.3170
      3  C         19.6600  -23.1510   -9.9380 C.3     1  UNL1        0.2540
      4  C         18.4150  -22.2450  -10.0040 C.3     1  UNL1        0.0410
      5  C         18.1230  -21.8380  -11.4430 C.3     1  UNL1        0.0070
      6  C         19.2770  -21.0020  -11.9850 C.3     1  UNL1        0.0390
      7  C         20.6200  -21.6600  -11.7800 C.2     1  UNL1       -0.0470
      8  C         20.8200  -22.6620  -10.8040 C.2     1  UNL1       -0.0190
      9  C         21.6990  -21.2310  -12.5690 C.2     1  UNL1        0.0490
     10  C         22.0920  -23.2640  -10.7080 C.2     1  UNL1        0.0130
     11  C         23.1530  -22.8380  -11.5080 C.2     1  UNL1        0.0430
     12  C         22.9480  -21.8200  -12.4250 C.2     1  UNL1        0.1170
     13  F         23.9660  -21.4060  -13.1920 F       1  UNL1       -0.2060
     14  C         20.5840  -22.3370   -7.7920 C.3     1  UNL1        0.3090
     15  C         19.6850  -21.9580   -6.6340 C.2     1  UNL1       -0.0290
     16  C         19.9860  -20.8550   -5.8270 C.2     1  UNL1        0.0090
     17  C         19.1520  -20.5140   -4.7650 C.2     1  UNL1        0.0020
     18  C         18.0120  -21.2760   -4.4970 C.2     1  UNL1        0.0150
     19  C         17.6900  -22.3930   -5.2800 C.2     1  UNL1        0.0120
     20  C         18.5340  -22.7190   -6.3520 C.2     1  UNL1        0.0240
     21  C         16.4940  -23.1720   -4.9580 C.2     1  UNL1        0.1610
     22  N         16.3470  -24.0240   -3.9570 N.2     1  UNL1       -0.1300
     23  N         15.0780  -24.5540   -4.0100 N.2     1  UNL1       -0.1430
     24  C         14.4750  -24.0240   -5.0460 C.2     1  UNL1        0.2330
     25  N         15.3190  -23.1580   -5.6680 N.pl3   1  UNL1       -0.3320
     26  H         15.1240  -22.6220   -6.4990 H       1  UNL1        0.1680
@<TRIPOS>BOND
     1    13    12    1
     2     9    12    1
     3     9     7    2
     4    12    11    2
     5     6     7    1
     6     6     5    1
     7     7     8    1
     8    11    10    1
     9     5     4    1
    10     8    10    2
    11     8     3    1
    12     4     3    1
    13     3     1    1
    14     1     2    1
    15     1    14    1
    16    14    15    1
    17    15    20    2
    18    15    16    1
    19    26    25    1
    20    20    19    1
    21    16    17    2
    22    25    24    1
    23    25    21    1
    24    19    21    1
    25    19    18    2
    26    24    23    2
    27    21    22    2
    28    17    18    1
    29    23    22    1
