@<TRIPOS>MOLECULE
29496_out_ligand_01.pdbqt
 34 38 0 0 0
SMALL
GASTEIGER

@<TRIPOS>ATOM
      1  C         20.7720  -22.7530  -10.6000 C.2     1  UNL1       -0.0380
      2  C         20.6280  -21.7770  -11.6000 C.2     1  UNL1        0.0090
      3  C         19.3690  -21.2670  -11.9270 C.2     1  UNL1        0.0030
      4  C         18.2330  -21.7450  -11.2770 C.2     1  UNL1        0.0370
      5  C         18.3590  -22.7440  -10.3110 C.2     1  UNL1        0.0760
      6  C         19.6200  -23.2320   -9.9590 C.2     1  UNL1        0.0460
      7  C         22.1200  -23.3320  -10.2430 C.3     1  UNL1        0.1610
      8  N         23.1660  -22.8910  -11.1310 N.am    1  UNL1       -0.3510
      9  C         23.9650  -21.8060  -10.8540 C.2     1  UNL1        0.2730
     10  O         23.9680  -21.2120   -9.7810 O.2     1  UNL1       -0.2660
     11  H         23.2020  -23.2570  -12.0770 H       1  UNL1        0.1630
     12  C         24.8170  -21.4280  -11.9720 C.2     1  UNL1        0.1580
     13  C         24.6000  -21.6450  -13.3160 C.2     1  UNL1        0.1470
     14  N         25.7060  -21.1240  -13.9240 N.pl3   1  UNL1       -0.2750
     15  N         26.5420  -20.5730  -13.0210 N.2     1  UNL1        0.0050
     16  N         26.0170  -20.7670  -11.8190 N.2     1  UNL1       -0.1530
     17  C         25.9820  -21.0160  -15.3440 C.3     1  UNL1        0.2280
     18  C         25.3920  -22.1600  -16.0760 C.2     1  UNL1        0.1750
     19  N         24.2310  -22.0650  -16.8040 N.2     1  UNL1       -0.2070
     20  C         24.0800  -23.2920  -17.2500 C.2     1  UNL1        0.1690
     21  C         23.0310  -23.8600  -18.1130 C.3     1  UNL1        0.1020
     22  O         25.0590  -24.1450  -16.8290 O.2     1  UNL1       -0.1970
     23  N         25.9300  -23.3900  -16.0390 N.4     1  UNL1       -0.1090
     24  O         17.2770  -23.2470   -9.6260 O.2     1  UNL1       -0.3110
     25  C         17.3400  -23.2400   -8.2490 C.2     1  UNL1        0.0760
     26  C         16.6800  -24.2720   -7.5880 C.2     1  UNL1        0.0380
     27  C         16.6760  -24.3170   -6.1920 C.2     1  UNL1        0.0150
     28  C         17.3170  -23.3180   -5.4400 C.2     1  UNL1       -0.0260
     29  C         17.3230  -23.3480   -4.0360 C.2     1  UNL1        0.0120
     30  C         17.9670  -22.2560   -6.1130 C.2     1  UNL1       -0.0230
     31  C         17.9580  -22.3420   -3.3040 C.2     1  UNL1        0.0010
     32  C         18.5980  -21.2970   -3.9650 C.2     1  UNL1        0.0010
     33  C         18.6030  -21.2550   -5.3610 C.2     1  UNL1        0.0120
     34  C         17.9630  -22.2240   -7.5170 C.2     1  UNL1        0.0490
@<TRIPOS>BOND
     1    21    20    1
     2    20    22    1
     3    20    19    2
     4    22    23    1
     5    19    18    2
     6    18    23    1
     7    18    17    1
     8    17    14    1
     9    14    13    1
    10    14    15    1
    11    13    12    2
    12    15    16    2
    13    11     8    1
    14    12    16    1
    15    12     9    1
    16     3     2    1
    17     3     4    2
    18     2     1    2
    19     4     5    1
    20     8     9   am
    21     8     7    1
    22     9    10    2
    23     1     7    1
    24     1     6    1
    25     5     6    2
    26     5    24    1
    27    24    25    1
    28    25    26    2
    29    25    34    1
    30    26    27    1
    31    34    30    2
    32    27    28    2
    33    30    28    1
    34    30    33    1
    35    28    29    1
    36    33    32    2
    37    29    31    2
    38    32    31    1
