@<TRIPOS>MOLECULE
29502_out_ligand_01.pdbqt
 35 37 0 0 0
SMALL
GASTEIGER

@<TRIPOS>ATOM
      1  C         19.2490  -23.3530   -9.3500 C.2     1  UNL1       -0.0400
      2  C         18.8810  -22.4700  -10.3720 C.2     1  UNL1        0.0090
      3  C         17.5600  -22.0300  -10.4840 C.2     1  UNL1        0.0010
      4  C         16.5960  -22.4620   -9.5710 C.2     1  UNL1        0.0090
      5  C         16.9420  -23.3400   -8.5370 C.2     1  UNL1       -0.0300
      6  C         18.2720  -23.7760   -8.4370 C.2     1  UNL1        0.0170
      7  C         20.6720  -23.8220   -9.1990 C.3     1  UNL1        0.1610
      8  N         21.4640  -23.4990  -10.3640 N.am    1  UNL1       -0.3530
      9  C         22.2660  -22.3800  -10.4040 C.2     1  UNL1        0.2510
     10  O         22.4240  -21.6060   -9.4680 O.2     1  UNL1       -0.2680
     11  H         21.1960  -23.9260  -11.2400 H       1  UNL1        0.1630
     12  C         22.9440  -22.1260  -11.6990 C.2     1  UNL1        0.0320
     13  C         22.2840  -21.4680  -12.7420 C.2     1  UNL1        0.0170
     14  C         22.9340  -21.2760  -13.9630 C.2     1  UNL1        0.0100
     15  C         24.2500  -21.7330  -14.1530 C.2     1  UNL1       -0.0400
     16  C         24.8980  -22.3930  -13.1000 C.2     1  UNL1        0.0100
     17  C         24.2450  -22.6000  -11.8830 C.2     1  UNL1        0.0170
     18  C         24.9410  -21.5330  -15.4790 C.3     1  UNL1        0.1610
     19  N         24.1330  -22.0200  -16.5720 N.am    1  UNL1       -0.3570
     20  C         24.2810  -23.2860  -17.0740 C.2     1  UNL1        0.2130
     21  C         23.2880  -23.6280  -18.1470 C.3     1  UNL1        0.1170
     22  O         25.1210  -24.0830  -16.6810 O.2     1  UNL1       -0.2740
     23  H         23.3190  -21.4850  -16.8270 H       1  UNL1        0.1620
     24  C         15.9100  -23.8090   -7.5330 C.3     1  UNL1        0.3110
     25  N         16.3200  -23.6380   -6.1280 N.3     1  UNL1        0.0930
     26  C         15.1600  -23.5170   -5.2250 C.3     1  UNL1        0.2730
     27  C         15.4330  -22.7040   -3.9530 C.3     1  UNL1        0.0310
     28  C         16.8790  -22.8470   -3.4810 C.3     1  UNL1        0.0170
     29  C         17.8750  -22.4880   -4.5970 C.3     1  UNL1        0.1060
     30  C         17.2350  -22.4980   -5.9910 C.3     1  UNL1        0.2860
     31  C         18.5660  -21.1500   -4.3820 C.2     1  UNL1        0.2210
     32  N         18.4360  -20.5680   -3.1540 N.am    1  UNL1       -0.3700
     33  H         18.1870  -21.0990   -2.3340 H       1  UNL1        0.1590
     34  H         18.9780  -19.7230   -3.0110 H       1  UNL1        0.1590
     35  O         19.1650  -20.5600   -5.2770 O.2     1  UNL1       -0.2730
@<TRIPOS>BOND
     1    21    20    1
     2    20    22    2
     3    20    19   am
     4    23    19    1
     5    19    18    1
     6    18    15    1
     7    15    14    2
     8    15    16    1
     9    14    13    1
    10    16    17    2
    11    13    12    2
    12    17    12    1
    13    12     9    1
    14    11     8    1
    15     3     2    1
    16     3     4    2
    17     9     8   am
    18     9    10    2
    19     2     1    2
    20     8     7    1
    21     4     5    1
    22     1     7    1
    23     1     6    1
    24     5     6    2
    25     5    24    1
    26    24    25    1
    27    25    30    1
    28    25    26    1
    29    30    29    1
    30    35    31    2
    31    26    27    1
    32    29    31    1
    33    29    28    1
    34    31    32   am
    35    27    28    1
    36    32    34    1
    37    32    33    1
