@<TRIPOS>MOLECULE
29508_out_ligand_01.pdbqt
 32 34 0 0 0
SMALL
GASTEIGER

@<TRIPOS>ATOM
      1  C         21.7380  -23.2490   -9.3460 C.2     1  UNL1        0.2570
      2  O         22.6930  -23.9870   -9.1380 O.2     1  UNL1       -0.2670
      3  N         21.5730  -22.3760  -10.4060 N.am    1  UNL1       -0.3230
      4  H         20.8290  -21.6970  -10.3340 H       1  UNL1        0.1690
      5  C         20.6360  -23.2500   -8.3580 C.2     1  UNL1        0.0500
      6  C         20.4300  -22.2150   -7.4490 C.2     1  UNL1        0.0220
      7  C         19.3320  -22.2790   -6.5870 C.2     1  UNL1        0.0510
      8  C         18.4480  -23.3610   -6.6420 C.2     1  UNL1        0.1250
      9  N         18.6680  -24.3750   -7.5100 N.2     1  UNL1       -0.2420
     10  C         19.7280  -24.2950   -8.3560 C.2     1  UNL1        0.1360
     11  N         17.3500  -23.4240   -5.7880 N.pl3   1  UNL1       -0.3610
     12  C         17.5850  -23.8590   -4.4020 C.3     1  UNL1        0.1560
     13  C         17.0110  -22.8830   -3.3510 C.3     1  UNL1        0.1360
     14  C         17.8770  -21.6390   -3.1540 C.3     1  UNL1        0.0410
     15  O         15.6500  -22.4870   -3.5680 O.3     1  UNL1       -0.3780
     16  C         15.2090  -22.4940   -4.9340 C.3     1  UNL1        0.1360
     17  C         16.3430  -22.3690   -5.9710 C.3     1  UNL1        0.1560
     18  C         14.3340  -23.7280   -5.1550 C.3     1  UNL1        0.0410
     19  C         22.4090  -22.2470  -11.5360 C.2     1  UNL1        0.0350
     20  C         21.9440  -21.4570  -12.5930 C.2     1  UNL1        0.0300
     21  C         22.7090  -21.2890  -13.7540 C.2     1  UNL1        0.0110
     22  C         23.9550  -21.9100  -13.8760 C.2     1  UNL1       -0.0400
     23  C         24.4120  -22.7120  -12.8230 C.2     1  UNL1        0.0110
     24  C         23.6460  -22.8760  -11.6640 C.2     1  UNL1        0.0300
     25  C         24.7820  -21.7500  -15.1230 C.3     1  UNL1        0.1620
     26  N         24.0160  -22.1010  -16.2970 N.am    1  UNL1       -0.3440
     27  C         24.2440  -23.2930  -16.9110 C.2     1  UNL1        0.2920
     28  N         23.5430  -23.4180  -18.0660 N.am    1  UNL1       -0.2540
     29  O         24.9820  -24.1760  -16.5040 O.2     1  UNL1       -0.2540
     30  H         22.6000  -23.0540  -18.0390 H       1  UNL1        0.1280
     31  H         23.6060  -24.3520  -18.4530 H       1  UNL1        0.1280
     32  H         23.7980  -21.3470  -16.9310 H       1  UNL1        0.1640
@<TRIPOS>BOND
     1    31    28    1
     2    28    30    1
     3    28    27   am
     4    32    26    1
     5    27    29    2
     6    27    26   am
     7    26    25    1
     8    25    22    1
     9    22    21    2
    10    22    23    1
    11    21    20    1
    12    23    24    2
    13    20    19    2
    14    24    19    1
    15    19     3    1
    16     3     4    1
    17     3     1   am
    18     1     2    2
    19     1     5    1
    20     5    10    2
    21     5     6    1
    22    10     9    1
    23     9     8    2
    24     6     7    2
    25     8     7    1
    26     8    11    1
    27    17    11    1
    28    17    16    1
    29    11    12    1
    30    18    16    1
    31    16    15    1
    32    12    13    1
    33    15    13    1
    34    13    14    1
