@<TRIPOS>MOLECULE
29506_out_ligand_01.pdbqt
 39 43 0 0 0
SMALL
GASTEIGER

@<TRIPOS>ATOM
      1  C         20.2880  -21.7990  -11.2790 C.2     1  UNL1        0.0320
      2  C         20.8720  -22.6220  -10.3050 C.2     1  UNL1        0.0190
      3  C         22.2040  -23.0270  -10.4400 C.2     1  UNL1        0.0310
      4  C         22.9490  -22.6160  -11.5450 C.2     1  UNL1        0.0420
      5  C         22.3700  -21.8160  -12.5260 C.2     1  UNL1        0.0310
      6  C         21.0400  -21.4090  -12.3940 C.2     1  UNL1        0.0190
      7  N         24.2870  -23.0650  -11.7090 N.pl3   1  UNL1       -0.2810
      8  H         24.5120  -23.5740  -12.5630 H       1  UNL1        0.1790
      9  S         25.5340  -21.9920  -11.3140 S.O2    1  UNL1        0.2630
     10  O         26.7230  -22.7390  -10.9650 O.2     1  UNL1       -0.2000
     11  O         24.9590  -21.0340  -10.3940 O.2     1  UNL1       -0.2000
     12  C         25.8170  -21.1480  -12.8510 C.2     1  UNL1        0.0820
     13  C         25.6280  -21.8530  -14.0670 C.2     1  UNL1        0.0280
     14  C         25.8280  -21.2180  -15.2980 C.2     1  UNL1        0.0330
     15  C         26.2010  -19.8950  -15.2540 C.ar    1  UNL1        0.0630
     16  N         26.4670  -19.0140  -16.2960 N.ar    1  UNL1       -0.3070
     17  C         26.3740  -19.2040  -14.0540 C.ar    1  UNL1        0.0640
     18  C         26.8050  -17.7650  -15.7560 C.ar    1  UNL1        0.3250
     19  H         26.4240  -19.2010  -17.2840 H       1  UNL1        0.1700
     20  O         27.0950  -16.7590  -16.3790 O.2     1  UNL1       -0.2470
     21  N         26.7460  -17.9010  -14.3620 N.ar    1  UNL1       -0.3060
     22  H         26.9420  -17.1500  -13.7180 H       1  UNL1        0.1700
     23  C         26.1850  -19.7950  -12.8300 C.2     1  UNL1        0.0570
     24  C         18.8710  -21.3490  -11.1890 C.2     1  UNL1        0.2510
     25  O         18.5270  -20.3010  -11.7210 O.2     1  UNL1       -0.2680
     26  N         18.0160  -22.1490  -10.4600 N.am    1  UNL1       -0.3570
     27  H         18.3910  -22.8900   -9.8840 H       1  UNL1        0.1620
     28  C         16.6270  -21.7720  -10.2570 C.3     1  UNL1        0.1270
     29  C         15.8070  -22.9010   -9.6260 C.3     1  UNL1        0.0580
     30  C         16.2290  -23.1640   -8.2020 C.2     1  UNL1       -0.0560
     31  C         17.3520  -23.9540   -7.9350 C.2     1  UNL1        0.0080
     32  C         17.7590  -24.1830   -6.6190 C.2     1  UNL1        0.0130
     33  C         17.0550  -23.6240   -5.5420 C.2     1  UNL1       -0.0260
     34  C         17.4530  -23.8440   -4.2130 C.2     1  UNL1        0.0120
     35  C         15.9200  -22.8220   -5.8010 C.2     1  UNL1       -0.0250
     36  C         16.7430  -23.2800   -3.1530 C.2     1  UNL1        0.0010
     37  C         15.6260  -22.4900   -3.4060 C.2     1  UNL1        0.0010
     38  C         15.2160  -22.2630   -4.7210 C.2     1  UNL1        0.0120
     39  C         15.5220  -22.6010   -7.1300 C.2     1  UNL1        0.0190
@<TRIPOS>BOND
     1    19    16    1
     2    20    18    2
     3    16    18   ar
     4    16    15   ar
     5    18    21   ar
     6    14    15    2
     7    14    13    1
     8    15    17   ar
     9    21    17   ar
    10    21    22    1
    11    13    12    2
    12    17    23    2
    13    12    23    1
    14    12     9    1
    15     8     7    1
    16     5     6    1
    17     5     4    2
    18     6     1    2
    19    25    24    2
    20     7     4    1
    21     7     9    1
    22     4     3    1
    23     9    10    2
    24     9    11    2
    25     1    24    1
    26     1     2    1
    27    24    26   am
    28    26    28    1
    29    26    27    1
    30     3     2    2
    31    28    29    1
    32    29    30    1
    33    30    31    2
    34    30    39    1
    35    31    32    1
    36    39    35    2
    37    32    33    2
    38    35    33    1
    39    35    38    1
    40    33    34    1
    41    38    37    2
    42    34    36    2
    43    37    36    1
