@<TRIPOS>MOLECULE
29522_out_ligand_01.pdbqt
 36 40 0 0 0
SMALL
GASTEIGER

@<TRIPOS>ATOM
      1  C         21.4850  -23.2380   -8.8110 C.2     1  UNL1        0.2780
      2  O         21.0220  -24.3610   -8.6440 O.2     1  UNL1       -0.2650
      3  N         21.0770  -22.0870   -8.1520 N.am    1  UNL1       -0.3220
      4  H         21.6430  -21.2630   -8.3050 H       1  UNL1        0.1690
      5  C         22.5880  -23.0050   -9.7460 C.ar    1  UNL1        0.1660
      6  C         22.5750  -22.3650  -10.9830 C.ar    1  UNL1        0.0640
      7  C         21.4250  -21.8590  -11.7700 C.3     1  UNL1        0.0720
      8  N         23.9060  -22.4010  -11.3980 N.ar    1  UNL1       -0.2400
      9  N         24.6230  -23.1340  -10.5090 N.ar    1  UNL1        0.0110
     10  N         23.8420  -23.4870   -9.5040 N.ar    1  UNL1       -0.1520
     11  C         24.5720  -21.8120  -12.5150 C.2     1  UNL1        0.0570
     12  C         25.6320  -20.9050  -12.3700 C.2     1  UNL1        0.0340
     13  C         26.2690  -20.3720  -13.4980 C.2     1  UNL1        0.0420
     14  C         25.8620  -20.7480  -14.7750 C.2     1  UNL1        0.1020
     15  C         24.8030  -21.6420  -14.9340 C.2     1  UNL1        0.1040
     16  O         26.5560  -20.2070  -15.8260 O.2     1  UNL1       -0.3460
     17  C         24.1710  -22.1840  -13.8130 C.2     1  UNL1        0.0710
     18  O         24.3360  -22.0450  -16.1590 O.2     1  UNL1       -0.3460
     19  C         24.8260  -21.2060  -17.2120 C.3     1  UNL1        0.2020
     20  C         26.3130  -20.9350  -17.0370 C.3     1  UNL1        0.2020
     21  C         20.0450  -21.9550   -7.1990 C.2     1  UNL1        0.0350
     22  C         20.2830  -21.0970   -6.1210 C.2     1  UNL1        0.0290
     23  C         19.3180  -20.9220   -5.1320 C.2     1  UNL1        0.0030
     24  C         18.1030  -21.6020   -5.2120 C.2     1  UNL1        0.0100
     25  C         17.8210  -22.4620   -6.2890 C.2     1  UNL1       -0.0190
     26  C         18.8150  -22.6210   -7.2780 C.2     1  UNL1        0.0390
     27  C         16.4870  -23.2040   -6.3500 C.3     1  UNL1        0.1390
     28  C         16.4230  -24.4380   -7.2620 C.3     1  UNL1        0.0540
     29  N         15.4090  -22.2950   -6.7120 N.am    1  UNL1       -0.3210
     30  C         14.4270  -22.2310   -5.7510 C.2     1  UNL1        0.3240
     31  H         15.3690  -21.7350   -7.5560 H       1  UNL1        0.1650
     32  O         13.4260  -21.5380   -5.8200 O.2     1  UNL1       -0.2470
     33  N         14.7740  -23.0410   -4.7210 N.am    1  UNL1       -0.2770
     34  C         15.9870  -23.6260   -4.9440 C.2     1  UNL1        0.2580
     35  H         14.2360  -23.1480   -3.8760 H       1  UNL1        0.1730
     36  O         16.5490  -24.3690   -4.1500 O.2     1  UNL1       -0.2700
@<TRIPOS>BOND
     1    19    20    1
     2    19    18    1
     3    20    16    1
     4    18    15    1
     5    16    14    1
     6    15    14    2
     7    15    17    1
     8    14    13    1
     9    17    11    2
    10    13    12    2
    11    11    12    1
    12    11     8    1
    13     7     6    1
    14     8     6   ar
    15     8     9   ar
    16     6     5   ar
    17     9    10   ar
    18     5    10   ar
    19     5     1    1
    20     1     2    2
    21     1     3   am
    22     4     3    1
    23     3    21    1
    24    31    29    1
    25    26    21    2
    26    26    25    1
    27    28    27    1
    28    21    22    1
    29    29    27    1
    30    29    30   am
    31    27    25    1
    32    27    34    1
    33    25    24    2
    34    22    23    2
    35    32    30    2
    36    30    33   am
    37    24    23    1
    38    34    33   am
    39    34    36    2
    40    33    35    1
