@<TRIPOS>MOLECULE
29541_out_ligand_01.pdbqt
 26 28 0 0 0
SMALL
GASTEIGER

@<TRIPOS>ATOM
      1  N         20.5220  -22.0510  -10.3000 N.am    1  UNL1       -0.3220
      2  C         19.9110  -23.1980   -9.8210 C.2     1  UNL1        0.2570
      3  O         20.4490  -24.2880   -9.6780 O.2     1  UNL1       -0.2670
      4  H         19.9710  -21.2090  -10.2390 H       1  UNL1        0.1690
      5  C         21.8440  -21.8940  -10.7820 C.2     1  UNL1        0.0420
      6  C         22.1490  -21.8270  -12.1490 C.2     1  UNL1        0.0470
      7  C         23.4700  -21.6540  -12.5840 C.2     1  UNL1        0.0340
      8  C         24.5060  -21.5640  -11.6540 C.2     1  UNL1        0.0170
      9  C         24.2190  -21.6310  -10.2930 C.2     1  UNL1        0.0100
     10  C         22.8960  -21.7910   -9.8420 C.2     1  UNL1       -0.0350
     11  C         22.6590  -21.8540   -8.3550 C.3     1  UNL1        0.0500
     12  C         23.7380  -21.5930  -14.0460 C.2     1  UNL1        0.2490
     13  N         23.1690  -20.5610  -14.7400 N.am    1  UNL1       -0.3660
     14  H         23.2480  -20.6220  -15.7480 H       1  UNL1        0.1590
     15  H         22.3850  -20.0450  -14.3680 H       1  UNL1        0.1590
     16  O         24.4090  -22.4390  -14.6200 O.2     1  UNL1       -0.2680
     17  C         18.4990  -22.9990   -9.4370 C.2     1  UNL1        0.0460
     18  C         17.4530  -22.8730  -10.3390 C.2     1  UNL1        0.0670
     19  S         15.9370  -22.6260   -9.5910 S.3     1  UNL1       -0.1050
     20  C         16.6320  -22.7130   -8.0450 C.2     1  UNL1       -0.0100
     21  C         17.9940  -22.9440   -8.0820 C.2     1  UNL1       -0.0290
     22  C         15.8050  -22.5830   -6.8020 C.3     1  UNL1        0.0510
     23  C         18.8060  -23.0570   -6.8180 C.3     1  UNL1        0.0410
     24  C         17.9240  -23.2460   -5.5730 C.3     1  UNL1        0.0090
     25  C         16.7050  -22.3020   -5.5810 C.3     1  UNL1       -0.0140
     26  C         15.9060  -22.4370   -4.2860 C.3     1  UNL1        0.0100
@<TRIPOS>BOND
     1    14    13    1
     2    13    15    1
     3    13    12   am
     4    16    12    2
     5    12     7    1
     6     7     6    1
     7     7     8    2
     8     6     5    2
     9     8     9    1
    10     5     1    1
    11     5    10    1
    12    18    19    1
    13    18    17    2
    14     1     4    1
    15     1     2   am
    16     9    10    2
    17    10    11    1
    18     2     3    2
    19     2    17    1
    20    19    20    1
    21    17    21    1
    22    21    20    2
    23    21    23    1
    24    20    22    1
    25    23    24    1
    26    22    25    1
    27    25    24    1
    28    25    26    1
