@<TRIPOS>MOLECULE
29542_out_ligand_01.pdbqt
 33 36 0 0 0
SMALL
GASTEIGER

@<TRIPOS>ATOM
      1  C         23.4000  -22.5650  -11.2890 C.2     1  UNL1        0.2590
      2  O         22.6000  -21.8200  -11.8450 O.2     1  UNL1       -0.2670
      3  N         23.2060  -23.2080  -10.0810 N.am    1  UNL1       -0.3230
      4  H         23.9510  -23.8120   -9.7510 H       1  UNL1        0.1690
      5  C         22.0760  -23.1390   -9.2400 C.2     1  UNL1        0.0350
      6  C         21.0890  -24.1150   -9.4150 C.2     1  UNL1        0.0300
      7  C         19.9370  -24.1170   -8.6200 C.2     1  UNL1        0.0170
      8  C         19.7410  -23.1480   -7.6280 C.2     1  UNL1        0.0100
      9  C         20.7310  -22.1720   -7.4580 C.2     1  UNL1        0.0170
     10  C         21.8870  -22.1700   -8.2550 C.2     1  UNL1        0.0300
     11  C         18.5170  -23.1920   -6.8180 C.ar    1  UNL1        0.1390
     12  N         17.4450  -23.9190   -7.0800 N.ar    1  UNL1       -0.2280
     13  C         16.5480  -23.6640   -6.0730 C.ar    1  UNL1        0.0860
     14  C         15.2570  -24.1700   -5.8690 C.2     1  UNL1        0.0340
     15  C         17.0740  -22.7620   -5.1610 C.ar    1  UNL1        0.0620
     16  C         14.5390  -23.7440   -4.7440 C.2     1  UNL1        0.0020
     17  C         15.0970  -22.8340   -3.8420 C.2     1  UNL1        0.0020
     18  C         16.3850  -22.3190   -4.0310 C.2     1  UNL1        0.0320
     19  N         18.3230  -22.4800   -5.6540 N.ar    1  UNL1       -0.3380
     20  H         18.9900  -21.8580   -5.2260 H       1  UNL1        0.1670
     21  C         24.7050  -22.8080  -11.9760 C.2     1  UNL1        0.0720
     22  C         25.9180  -22.2760  -11.5270 C.2     1  UNL1        0.1320
     23  C         27.1180  -22.5460  -12.1890 C.2     1  UNL1        0.0450
     24  F         25.9670  -21.4890  -10.4410 F       1  UNL1       -0.2050
     25  C         27.1210  -23.3610  -13.3200 C.2     1  UNL1        0.0280
     26  C         25.9160  -23.9020  -13.7770 C.2     1  UNL1        0.0750
     27  C         24.7110  -23.6240  -13.1200 C.2     1  UNL1        0.0450
     28  S         25.8970  -24.9230  -15.2280 S.O2    1  UNL1        0.2390
     29  O         27.0550  -25.7820  -15.1950 O.2     1  UNL1       -0.2060
     30  O         25.5790  -24.0830  -16.3590 O.2     1  UNL1       -0.2060
     31  N         24.5420  -25.8810  -14.9570 N.3     1  UNL1       -0.2250
     32  H         24.1130  -26.2480  -15.8060 H       1  UNL1        0.1360
     33  H         24.7810  -26.6220  -14.2960 H       1  UNL1        0.1360
@<TRIPOS>BOND
     1    30    28    2
     2    32    31    1
     3    28    29    2
     4    28    31    1
     5    28    26    1
     6    31    33    1
     7    26    25    2
     8    26    27    1
     9    25    23    1
    10    27    21    2
    11    23    22    2
    12    21    22    1
    13    21     1    1
    14     2     1    2
    15    22    24    1
    16     1     3   am
    17     3     4    1
    18     3     5    1
    19     6     5    2
    20     6     7    1
    21     5    10    1
    22     7     8    2
    23    10     9    2
    24     8     9    1
    25     8    11    1
    26    12    11   ar
    27    12    13   ar
    28    11    19   ar
    29    13    14    2
    30    13    15   ar
    31    14    16    1
    32    19    20    1
    33    19    15   ar
    34    15    18    2
    35    16    17    2
    36    18    17    1
