@<TRIPOS>MOLECULE
29540_out_ligand_01.pdbqt
 32 35 0 0 0
SMALL
GASTEIGER

@<TRIPOS>ATOM
      1  C         18.3230  -22.5250   -9.3780 C.2     1  UNL1        0.0550
      2  C         19.6750  -22.3260   -9.7170 C.2     1  UNL1        0.0480
      3  C         20.0280  -21.7460  -10.9370 C.2     1  UNL1        0.0360
      4  C         19.0130  -21.3820  -11.8290 C.2     1  UNL1        0.0310
      5  C         17.6700  -21.5870  -11.5040 C.2     1  UNL1        0.0270
      6  C         17.3180  -22.1590  -10.2810 C.2     1  UNL1        0.0490
      7 CL         15.6330  -22.4120   -9.9890 Cl      1  UNL1       -0.0830
      8  N         21.3540  -21.5030  -11.3500 N.am    1  UNL1       -0.3230
      9  C         22.4540  -22.3180  -11.1880 C.2     1  UNL1        0.2600
     10  O         22.4660  -23.4030  -10.6130 O.2     1  UNL1       -0.2670
     11  H         21.5130  -20.6090  -11.8130 H       1  UNL1        0.1690
     12  C         23.7190  -21.7700  -11.7720 C.2     1  UNL1        0.0800
     13  C         24.8370  -21.7410  -11.0120 C.2     1  UNL1        0.0220
     14  C         26.1010  -21.2270  -11.5100 C.2     1  UNL1        0.0190
     15  C         26.1850  -20.7600  -12.7640 C.3     1  UNL1        0.1030
     16  N         25.0660  -20.7810  -13.5470 N.am    1  UNL1       -0.2550
     17  C         24.9140  -20.3600  -14.8450 C.2     1  UNL1        0.3480
     18  C         23.8490  -21.2450  -13.1550 C.2     1  UNL1        0.1730
     19  O         25.7410  -19.8730  -15.5960 O.2     1  UNL1       -0.2450
     20  N         23.5720  -20.6100  -15.1440 N.am    1  UNL1       -0.2260
     21  N         22.9220  -21.1650  -14.0680 N.pl3   1  UNL1       -0.1510
     22  H         23.1230  -20.4170  -16.0290 H       1  UNL1        0.1940
     23  C         18.0580  -23.1500   -8.0570 C.2     1  UNL1        0.2530
     24  O         18.6430  -24.1800   -7.7450 O.2     1  UNL1       -0.2680
     25  N         17.1910  -22.4780   -7.2230 N.am    1  UNL1       -0.3520
     26  H         16.8340  -21.5770   -7.5160 H       1  UNL1        0.1630
     27  C         16.9470  -22.9090   -5.8550 C.3     1  UNL1        0.0840
     28  C         15.4670  -22.7180   -5.4860 C.3     1  UNL1        0.0250
     29  C         15.2270  -22.5550   -3.9830 C.3     1  UNL1        0.0020
     30  C         16.2980  -23.2470   -3.1540 C.3     1  UNL1        0.0000
     31  C         17.6910  -22.6830   -3.4420 C.3     1  UNL1        0.0020
     32  C         17.8610  -22.1710   -4.8750 C.3     1  UNL1        0.0250
@<TRIPOS>BOND
     1    22    20    1
     2    19    17    2
     3    20    17   am
     4    20    21    1
     5    17    16   am
     6    21    18    1
     7    16    18    1
     8    16    15    1
     9    18    12    2
    10    15    14    1
    11     4     5    2
    12     4     3    1
    13    11     8    1
    14    12     9    1
    15    12    13    1
    16    14    13    2
    17     5     6    1
    18     8     9   am
    19     8     3    1
    20     9    10    2
    21     3     2    2
    22     6     7    1
    23     6     1    2
    24     2     1    1
    25     1    23    1
    26    23    24    2
    27    23    25   am
    28    26    25    1
    29    25    27    1
    30    27    28    1
    31    27    32    1
    32    28    29    1
    33    32    31    1
    34    29    30    1
    35    31    30    1
