@<TRIPOS>MOLECULE
2955_out_ligand_01.pdbqt
 33 35 0 0 0
SMALL
GASTEIGER

@<TRIPOS>ATOM
      1  N         15.8750  -22.9120   -7.6360 N.am    1  UNL1       -0.3500
      2  C         15.7610  -23.4640   -8.8840 C.2     1  UNL1        0.2410
      3  O         15.5590  -24.6480   -9.1140 O.2     1  UNL1       -0.2690
      4  H         16.1200  -21.9340   -7.5540 H       1  UNL1        0.1630
      5  C         15.8030  -22.4780   -9.9830 C.2     1  UNL1        0.0750
      6  C         16.9080  -21.9750  -10.5540 C.2     1  UNL1        0.0170
      7  C         18.2990  -22.3390  -10.2710 C.2     1  UNL1       -0.0330
      8  C         19.3150  -21.4110  -10.5470 C.2     1  UNL1        0.0140
      9  C         20.6580  -21.7510  -10.3620 C.2     1  UNL1        0.0410
     10  C         20.9940  -23.0320   -9.9290 C.2     1  UNL1        0.1140
     11  C         19.9860  -23.9520   -9.6390 C.2     1  UNL1        0.1500
     12  F         20.2870  -25.1760   -9.1820 F       1  UNL1       -0.2030
     13  C         18.6460  -23.6160   -9.8180 C.2     1  UNL1        0.0560
     14  O         22.3290  -23.3020   -9.7380 O.2     1  UNL1       -0.3060
     15  C         23.2190  -22.6200  -10.5270 C.2     1  UNL1        0.0930
     16  C         23.2740  -22.9520  -11.8780 C.2     1  UNL1        0.0400
     17  C         24.1930  -22.3080  -12.7010 C.2     1  UNL1        0.0220
     18  C         25.0380  -21.3660  -12.1340 C.2     1  UNL1        0.1160
     19  N         25.0280  -21.0380  -10.8230 N.2     1  UNL1       -0.2700
     20  C         24.1180  -21.6750  -10.0480 C.2     1  UNL1        0.1530
     21  C         15.7740  -23.7330   -6.4320 C.3     1  UNL1        0.1170
     22  C         14.5570  -23.3440   -5.5670 C.3     1  UNL1        0.0230
     23  C         14.1670  -21.8800   -5.7450 C.3     1  UNL1        0.0070
     24  C         17.1240  -23.8570   -5.6550 C.3     1  UNL1        0.1770
     25  O         16.8220  -24.2020   -4.2950 O.3     1  UNL1       -0.3890
     26  H         17.2890  -25.0360   -4.1130 H       1  UNL1        0.2100
     27  C         18.1130  -22.7120   -5.6110 C.2     1  UNL1        0.0110
     28  C         19.1790  -22.5260   -6.5010 C.2     1  UNL1        0.0130
     29  C         20.0240  -21.4130   -6.3930 C.2     1  UNL1        0.0010
     30  C         19.8300  -20.4720   -5.3850 C.2     1  UNL1        0.0030
     31  C         18.7940  -20.6490   -4.4750 C.2     1  UNL1        0.0430
     32  C         17.9540  -21.7550   -4.5930 C.2     1  UNL1        0.1250
     33  F         16.9740  -21.9000   -3.6880 F       1  UNL1       -0.2050
@<TRIPOS>BOND
     1    17    18    2
     2    17    16    1
     3    18    19    1
     4    16    15    2
     5    19    20    2
     6     6     7    1
     7     6     5    2
     8     8     9    1
     9     8     7    2
    10    15    20    1
    11    15    14    1
    12     9    10    2
    13     7    13    1
    14     5     2    1
    15    10    14    1
    16    10    11    1
    17    13    11    2
    18    11    12    1
    19     3     2    2
    20     2     1   am
    21     1     4    1
    22     1    21    1
    23    28    29    1
    24    28    27    2
    25    21    24    1
    26    21    22    1
    27    29    30    2
    28    23    22    1
    29    24    27    1
    30    24    25    1
    31    27    32    1
    32    30    31    1
    33    32    31    2
    34    32    33    1
    35    25    26    1
