@<TRIPOS>MOLECULE
29569_out_ligand_01.pdbqt
 32 35 0 0 0
SMALL
GASTEIGER

@<TRIPOS>ATOM
      1  C         17.9170  -21.9420  -10.5530 C.2     1  UNL1       -0.0400
      2  C         18.2630  -20.9500  -11.4830 C.2     1  UNL1        0.0100
      3  C         19.5590  -20.8800  -11.9960 C.2     1  UNL1        0.0170
      4  C         20.5250  -21.8100  -11.5970 C.2     1  UNL1        0.0320
      5  C         20.1940  -22.7920  -10.6530 C.2     1  UNL1        0.0170
      6  C         18.8960  -22.8560  -10.1370 C.2     1  UNL1        0.0100
      7  C         16.5230  -21.9870   -9.9810 C.3     1  UNL1        0.1610
      8  N         16.5650  -22.2870   -8.5710 N.am    1  UNL1       -0.3520
      9  C         16.0290  -23.4470   -8.0580 C.2     1  UNL1        0.2570
     10  O         15.5710  -24.3370   -8.7620 O.2     1  UNL1       -0.2670
     11  H         16.9120  -21.5750   -7.9450 H       1  UNL1        0.1630
     12  C         16.0400  -23.5120   -6.6080 C.2     1  UNL1        0.0970
     13  C         15.0550  -24.1150   -5.7920 C.2     1  UNL1        0.1600
     14  N         15.3610  -24.0870   -4.4980 N.2     1  UNL1       -0.1820
     15  N         16.5660  -23.4810   -4.4600 N.pl3   1  UNL1       -0.2570
     16  C         17.1010  -23.1730   -3.1530 C.3     1  UNL1        0.1820
     17  C         17.0250  -23.1180   -5.7070 C.2     1  UNL1        0.1470
     18  N         18.2320  -22.4540   -5.9570 N.pl3   1  UNL1       -0.3170
     19  C         19.2390  -22.8690   -6.8090 C.2     1  UNL1        0.0980
     20  C         20.2570  -21.9410   -6.8180 C.2     1  UNL1        0.0190
     21  C         19.8830  -20.9100   -5.9390 C.2     1  UNL1        0.0190
     22  C         18.6530  -21.2490   -5.4200 C.2     1  UNL1        0.0980
     23  C         21.8970  -21.7010  -12.1670 C.2     1  UNL1        0.2560
     24  O         22.0490  -21.0670  -13.2030 O.2     1  UNL1       -0.2670
     25  N         22.8760  -22.3770  -11.4610 N.am    1  UNL1       -0.3230
     26  H         22.5660  -22.9640  -10.6990 H       1  UNL1        0.1690
     27  C         24.2590  -22.4120  -11.7430 C.2     1  UNL1        0.0370
     28  C         24.7120  -23.4060  -12.6110 C.2     1  UNL1        0.0490
     29  C         26.0670  -23.4720  -12.8970 C.2     1  UNL1        0.1180
     30  N         26.9820  -22.6270  -12.3870 N.2     1  UNL1       -0.2730
     31  C         26.5200  -21.6730  -11.5510 C.2     1  UNL1        0.1180
     32  C         25.1860  -21.5280  -11.2010 C.2     1  UNL1        0.0490
@<TRIPOS>BOND
     1    24    23    2
     2    29    28    1
     3    29    30    2
     4    28    27    2
     5    30    31    1
     6    23     4    1
     7    23    25   am
     8     3     4    2
     9     3     2    1
    10    27    25    1
    11    27    32    1
    12     4     5    1
    13    31    32    2
    14     2     1    2
    15    25    26    1
    16     5     6    2
    17     1     6    1
    18     1     7    1
    19     7     8    1
    20    10     9    2
    21     8     9   am
    22     8    11    1
    23     9    12    1
    24    20    19    2
    25    20    21    1
    26    19    18    1
    27    12    13    1
    28    12    17    2
    29    18    17    1
    30    18    22    1
    31    21    22    2
    32    13    14    2
    33    17    15    1
    34    14    15    1
    35    15    16    1
