@<TRIPOS>MOLECULE
29561_out_ligand_01.pdbqt
 26 28 0 0 0
SMALL
GASTEIGER

@<TRIPOS>ATOM
      1  C         18.7830  -22.7530  -10.1440 C.2     1  UNL1        0.2560
      2  O         18.1440  -22.7170  -11.1930 O.2     1  UNL1       -0.2670
      3  N         18.1660  -22.6780   -8.8890 N.am    1  UNL1       -0.3430
      4  C         16.7100  -22.6670   -8.8750 C.3     1  UNL1        0.1310
      5  C         16.1650  -23.2500   -7.5720 C.3     1  UNL1        0.0600
      6  C         16.8350  -22.6730   -6.3470 C.2     1  UNL1       -0.0280
      7  C         16.2690  -22.7870   -5.0610 C.2     1  UNL1        0.0180
      8 BR         14.6130  -23.6660   -4.7580 Br      1  UNL1       -0.0510
      9  C         16.9240  -22.2610   -3.9420 C.2     1  UNL1        0.0220
     10  C         18.1540  -21.6250   -4.0860 C.2     1  UNL1        0.0440
     11  C         18.7270  -21.5290   -5.3470 C.2     1  UNL1        0.1240
     12  F         19.9130  -20.9180   -5.4730 F       1  UNL1       -0.2050
     13  C         18.0970  -22.0560   -6.4800 C.2     1  UNL1        0.0060
     14  C         18.7880  -21.9050   -7.8130 C.3     1  UNL1        0.1680
     15  C         20.2300  -22.8900  -10.1810 C.2     1  UNL1        0.0650
     16  C         21.1480  -22.1060  -10.9350 C.2     1  UNL1        0.0700
     17  C         22.4280  -22.5970  -10.7110 C.2     1  UNL1        0.1860
     18  O         22.3160  -23.6800   -9.8650 O.2     1  UNL1       -0.3010
     19  C         20.9990  -23.8700   -9.5790 C.2     1  UNL1        0.0660
     20  C         20.6940  -25.0490   -8.7400 C.3     1  UNL1        0.0780
     21  S         24.0100  -22.0510  -11.3280 S.O2    1  UNL1        0.2610
     22  O         23.8150  -21.7350  -12.7230 O.2     1  UNL1       -0.2040
     23  O         24.5330  -21.1120  -10.3660 O.2     1  UNL1       -0.2040
     24  N         25.0550  -23.3730  -11.2930 N.3     1  UNL1       -0.2230
     25  H         24.7600  -23.9990  -10.5420 H       1  UNL1        0.1360
     26  H         25.0280  -23.8300  -12.2060 H       1  UNL1        0.1360
@<TRIPOS>BOND
     1    22    21    2
     2    26    24    1
     3    21    24    1
     4    21    17    1
     5    21    23    2
     6    24    25    1
     7     2     1    2
     8    16    17    2
     9    16    15    1
    10    17    18    1
    11    15     1    1
    12    15    19    2
    13     1     3   am
    14    18    19    1
    15    19    20    1
    16     3     4    1
    17     3    14    1
    18     4     5    1
    19    14    13    1
    20     5     6    1
    21    13     6    2
    22    13    11    1
    23     6     7    1
    24    12    11    1
    25    11    10    2
    26     7     8    1
    27     7     9    2
    28    10     9    1
