@<TRIPOS>MOLECULE
29580_out_ligand_01.pdbqt
 38 41 0 0 0
SMALL
GASTEIGER

@<TRIPOS>ATOM
      1  C         19.9980  -21.9510  -11.0690 C.2     1  UNL1        0.0410
      2  C         19.5180  -20.9300  -11.9050 C.2     1  UNL1        0.0170
      3  C         18.1670  -20.5740  -11.8840 C.2     1  UNL1        0.0030
      4  C         17.2830  -21.2390  -11.0330 C.2     1  UNL1        0.0250
      5  C         17.7580  -22.2620  -10.2070 C.2     1  UNL1        0.0800
      6  C         19.1130  -22.6080  -10.2050 C.2     1  UNL1        0.0420
      7  S         16.6370  -23.0820   -9.0940 S.O2    1  UNL1        0.2630
      8  O         17.3250  -24.2410   -8.5650 O.2     1  UNL1       -0.2000
      9  O         15.3650  -23.2170   -9.7680 O.2     1  UNL1       -0.2000
     10  N         16.4940  -21.9970   -7.8080 N.pl3   1  UNL1       -0.2800
     11  H         15.9260  -21.1940   -8.0730 H       1  UNL1        0.1790
     12  C         16.3350  -22.4960   -6.4740 C.2     1  UNL1        0.0530
     13  C         15.1040  -23.0360   -6.0880 C.2     1  UNL1        0.0310
     14  C         14.9050  -23.4800   -4.7810 C.2     1  UNL1        0.0020
     15  C         15.9400  -23.4000   -3.8550 C.2     1  UNL1        0.0010
     16  C         17.1780  -22.8810   -4.2370 C.2     1  UNL1        0.0140
     17  C         17.4010  -22.4250   -5.5500 C.2     1  UNL1        0.0010
     18  C         18.7260  -21.8940   -5.9060 C.2     1  UNL1       -0.0240
     19  C         19.5260  -22.5420   -6.8620 C.2     1  UNL1        0.0120
     20  C         20.7770  -22.0280   -7.2140 C.2     1  UNL1        0.0010
     21  C         21.2470  -20.8660   -6.6080 C.2     1  UNL1        0.0000
     22  C         20.4730  -20.2180   -5.6480 C.2     1  UNL1        0.0010
     23  C         19.2240  -20.7330   -5.2960 C.2     1  UNL1        0.0120
     24  C         21.4270  -22.3670  -11.0570 C.2     1  UNL1        0.2940
     25  O         21.8400  -23.3300  -10.4340 O.2     1  UNL1       -0.2590
     26  O         22.1600  -21.5510  -11.8490 O.3     1  UNL1       -0.2970
     27  C         22.9840  -22.2150  -12.8280 C.3     1  UNL1        0.2570
     28  C         23.0080  -21.3860  -14.1310 C.2     1  UNL1        0.2490
     29  N         22.2430  -20.2470  -14.1250 N.am    1  UNL1       -0.3680
     30  H         21.9170  -19.8610  -13.2500 H       1  UNL1        0.1590
     31  H         22.3110  -19.6450  -14.9350 H       1  UNL1        0.1590
     32  O         23.6250  -21.6940  -15.1460 O.2     1  UNL1       -0.2700
     33  C         24.3570  -22.4060  -12.2090 C.2     1  UNL1       -0.0200
     34  C         24.9160  -21.3780  -11.4320 C.2     1  UNL1        0.0100
     35  C         26.1930  -21.5140  -10.8830 C.2     1  UNL1        0.0010
     36  C         26.9300  -22.6730  -11.1090 C.2     1  UNL1        0.0000
     37  C         26.3950  -23.6960  -11.8900 C.2     1  UNL1        0.0010
     38  C         25.1200  -23.5620  -12.4430 C.2     1  UNL1        0.0100
@<TRIPOS>BOND
     1    32    28    2
     2    31    29    1
     3    28    29   am
     4    28    27    1
     5    29    30    1
     6    27    33    1
     7    27    26    1
     8    38    33    2
     9    38    37    1
    10    33    34    1
    11     2     3    1
    12     2     1    2
    13    37    36    2
    14     3     4    2
    15    26    24    1
    16    34    35    2
    17    36    35    1
    18     1    24    1
    19     1     6    1
    20    24    25    2
    21     4     5    1
    22     5     6    2
    23     5     7    1
    24     9     7    2
    25     7     8    2
    26     7    10    1
    27    11    10    1
    28    10    12    1
    29    20    19    1
    30    20    21    2
    31    19    18    2
    32    21    22    1
    33    12    13    2
    34    12    17    1
    35    13    14    1
    36    18    17    1
    37    18    23    1
    38    22    23    2
    39    17    16    2
    40    14    15    2
    41    16    15    1
