@<TRIPOS>MOLECULE
29585_out_ligand_01.pdbqt
 34 36 0 0 0
SMALL
GASTEIGER

@<TRIPOS>ATOM
      1  C         18.5610  -22.7180   -9.6560 C.2     1  UNL1        0.0860
      2  C         19.8510  -22.5780  -10.1920 C.2     1  UNL1        0.0420
      3  C         20.0540  -21.8080  -11.3390 C.2     1  UNL1        0.0330
      4  C         18.9680  -21.1850  -11.9620 C.2     1  UNL1        0.0170
      5  C         17.6850  -21.3220  -11.4260 C.2     1  UNL1        0.0090
      6  C         17.4580  -22.0930  -10.2720 C.2     1  UNL1       -0.0390
      7  C         16.0510  -22.1880   -9.7480 C.3     1  UNL1        0.0500
      8  C         21.4280  -21.7010  -11.8980 C.2     1  UNL1        0.2560
      9  O         21.5810  -21.0460  -12.9210 O.2     1  UNL1       -0.2670
     10  N         22.3920  -22.3890  -11.1870 N.am    1  UNL1       -0.3230
     11  H         22.0740  -22.9680  -10.4220 H       1  UNL1        0.1690
     12  C         23.7770  -22.4480  -11.4550 C.2     1  UNL1        0.0350
     13  C         24.6010  -21.5570  -10.7570 C.2     1  UNL1        0.0290
     14  C         25.9810  -21.5500  -10.9670 C.2     1  UNL1        0.0030
     15  C         26.5520  -22.4320  -11.8820 C.2     1  UNL1        0.0080
     16  C         25.7460  -23.3280  -12.5940 C.2     1  UNL1       -0.0460
     17  C         24.3580  -23.3290  -12.3710 C.2     1  UNL1        0.0370
     18  C         26.3590  -24.2990  -13.5750 C.3     1  UNL1        0.1480
     19  C         25.4960  -24.5790  -14.7820 C.2     1  UNL1        0.1430
     20  O         25.1830  -23.8190  -15.6820 O.2     1  UNL1       -0.6500
     21  O         25.0100  -25.8400  -14.7690 O.3     1  UNL1       -0.7760
     22  H         25.7470  -26.3650  -14.3890 H       1  UNL1        0.1670
     23  S         18.3940  -23.6920   -8.1670 S.O2    1  UNL1        0.2630
     24  O         19.6450  -24.3900   -7.9530 O.2     1  UNL1       -0.2000
     25  O         17.1510  -24.4320   -8.2260 O.2     1  UNL1       -0.2000
     26  N         18.2910  -22.5150   -6.9550 N.pl3   1  UNL1       -0.2810
     27  H         19.2180  -22.3010   -6.5930 H       1  UNL1        0.1790
     28  C         17.2420  -22.6440   -6.0020 C.2     1  UNL1        0.0430
     29  C         17.4890  -23.2680   -4.7810 C.2     1  UNL1        0.0300
     30  C         16.4780  -23.3410   -3.8240 C.2     1  UNL1        0.0030
     31  C         15.2230  -22.7900   -4.0890 C.2     1  UNL1        0.0070
     32  C         14.9660  -22.1670   -5.3160 C.2     1  UNL1       -0.0600
     33  C         13.6340  -21.5290   -5.5790 C.3     1  UNL1        0.0480
     34  C         15.9910  -22.0840   -6.2670 C.2     1  UNL1        0.0370
@<TRIPOS>BOND
     1    20    19    2
     2    19    21    1
     3    19    18    1
     4    21    22    1
     5    18    16    1
     6     9     8    2
     7    16    17    1
     8    16    15    2
     9    17    12    2
    10     4     5    2
    11     4     3    1
    12     8     3    1
    13     8    10   am
    14    15    14    1
    15    12    10    1
    16    12    13    1
    17     5     6    1
    18     3     2    2
    19    10    11    1
    20    14    13    2
    21     6     7    1
    22     6     1    2
    23     2     1    1
    24     1    23    1
    25    25    23    2
    26    23    24    2
    27    23    26    1
    28    26    27    1
    29    26    28    1
    30    34    28    2
    31    34    32    1
    32    28    29    1
    33    33    32    1
    34    32    31    2
    35    29    30    2
    36    31    30    1
