@<TRIPOS>MOLECULE
29610_out_ligand_01.pdbqt
 28 31 0 0 0
SMALL
GASTEIGER

@<TRIPOS>ATOM
      1  C         23.1950  -22.5980   -9.6780 C.2     1  UNL1        0.0100
      2  C         22.2550  -23.5530  -10.0750 C.2     1  UNL1        0.0170
      3  C         21.0620  -23.7030   -9.3560 C.2     1  UNL1        0.0300
      4  C         20.7940  -22.9070   -8.2340 C.2     1  UNL1        0.0350
      5  C         21.7300  -21.9440   -7.8540 C.2     1  UNL1        0.0300
      6  C         22.9210  -21.7870   -8.5730 C.2     1  UNL1        0.0170
      7  N         19.5690  -23.1210   -7.5730 N.am    1  UNL1       -0.3230
      8  C         18.2970  -22.8400   -8.0370 C.2     1  UNL1        0.2600
      9  O         18.0260  -22.2580   -9.0800 O.2     1  UNL1       -0.2670
     10  H         19.6270  -23.4430   -6.6160 H       1  UNL1        0.1690
     11  C         17.2400  -23.2380   -7.1220 C.2     1  UNL1        0.0800
     12  C         16.1460  -24.0720   -7.4360 C.2     1  UNL1        0.1580
     13  N         15.3040  -24.2480   -6.4190 N.2     1  UNL1       -0.1790
     14  N         15.8630  -23.5670   -5.3890 N.pl3   1  UNL1       -0.2440
     15  C         15.3540  -23.4520   -4.0940 C.2     1  UNL1        0.1190
     16  C         17.0650  -22.9560   -5.7760 C.2     1  UNL1        0.0750
     17  C         16.0270  -22.7600   -3.1610 C.2     1  UNL1        0.0190
     18  C         17.3010  -22.1630   -3.5210 C.2     1  UNL1        0.0040
     19  C         17.8010  -22.2600   -4.7680 C.2     1  UNL1        0.0330
     20  C         24.4740  -22.4010  -10.4140 C.2     1  UNL1        0.1410
     21  N         25.1050  -23.5300  -10.8740 N.am    1  UNL1       -0.3070
     22  C         26.2950  -23.4820  -11.5340 C.2     1  UNL1        0.2480
     23  H         24.7620  -24.4570  -10.6740 H       1  UNL1        0.1700
     24  C         26.8310  -22.1340  -11.7600 C.2     1  UNL1        0.1010
     25  O         26.8870  -24.4840  -11.9140 O.2     1  UNL1       -0.2680
     26  C         26.1420  -21.0920  -11.2770 C.2     1  UNL1        0.0380
     27  C         26.6330  -19.6850  -11.4620 C.3     1  UNL1        0.0700
     28  N         24.9590  -21.2110  -10.5880 N.2     1  UNL1       -0.2350
@<TRIPOS>BOND
     1    25    22    2
     2    24    22    1
     3    24    26    2
     4    22    21   am
     5    27    26    1
     6    26    28    1
     7    21    23    1
     8    21    20    1
     9    28    20    2
    10    20     1    1
    11     2     1    2
    12     2     3    1
    13     1     6    1
    14     3     4    2
    15     9     8    2
    16     6     5    2
    17     4     5    1
    18     4     7    1
    19     8     7   am
    20     8    11    1
    21     7    10    1
    22    12    11    1
    23    12    13    2
    24    11    16    2
    25    13    14    1
    26    16    14    1
    27    16    19    1
    28    14    15    1
    29    19    18    2
    30    15    17    2
    31    18    17    1
