@<TRIPOS>MOLECULE
29626_out_ligand_01.pdbqt
 31 33 0 0 0
SMALL
GASTEIGER

@<TRIPOS>ATOM
      1  C         21.5160  -22.4550  -10.5220 C.2     1  UNL1       -0.0380
      2  C         21.0790  -21.8470  -11.7080 C.2     1  UNL1        0.0090
      3  C         19.7530  -21.4380  -11.8360 C.2     1  UNL1        0.0030
      4  C         18.8450  -21.6460  -10.7920 C.2     1  UNL1        0.0290
      5  C         19.2560  -22.2590   -9.6050 C.2     1  UNL1        0.0350
      6  C         20.5960  -22.6480   -9.4740 C.2     1  UNL1        0.0380
      7  C         22.9510  -22.8860  -10.3550 C.3     1  UNL1        0.1610
      8  N         23.5080  -23.3660  -11.6010 N.am    1  UNL1       -0.3530
      9  C         24.4510  -22.6310  -12.2880 C.2     1  UNL1        0.2520
     10  O         24.9620  -21.6010  -11.8630 O.2     1  UNL1       -0.2680
     11  H         22.9800  -24.0790  -12.0840 H       1  UNL1        0.1630
     12  C         24.8130  -23.1420  -13.6340 C.2     1  UNL1        0.0380
     13  C         24.6870  -22.3420  -14.7750 C.2     1  UNL1        0.0440
     14  C         25.0510  -22.8820  -16.0070 C.2     1  UNL1        0.0340
     15  C         24.9110  -22.0590  -17.2520 C.3     1  UNL1        0.0700
     16  N         25.5150  -24.1460  -16.1400 N.2     1  UNL1       -0.2300
     17  C         25.5990  -24.8800  -15.0160 C.2     1  UNL1        0.1630
     18  C         25.2650  -24.4530  -13.7520 C.2     1  UNL1        0.0750
     19  O         26.0640  -26.1370  -15.2180 O.2     1  UNL1       -0.3450
     20  H         25.3610  -26.6490  -14.7800 H       1  UNL1        0.2190
     21  N         18.4040  -22.5230   -8.5100 N.am    1  UNL1       -0.3230
     22  C         18.6590  -22.2830   -7.1750 C.2     1  UNL1        0.2560
     23  O         19.6700  -21.7860   -6.6900 O.2     1  UNL1       -0.2670
     24  H         17.4770  -22.8520   -8.7530 H       1  UNL1        0.1690
     25  C         17.5390  -22.6330   -6.2570 C.2     1  UNL1        0.0350
     26  C         17.7460  -23.3810   -5.0860 C.2     1  UNL1        0.0170
     27  C         16.6620  -23.7060   -4.2630 C.2     1  UNL1        0.0040
     28  C         15.3760  -23.2820   -4.6060 C.2     1  UNL1        0.0420
     29  C         15.1860  -22.5230   -5.7580 C.2     1  UNL1        0.1170
     30  F         13.9510  -22.1150   -6.0770 F       1  UNL1       -0.2060
     31  C         16.2530  -22.1900   -6.5840 C.2     1  UNL1        0.0590
@<TRIPOS>BOND
     1    15    14    1
     2    16    14    1
     3    16    17    2
     4    14    13    2
     5    19    17    1
     6    19    20    1
     7    17    18    1
     8    13    12    1
     9    18    12    2
    10    12     9    1
    11     9    10    2
    12     9     8   am
    13    11     8    1
    14     3     2    1
    15     3     4    2
    16     2     1    2
    17     8     7    1
    18     4     5    1
    19     1     7    1
    20     1     6    1
    21     5     6    2
    22     5    21    1
    23    24    21    1
    24    21    22   am
    25    22    23    2
    26    22    25    1
    27    31    25    2
    28    31    29    1
    29    25    26    1
    30    30    29    1
    31    29    28    2
    32    26    27    2
    33    28    27    1
