@<TRIPOS>MOLECULE
2962_out_ligand_01.pdbqt
 34 37 0 0 0
SMALL
GASTEIGER

@<TRIPOS>ATOM
      1  C         22.7240  -22.3610  -11.1850 C.2     1  UNL1        0.0620
      2  C         23.7960  -22.9710  -10.5200 C.2     1  UNL1        0.0610
      3  C         23.5710  -23.6510   -9.3300 C.2     1  UNL1        0.1180
      4  F         24.6010  -24.2160   -8.6910 F       1  UNL1       -0.2060
      5  C         22.2980  -23.7360   -8.7850 C.2     1  UNL1        0.0600
      6  C         21.2250  -23.1480   -9.4610 C.ar    1  UNL1        0.0450
      7  C         19.8610  -23.2380   -8.8830 C.ar    1  UNL1        0.1970
      8  O         19.6790  -23.7750   -7.7970 O.2     1  UNL1       -0.2860
      9  C         18.7240  -22.6700   -9.6420 C.ar    1  UNL1        0.0440
     10  C         17.4230  -22.7720   -9.1430 C.2     1  UNL1        0.0600
     11  C         16.3780  -22.2330   -9.8790 C.2     1  UNL1        0.1170
     12  F         15.1270  -22.3210   -9.4130 F       1  UNL1       -0.2060
     13  C         16.6100  -21.5920  -11.0940 C.2     1  UNL1        0.0440
     14  C         17.9120  -21.4900  -11.5880 C.2     1  UNL1        0.0330
     15  C         18.9800  -22.0470  -10.8760 C.ar    1  UNL1        0.0470
     16  N         20.3020  -21.8840  -11.3300 N.ar    1  UNL1       -0.3540
     17  C         21.4100  -22.4840  -10.6900 C.ar    1  UNL1        0.0630
     18  H         20.3910  -21.7820  -12.3400 H       1  UNL1        0.1660
     19  C         23.0420  -21.5960  -12.4190 C.2     1  UNL1        0.2580
     20  N         24.3930  -21.4730  -12.6860 N.am    1  UNL1       -0.3230
     21  H         25.0200  -21.9830  -12.0700 H       1  UNL1        0.1690
     22  O         22.1130  -21.1710  -13.0920 O.2     1  UNL1       -0.2670
     23  C         24.9990  -20.7830  -13.7550 C.2     1  UNL1        0.0360
     24  C         24.7310  -21.0330  -15.1040 C.2     1  UNL1        0.0490
     25  C         25.3720  -20.2930  -16.1150 C.2     1  UNL1        0.0720
     26  C         26.2850  -19.3020  -15.7540 C.2     1  UNL1        0.1320
     27  C         26.5580  -19.0400  -14.4140 C.2     1  UNL1        0.0450
     28  F         26.9250  -18.5670  -16.6770 F       1  UNL1       -0.2050
     29  C         25.9140  -19.7760  -13.4180 C.2     1  UNL1        0.0320
     30  C         25.0410  -20.5970  -17.5330 C.2     1  UNL1        0.2520
     31  N         24.0620  -19.8640  -18.1420 N.am    1  UNL1       -0.3660
     32  H         23.8430  -20.0810  -19.1050 H       1  UNL1        0.1590
     33  H         23.5440  -19.1290  -17.6770 H       1  UNL1        0.1590
     34  O         25.6190  -21.4810  -18.1530 O.2     1  UNL1       -0.2680
@<TRIPOS>BOND
     1    32    31    1
     2    34    30    2
     3    31    33    1
     4    31    30   am
     5    30    25    1
     6    28    26    1
     7    25    26    2
     8    25    24    1
     9    26    27    1
    10    24    23    2
    11    27    29    2
    12    23    29    1
    13    23    20    1
    14    22    19    2
    15    20    19   am
    16    20    21    1
    17    19     1    1
    18    18    16    1
    19    14    13    2
    20    14    15    1
    21    16    15   ar
    22    16    17   ar
    23     1    17    2
    24     1     2    1
    25    13    11    1
    26    15     9   ar
    27    17     6   ar
    28     2     3    2
    29    11    12    1
    30    11    10    2
    31     9    10    1
    32     9     7   ar
    33     6     7   ar
    34     6     5    2
    35     3     5    1
    36     3     4    1
    37     7     8    2
