@<TRIPOS>MOLECULE
29638_out_ligand_01.pdbqt
 34 38 0 0 0
SMALL
GASTEIGER

@<TRIPOS>ATOM
      1  C         21.7600  -22.1630  -10.2650 C.2     1  UNL1        0.0330
      2  C         20.8020  -21.9600  -11.2670 C.2     1  UNL1        0.0180
      3  C         19.4390  -22.0480  -10.9630 C.2     1  UNL1        0.0190
      4  C         19.0240  -22.3270   -9.6550 C.2     1  UNL1        0.0450
      5  C         19.9750  -22.5160   -8.6440 C.2     1  UNL1       -0.0380
      6  C         21.3400  -22.4410   -8.9540 C.2     1  UNL1        0.0250
      7  C         19.5020  -22.8440   -7.2580 C.3     1  UNL1        0.0770
      8  C         18.1620  -22.1450   -7.0340 C.3     1  UNL1        0.1690
      9  O         17.2160  -22.5290   -8.0540 O.3     1  UNL1       -0.3070
     10  C         17.5710  -22.4590   -9.3620 C.2     1  UNL1        0.2940
     11  O         16.7510  -22.5310  -10.2660 O.2     1  UNL1       -0.2590
     12  C         23.2270  -22.1040  -10.5270 C.2     1  UNL1        0.2650
     13  O         23.9300  -21.2950   -9.9430 O.2     1  UNL1       -0.2670
     14  N         23.7090  -23.0080  -11.4810 N.am    1  UNL1       -0.2460
     15  H         23.1750  -23.8260  -11.7530 H       1  UNL1        0.1820
     16  S         25.3340  -23.2290  -11.8070 S.O2    1  UNL1        0.2610
     17  O         25.9880  -23.4150  -10.5290 O.2     1  UNL1       -0.2000
     18  O         25.3450  -24.3170  -12.7680 O.2     1  UNL1       -0.2000
     19  C         25.9000  -21.7810  -12.5790 C.2     1  UNL1        0.0590
     20  C         25.4980  -21.5280  -13.8370 C.2     1  UNL1        0.0330
     21  C         25.9670  -20.3210  -14.5250 C.2     1  UNL1       -0.0290
     22  C         25.7970  -20.1820  -15.9060 C.2     1  UNL1        0.0120
     23  C         26.5820  -19.2890  -13.7920 C.2     1  UNL1       -0.0480
     24  C         26.2370  -19.0270  -16.5560 C.2     1  UNL1        0.0010
     25  C         26.8410  -18.0020  -15.8280 C.2     1  UNL1        0.0010
     26  C         27.0070  -18.1270  -14.4490 C.2     1  UNL1        0.0080
     27  C         26.7050  -19.4090  -12.2920 C.3     1  UNL1        0.0440
     28  C         26.8110  -20.8640  -11.8180 C.3     1  UNL1        0.0570
     29  C         17.6030  -22.4850   -5.6650 C.2     1  UNL1       -0.0290
     30  C         16.4880  -23.3310   -5.5570 C.2     1  UNL1        0.0100
     31  C         15.9400  -23.6300   -4.3080 C.2     1  UNL1        0.0010
     32  C         16.4960  -23.0830   -3.1530 C.2     1  UNL1        0.0000
     33  C         17.5990  -22.2380   -3.2460 C.2     1  UNL1        0.0010
     34  C         18.1470  -21.9370   -4.4940 C.2     1  UNL1        0.0100
@<TRIPOS>BOND
     1    24    22    1
     2    24    25    2
     3    22    21    2
     4    25    26    1
     5    21    20    1
     6    21    23    1
     7    26    23    2
     8    20    19    2
     9    23    27    1
    10    18    16    2
    11    19    28    1
    12    19    16    1
    13    27    28    1
    14    16    14    1
    15    16    17    2
    16    15    14    1
    17    14    12   am
    18     2     3    1
    19     2     1    2
    20     3     4    2
    21    12     1    1
    22    12    13    2
    23    11    10    2
    24     1     6    1
    25     4    10    1
    26     4     5    1
    27    10     9    1
    28     6     5    2
    29     5     7    1
    30     9     8    1
    31     7     8    1
    32     8    29    1
    33    29    30    2
    34    29    34    1
    35    30    31    1
    36    34    33    2
    37    31    32    2
    38    33    32    1
