@<TRIPOS>MOLECULE
29630_out_ligand_01.pdbqt
 32 35 0 0 0
SMALL
GASTEIGER

@<TRIPOS>ATOM
      1  C         24.7470  -21.3090  -12.3990 C.2     1  UNL1        0.0810
      2  C         24.5500  -21.0750  -13.7710 C.2     1  UNL1        0.0250
      3  C         23.3050  -21.3010  -14.3500 C.2     1  UNL1        0.0020
      4  C         22.2490  -21.7510  -13.5650 C.2     1  UNL1        0.0090
      5  C         22.4200  -21.9830  -12.1870 C.2     1  UNL1       -0.0320
      6  C         23.6880  -21.7830  -11.5920 C.2     1  UNL1       -0.0260
      7  C         23.8290  -22.0280  -10.1050 C.3     1  UNL1        0.0600
      8  C         22.7810  -23.0010   -9.5710 C.3     1  UNL1        0.1310
      9  N         21.4440  -22.5880   -9.9620 N.am    1  UNL1       -0.3430
     10  C         20.4110  -22.7670   -9.0450 C.2     1  UNL1        0.2560
     11  O         20.5640  -23.2170   -7.9130 O.2     1  UNL1       -0.2670
     12  C         21.2150  -22.4530  -11.3960 C.3     1  UNL1        0.1650
     13  C         19.0350  -22.4180   -9.4430 C.2     1  UNL1        0.0660
     14  C         18.8530  -21.5630  -10.5360 C.2     1  UNL1        0.0200
     15  C         17.5620  -21.2490  -10.9590 C.2     1  UNL1        0.0010
     16  C         16.4560  -21.8060  -10.3090 C.2     1  UNL1        0.0030
     17  C         16.6370  -22.6830   -9.2380 C.2     1  UNL1        0.0380
     18  C         17.9310  -23.0040   -8.8140 C.2     1  UNL1        0.0910
     19  O         18.1210  -23.8300   -7.7300 O.2     1  UNL1       -0.3100
     20  C         17.4430  -23.4940   -6.5800 C.2     1  UNL1        0.0760
     21  C         18.0370  -22.5400   -5.7530 C.2     1  UNL1        0.0370
     22  C         17.4170  -22.1740   -4.5600 C.2     1  UNL1        0.0030
     23  C         16.2140  -22.7760   -4.1840 C.2     1  UNL1        0.0070
     24  C         15.6310  -23.7630   -4.9900 C.2     1  UNL1       -0.0590
     25  C         14.3340  -24.4020   -4.5880 C.3     1  UNL1        0.0480
     26  C         16.2510  -24.1160   -6.1970 C.2     1  UNL1        0.0440
     27  S         26.3660  -20.9310  -11.7420 S.O2    1  UNL1        0.2410
     28  O         27.0730  -22.1630  -11.4760 O.2     1  UNL1       -0.2060
     29  O         26.2200  -19.9160  -10.7210 O.2     1  UNL1       -0.2060
     30  N         27.1210  -20.2240  -13.0920 N.3     1  UNL1       -0.2200
     31  C         27.1150  -18.7500  -13.1110 C.3     1  UNL1        0.1260
     32  H         28.0770  -20.5850  -13.1300 H       1  UNL1        0.1390
@<TRIPOS>BOND
     1     3     2    1
     2     3     4    2
     3     2     1    2
     4     4     5    1
     5    32    30    1
     6    31    30    1
     7    30    27    1
     8     1    27    1
     9     1     6    1
    10     5     6    2
    11     5    12    1
    12    27    28    2
    13    27    29    2
    14     6     7    1
    15    12     9    1
    16    15    14    1
    17    15    16    2
    18    14    13    2
    19    16    17    1
    20     7     8    1
    21     9     8    1
    22     9    10   am
    23    13    10    1
    24    13    18    1
    25    17    18    2
    26    10    11    2
    27    18    19    1
    28    19    20    1
    29    20    26    2
    30    20    21    1
    31    26    24    1
    32    21    22    2
    33    24    25    1
    34    24    23    2
    35    22    23    1
