@<TRIPOS>MOLECULE
29633_out_ligand_01.pdbqt
 33 36 0 0 0
SMALL
GASTEIGER

@<TRIPOS>ATOM
      1  O         22.3220  -22.9410  -10.2820 O.2     1  UNL1       -0.2910
      2  C         23.5490  -22.6730  -10.9250 C.2     1  UNL1        0.0790
      3  C         24.4480  -21.7770  -10.3510 C.2     1  UNL1        0.0370
      4  C         25.6490  -21.5080  -11.0080 C.2     1  UNL1        0.0040
      5  C         25.9320  -22.1280  -12.2300 C.2     1  UNL1        0.0170
      6  C         25.0060  -23.0140  -12.8040 C.2     1  UNL1        0.0340
      7  C         23.7950  -23.2770  -12.1540 C.2     1  UNL1        0.0540
      8  C         25.2570  -23.6730  -14.1090 C.2     1  UNL1        0.2520
      9  N         24.6810  -23.0900  -15.2160 N.am    1  UNL1       -0.3480
     10  H         24.2380  -22.1870  -15.1250 H       1  UNL1        0.1630
     11  O         25.9470  -24.6840  -14.1730 O.2     1  UNL1       -0.2680
     12  C         25.0410  -23.5120  -16.5660 C.3     1  UNL1        0.2250
     13  C         24.1190  -23.0120  -17.6850 C.2     1  UNL1        0.2330
     14  N         24.3520  -21.7510  -18.1530 N.am    1  UNL1       -0.3690
     15  H         24.8240  -21.1040  -17.5220 H       1  UNL1        0.1590
     16  H         23.6180  -21.3550  -18.7220 H       1  UNL1        0.1590
     17  O         23.1430  -23.6500  -18.0730 O.2     1  UNL1       -0.2720
     18  C         21.1110  -22.3570  -10.6300 C.2     1  UNL1        0.1890
     19  C         21.1150  -21.4490  -11.8030 C.2     1  UNL1        0.0640
     20  C         19.9450  -20.8990  -12.1530 C.2     1  UNL1        0.0590
     21  C         18.7920  -21.1940  -11.3990 C.ar    1  UNL1        0.1750
     22  N         17.5410  -20.8170  -11.5150 N.ar    1  UNL1       -0.1280
     23  N         18.9320  -22.0340  -10.3120 N.ar    1  UNL1       -0.1910
     24  N         16.8340  -21.4130  -10.4960 N.ar    1  UNL1       -0.1270
     25  C         17.6670  -22.1340   -9.7610 C.ar    1  UNL1        0.1880
     26  N         20.0860  -22.6430   -9.8910 N.2     1  UNL1       -0.1380
     27  C         17.3220  -22.9140   -8.5770 C.2     1  UNL1        0.0520
     28  C         18.0570  -22.8050   -7.3870 C.2     1  UNL1        0.0180
     29  C         17.7030  -23.5480   -6.2560 C.2     1  UNL1        0.0010
     30  C         16.6020  -24.4050   -6.2970 C.2     1  UNL1        0.0030
     31  C         15.8610  -24.5200   -7.4700 C.2     1  UNL1        0.0430
     32  C         16.2220  -23.7790   -8.5960 C.2     1  UNL1        0.1300
     33  F         15.4950  -23.9350   -9.7120 F       1  UNL1       -0.2050
@<TRIPOS>BOND
     1    16    14    1
     2    14    13   am
     3    14    15    1
     4    17    13    2
     5    13    12    1
     6    12     9    1
     7     9    10    1
     8     9     8   am
     9    11     8    2
    10     8     6    1
    11     6     5    2
    12     6     7    1
    13     5     4    1
    14     7     2    2
    15    20    19    2
    16    20    21    1
    17    19    18    1
    18    22    21   ar
    19    22    24   ar
    20    21    23   ar
    21     4     3    2
    22     2     3    1
    23     2     1    1
    24    18     1    1
    25    18    26    2
    26    24    25   ar
    27    23    26    1
    28    23    25   ar
    29    25    27    1
    30    33    32    1
    31    32    27    2
    32    32    31    1
    33    27    28    1
    34    31    30    2
    35    28    29    2
    36    30    29    1
