@<TRIPOS>MOLECULE
29634_out_ligand_01.pdbqt
 37 41 0 0 0
SMALL
GASTEIGER

@<TRIPOS>ATOM
      1  C         20.6710  -22.2110  -10.8150 C.2     1  UNL1        0.0650
      2  C         20.5420  -21.0510  -11.5850 C.2     1  UNL1        0.0200
      3  C         19.2820  -20.4880  -11.7720 C.2     1  UNL1        0.0010
      4  C         18.1630  -21.0860  -11.1890 C.2     1  UNL1        0.0030
      5  C         18.3000  -22.2310  -10.3990 C.2     1  UNL1        0.0380
      6  C         19.5610  -22.7900  -10.1810 C.2     1  UNL1        0.0850
      7  C         22.0220  -22.7850  -10.6470 C.2     1  UNL1        0.2560
      8  N         22.9410  -22.6390  -11.6930 N.am    1  UNL1       -0.3430
      9  C         24.2900  -23.1750  -11.4750 C.3     1  UNL1        0.1310
     10  C         22.7950  -21.5700  -12.6940 C.3     1  UNL1        0.1720
     11  C         24.9300  -23.7040  -12.7700 C.3     1  UNL1        0.0600
     12  C         24.7510  -22.7330  -13.8970 C.ar    1  UNL1       -0.0250
     13  C         23.7600  -21.7670  -13.8220 C.ar    1  UNL1        0.0100
     14  C         25.4580  -22.6860  -15.1570 C.ar    1  UNL1        0.0470
     15  S         23.7310  -20.7590  -15.1910 S.2     1  UNL1       -0.0720
     16  C         24.9700  -21.6510  -15.9450 C.ar    1  UNL1        0.1130
     17  N         25.3840  -21.3150  -17.1790 N.2     1  UNL1       -0.2340
     18  C         26.3480  -22.1220  -17.6240 C.2     1  UNL1        0.2360
     19  N         26.9180  -23.1520  -16.9800 N.2     1  UNL1       -0.2290
     20  C         26.4870  -23.4510  -15.7420 C.2     1  UNL1        0.1150
     21  O         22.2740  -23.3460   -9.5820 O.2     1  UNL1       -0.2670
     22  N         27.1210  -24.5260  -15.1270 N.pl3   1  UNL1       -0.2860
     23  H         27.1990  -25.3520  -15.7010 H       1  UNL1        0.1250
     24  H         26.7070  -24.6770  -14.2140 H       1  UNL1        0.1250
     25  O         19.7850  -23.9050   -9.4170 O.2     1  UNL1       -0.3410
     26  C         19.9160  -23.7040   -8.0120 C.3     1  UNL1        0.2780
     27  C         18.6010  -23.9110   -7.2580 C.2     1  UNL1        0.2460
     28  O         18.0380  -25.0030   -7.2570 O.2     1  UNL1       -0.2710
     29  N         18.1580  -22.7550   -6.6480 N.am    1  UNL1       -0.3230
     30  H         18.7690  -21.9430   -6.7240 H       1  UNL1        0.1690
     31  C         16.9910  -22.5670   -5.8810 C.2     1  UNL1        0.0730
     32  C         16.9570  -22.5510   -4.4870 C.2     1  UNL1        0.0330
     33  C         15.7450  -22.3460   -3.8150 C.2     1  UNL1        0.0020
     34  C         14.5600  -22.1560   -4.5300 C.2     1  UNL1        0.0030
     35  C         14.5830  -22.1780   -5.9240 C.2     1  UNL1        0.0440
     36  C         15.7920  -22.3830   -6.5820 C.2     1  UNL1        0.1430
     37  F         15.8050  -22.4080   -7.9260 F       1  UNL1       -0.2040
@<TRIPOS>BOND
     1    18    17    2
     2    18    19    1
     3    17    16    1
     4    19    20    2
     5    16    15   ar
     6    16    14   ar
     7    20    14    1
     8    20    22    1
     9    23    22    1
    10    15    13   ar
    11    14    12   ar
    12    22    24    1
    13    12    13   ar
    14    12    11    1
    15    13    10    1
    16    11     9    1
    17    10     8    1
    18     3     2    1
    19     3     4    2
    20     8     9    1
    21     8     7   am
    22     2     1    2
    23     4     5    1
    24     1     7    1
    25     1     6    1
    26     7    21    2
    27     5     6    2
    28     6    25    1
    29    25    26    1
    30    26    27    1
    31    37    36    1
    32    27    28    2
    33    27    29   am
    34    30    29    1
    35    29    31    1
    36    36    35    1
    37    36    31    2
    38    35    34    2
    39    31    32    1
    40    34    33    1
    41    32    33    2
