@<TRIPOS>MOLECULE
29640_out_ligand_01.pdbqt
 30 33 0 0 0
SMALL
GASTEIGER

@<TRIPOS>ATOM
      1  C         21.3240  -22.1800  -10.0490 C.2     1  UNL1        0.0320
      2  C         20.4020  -21.8440  -11.0480 C.2     1  UNL1        0.0180
      3  C         19.0310  -21.9130  -10.7860 C.2     1  UNL1        0.0190
      4  C         18.5730  -22.3160   -9.5260 C.2     1  UNL1        0.0450
      5  C         19.4890  -22.6620   -8.5240 C.2     1  UNL1       -0.0380
      6  C         20.8640  -22.6050   -8.7940 C.2     1  UNL1        0.0250
      7  C         18.9710  -23.1320   -7.1970 C.3     1  UNL1        0.0770
      8  C         17.6540  -22.4090   -6.9190 C.3     1  UNL1        0.1690
      9  O         16.7190  -22.6330   -7.9970 O.3     1  UNL1       -0.3070
     10  C         17.1090  -22.4180   -9.2780 C.2     1  UNL1        0.2940
     11  O         16.3070  -22.3360  -10.1990 O.2     1  UNL1       -0.2590
     12  C         22.7940  -22.1300  -10.2790 C.2     1  UNL1        0.2510
     13  O         23.4710  -21.2500   -9.7570 O.2     1  UNL1       -0.2680
     14  N         23.3170  -23.0650  -11.1460 N.am    1  UNL1       -0.3510
     15  H         22.6890  -23.5700  -11.7550 H       1  UNL1        0.1630
     16  C         24.7160  -23.0320  -11.5280 C.3     1  UNL1        0.1790
     17  C         24.8310  -23.2360  -13.0180 C.2     1  UNL1        0.0300
     18  C         24.5760  -22.2800  -13.9280 C.2     1  UNL1        0.0270
     19  C         24.7070  -22.5630  -15.3380 C.2     1  UNL1        0.0070
     20  C         25.0880  -23.7750  -15.7630 C.2     1  UNL1        0.0740
     21  C         25.3760  -24.8440  -14.7720 C.2     1  UNL1        0.2450
     22  O         25.7390  -25.9560  -15.1330 O.2     1  UNL1       -0.2680
     23  N         25.2110  -24.4910  -13.4560 N.am    1  UNL1       -0.3260
     24  H         25.4030  -25.2160  -12.7630 H       1  UNL1        0.1690
     25  C         17.0460  -22.8820   -5.6130 C.2     1  UNL1       -0.0290
     26  C         17.8230  -22.8850   -4.4430 C.2     1  UNL1        0.0100
     27  C         17.2920  -23.3460   -3.2370 C.2     1  UNL1        0.0010
     28  C         15.9800  -23.8120   -3.1850 C.2     1  UNL1        0.0000
     29  C         15.1990  -23.8190   -4.3380 C.2     1  UNL1        0.0010
     30  C         15.7290  -23.3610   -5.5460 C.2     1  UNL1        0.0100
@<TRIPOS>BOND
     1    20    19    2
     2    20    21    1
     3    19    18    1
     4    22    21    2
     5    21    23   am
     6    18    17    2
     7    23    17    1
     8    23    24    1
     9    17    16    1
    10    15    14    1
    11    16    14    1
    12    14    12   am
    13     2     3    1
    14     2     1    2
    15     3     4    2
    16    12     1    1
    17    12    13    2
    18    11    10    2
    19     1     6    1
    20     4    10    1
    21     4     5    1
    22    10     9    1
    23     6     5    2
    24     5     7    1
    25     9     8    1
    26     7     8    1
    27     8    25    1
    28    25    30    2
    29    25    26    1
    30    30    29    1
    31    26    27    2
    32    29    28    2
    33    27    28    1
