@<TRIPOS>MOLECULE
29641_out_ligand_01.pdbqt
 34 36 0 0 0
SMALL
GASTEIGER

@<TRIPOS>ATOM
      1  C         20.3180  -22.9110   -9.7390 C.2     1  UNL1        0.0320
      2  C         20.6110  -22.3740  -10.9980 C.2     1  UNL1        0.0190
      3  C         21.9050  -22.4780  -11.5180 C.2     1  UNL1        0.0310
      4  C         22.9140  -23.0970  -10.7790 C.2     1  UNL1        0.0420
      5  C         22.6230  -23.6370   -9.5250 C.2     1  UNL1        0.0310
      6  C         21.3310  -23.5350   -9.0010 C.2     1  UNL1        0.0190
      7  C         18.9580  -22.8150   -9.1360 C.2     1  UNL1        0.2560
      8  N         18.7840  -23.5350   -7.9690 N.am    1  UNL1       -0.3230
      9  H         19.6040  -23.9750   -7.5690 H       1  UNL1        0.1690
     10  O         18.1340  -22.1010   -9.6930 O.2     1  UNL1       -0.2670
     11  C         17.6030  -23.6540   -7.2050 C.2     1  UNL1        0.0350
     12  C         16.4960  -24.4120   -7.5900 C.2     1  UNL1        0.0290
     13  C         15.3590  -24.4740   -6.7780 C.2     1  UNL1        0.0030
     14  C         15.3190  -23.7860   -5.5660 C.2     1  UNL1        0.0170
     15  C         16.4280  -23.0380   -5.1590 C.2     1  UNL1        0.0340
     16  C         17.5600  -22.9680   -5.9850 C.2     1  UNL1        0.0460
     17  C         16.4520  -22.2830   -3.8780 C.2     1  UNL1        0.2490
     18  N         17.6030  -21.6220   -3.5510 N.am    1  UNL1       -0.3660
     19  H         18.3220  -21.4190   -4.2290 H       1  UNL1        0.1590
     20  H         17.5490  -21.0200   -2.7380 H       1  UNL1        0.1590
     21  O         15.4670  -22.2200   -3.1530 O.2     1  UNL1       -0.2680
     22  N         24.2460  -23.1950  -11.2710 N.pl3   1  UNL1       -0.2810
     23  H         24.7130  -24.1020  -11.2190 H       1  UNL1        0.1790
     24  S         25.3330  -21.9260  -11.0270 S.O2    1  UNL1        0.2650
     25  O         24.6780  -20.9530  -10.1800 O.2     1  UNL1       -0.2000
     26  O         26.6120  -22.4870  -10.6440 O.2     1  UNL1       -0.2000
     27  C         25.5190  -21.2050  -12.6360 C.2     1  UNL1        0.1030
     28  C         25.0040  -21.9070  -13.7380 C.2     1  UNL1        0.0500
     29  C         25.1310  -21.3730  -15.0180 C.2     1  UNL1        0.0350
     30 CL         24.4940  -22.2260  -16.3670 Cl      1  UNL1       -0.0840
     31  C         25.7710  -20.1510  -15.2110 C.2     1  UNL1        0.0250
     32  C         26.2870  -19.4570  -14.1140 C.2     1  UNL1        0.0270
     33  C         26.1650  -19.9800  -12.8200 C.2     1  UNL1        0.0570
     34 CL         26.8090  -19.0230  -11.5350 Cl      1  UNL1       -0.0830
@<TRIPOS>BOND
     1    30    29    1
     2    31    29    2
     3    31    32    1
     4    29    28    1
     5    32    33    2
     6    28    27    2
     7    33    27    1
     8    33    34    1
     9    27    24    1
    10     3     2    1
    11     3     4    2
    12    22    23    1
    13    22    24    1
    14    22     4    1
    15    24    26    2
    16    24    25    2
    17     2     1    2
    18     4     5    1
    19     1     7    1
    20     1     6    1
    21    10     7    2
    22     5     6    2
    23     7     8   am
    24     8     9    1
    25     8    11    1
    26    12    11    2
    27    12    13    1
    28    11    16    1
    29    13    14    2
    30    16    15    2
    31    14    15    1
    32    15    17    1
    33    19    18    1
    34    17    18   am
    35    17    21    2
    36    18    20    1
