@<TRIPOS>MOLECULE
29651_out_ligand_01.pdbqt
 32 34 0 0 0
SMALL
GASTEIGER

@<TRIPOS>ATOM
      1  N         20.4890  -22.7270   -8.1480 N.am    1  UNL1       -0.3260
      2  C         21.7710  -22.3290   -8.5110 C.2     1  UNL1        0.2400
      3  O         22.4930  -21.5750   -7.8680 O.2     1  UNL1       -0.2710
      4  H         20.0060  -23.3530   -8.7820 H       1  UNL1        0.1690
      5  C         22.2230  -22.9830   -9.8290 C.3     1  UNL1        0.2350
      6  N         21.7360  -22.3110  -11.0480 N.am    1  UNL1       -0.3050
      7  C         22.6340  -21.9450  -12.0710 C.2     1  UNL1        0.2580
      8  O         22.3770  -21.3510  -13.1150 O.2     1  UNL1       -0.2670
      9  C         24.0530  -22.3210  -11.9140 C.2     1  UNL1        0.0320
     10  C         24.8780  -21.5520  -11.0880 C.2     1  UNL1        0.0170
     11  C         26.2150  -21.9150  -10.9280 C.2     1  UNL1        0.0010
     12  C         26.7210  -23.0310  -11.5990 C.2     1  UNL1        0.0000
     13  C         25.8970  -23.7810  -12.4410 C.2     1  UNL1        0.0010
     14  C         24.5610  -23.4220  -12.6090 C.2     1  UNL1        0.0170
     15  C         20.3220  -22.0310  -11.1390 C.2     1  UNL1        0.0380
     16  C         19.8360  -20.7730  -11.5270 C.2     1  UNL1        0.0300
     17  C         18.4620  -20.5040  -11.5930 C.2     1  UNL1        0.0020
     18  C         17.5400  -21.4930  -11.2740 C.2     1  UNL1        0.0000
     19  C         17.9900  -22.7490  -10.8920 C.2     1  UNL1        0.0020
     20  C         19.3640  -23.0130  -10.8250 C.2     1  UNL1        0.0300
     21  C         19.7560  -22.3240   -7.0120 C.2     1  UNL1        0.0350
     22  C         18.6920  -23.1480   -6.6190 C.2     1  UNL1        0.0490
     23  C         17.9010  -22.8300   -5.5010 C.2     1  UNL1        0.0720
     24  C         18.1890  -21.6730   -4.7800 C.2     1  UNL1        0.1320
     25  C         19.2430  -20.8470   -5.1590 C.2     1  UNL1        0.0450
     26  F         17.4660  -21.3220   -3.7050 F       1  UNL1       -0.2050
     27  C         20.0250  -21.1710   -6.2710 C.2     1  UNL1        0.0320
     28  C         16.7930  -23.7520   -5.1460 C.2     1  UNL1        0.2520
     29  N         15.7220  -23.8370   -5.9870 N.am    1  UNL1       -0.3660
     30  H         14.9680  -24.4620   -5.7370 H       1  UNL1        0.1590
     31  H         15.6450  -23.3000   -6.8430 H       1  UNL1        0.1590
     32  O         16.8340  -24.4220   -4.1200 O.2     1  UNL1       -0.2680
@<TRIPOS>BOND
     1     8     7    2
     2    14    13    1
     3    14     9    2
     4    13    12    2
     5     7     9    1
     6     7     6   am
     7     9    10    1
     8    12    11    1
     9    17    16    1
    10    17    18    2
    11    16    15    2
    12    18    19    1
    13    15     6    1
    14    15    20    1
    15    10    11    2
    16     6     5    1
    17    19    20    2
    18     5     2    1
    19     4     1    1
    20     2     1   am
    21     2     3    2
    22     1    21    1
    23    21    22    2
    24    21    27    1
    25    31    29    1
    26    22    23    1
    27    27    25    2
    28    29    30    1
    29    29    28   am
    30    23    28    1
    31    23    24    2
    32    25    24    1
    33    28    32    2
    34    24    26    1
