@<TRIPOS>MOLECULE
29670_out_ligand_01.pdbqt
 35 39 0 0 0
SMALL
GASTEIGER

@<TRIPOS>ATOM
      1  C         23.2510  -22.1280  -12.0830 C.2     1  UNL1        0.0350
      2  C         21.8580  -22.0130  -12.0830 C.2     1  UNL1        0.0310
      3  C         21.1270  -22.2240  -10.9080 C.2     1  UNL1        0.0270
      4  C         21.7930  -22.5450   -9.7250 C.2     1  UNL1        0.0790
      5  C         23.1820  -22.6710   -9.7080 C.2     1  UNL1        0.0270
      6  C         23.9040  -22.4600  -10.8860 C.2     1  UNL1        0.0310
      7  S         20.8550  -22.8010   -8.2430 S.O2    1  UNL1        0.2590
      8  O         20.8420  -24.2270   -8.0010 O.2     1  UNL1       -0.2010
      9  O         21.3010  -21.8670   -7.2350 O.2     1  UNL1       -0.2010
     10  N         19.2950  -22.4030   -8.7060 N.3     1  UNL1       -0.3050
     11  H         19.2200  -22.3130   -9.7200 H       1  UNL1        0.1730
     12  C         18.0710  -22.7620   -7.9670 C.3     1  UNL1        0.0410
     13  C         16.7730  -22.5220   -8.7610 C.3     1  UNL1        0.0360
     14  C         15.5510  -22.9760   -7.9420 C.3     1  UNL1       -0.0120
     15  C         15.5110  -22.1930   -6.6170 C.3     1  UNL1        0.0090
     16  C         15.6710  -24.4780   -7.6390 C.3     1  UNL1        0.0090
     17  C         16.7910  -22.4560   -5.8060 C.3     1  UNL1       -0.0120
     18  C         16.9060  -23.9620   -5.5170 C.3     1  UNL1        0.0090
     19  C         18.0130  -22.0020   -6.6250 C.3     1  UNL1        0.0360
     20  C         16.9550  -24.7480   -6.8380 C.3     1  UNL1       -0.0120
     21  C         18.1680  -24.2810   -7.6580 C.3     1  UNL1        0.0360
     22  N         24.0690  -21.9330  -13.2190 N.am    1  UNL1       -0.3220
     23  C         23.8480  -21.0990  -14.2950 C.2     1  UNL1        0.2770
     24  O         22.8460  -20.4040  -14.4210 O.2     1  UNL1       -0.2660
     25  H         24.9140  -22.4990  -13.2280 H       1  UNL1        0.1690
     26  C         24.8730  -21.0980  -15.3290 C.ar    1  UNL1        0.1550
     27  N         25.8790  -20.1490  -15.3700 N.ar    1  UNL1       -0.2660
     28  N         26.7650  -20.3220  -16.3680 N.ar    1  UNL1       -0.1750
     29  C         26.0540  -19.0090  -14.4930 C.3     1  UNL1        0.1800
     30  C         26.3560  -21.4310  -16.9890 C.ar    1  UNL1        0.0860
     31  C         27.1200  -21.9500  -18.1530 C.3     1  UNL1        0.0750
     32  C         25.1810  -21.9460  -16.3900 C.ar    1  UNL1        0.1620
     33  N         24.4960  -23.1300  -16.8060 N.pl3   1  UNL1       -0.1110
     34  O         24.9570  -24.2080  -16.4090 O.2     1  UNL1       -0.5320
     35  O         23.4920  -22.9860  -17.5090 O.2     1  UNL1       -0.5320
@<TRIPOS>BOND
     1    31    30    1
     2    35    33    2
     3    30    32   ar
     4    30    28   ar
     5    33    34    2
     6    33    32    1
     7    32    26   ar
     8    28    27   ar
     9    27    26   ar
    10    27    29    1
    11    26    23    1
    12    24    23    2
    13    23    22   am
    14    25    22    1
    15    22     1    1
    16     1     2    2
    17     1     6    1
    18     2     3    1
    19     3     4    2
    20     6     5    2
    21     4     5    1
    22     4     7    1
    23    11    10    1
    24    13    12    1
    25    13    14    1
    26    10     7    1
    27    10    12    1
    28     7     8    2
    29     7     9    2
    30    12    21    1
    31    12    19    1
    32    14    16    1
    33    14    15    1
    34    21    20    1
    35    16    20    1
    36    20    18    1
    37    19    17    1
    38    15    17    1
    39    17    18    1
