@<TRIPOS>MOLECULE
29712_out_ligand_01.pdbqt
 25 27 0 0 0
SMALL
GASTEIGER

@<TRIPOS>ATOM
      1  C         20.3210  -22.6080   -8.0990 C.2     1  UNL1        0.2570
      2  O         21.3240  -22.1410   -7.5740 O.2     1  UNL1       -0.2670
      3  N         20.0690  -22.7350   -9.4520 N.am    1  UNL1       -0.3230
      4  H         19.1400  -23.0450   -9.7080 H       1  UNL1        0.1690
      5  C         20.9350  -22.4260  -10.5200 C.2     1  UNL1        0.0350
      6  C         22.2340  -22.9200  -10.6390 C.2     1  UNL1        0.0300
      7  C         23.0310  -22.5680  -11.7360 C.2     1  UNL1        0.0190
      8  C         22.5310  -21.7260  -12.7340 C.2     1  UNL1        0.0320
      9  C         21.2330  -21.2190  -12.6160 C.2     1  UNL1        0.0190
     10  C         20.4420  -21.5720  -11.5160 C.2     1  UNL1        0.0300
     11  C         23.4130  -21.3820  -13.8810 C.2     1  UNL1        0.2490
     12  N         23.0310  -20.3380  -14.6790 N.am    1  UNL1       -0.3660
     13  H         22.0800  -20.0020  -14.6920 H       1  UNL1        0.1590
     14  H         23.5740  -20.2190  -15.5250 H       1  UNL1        0.1590
     15  O         24.4250  -22.0220  -14.1330 O.2     1  UNL1       -0.2680
     16  C         19.2030  -23.0340   -7.2210 C.2     1  UNL1        0.0440
     17  C         18.8380  -22.3070   -6.0620 C.2     1  UNL1        0.0080
     18  C         19.2700  -21.0900   -5.4520 C.2     1  UNL1        0.0320
     19  C         17.7930  -22.8020   -5.2700 C.2     1  UNL1        0.0450
     20  C         18.5250  -20.8950   -4.3130 C.2     1  UNL1        0.0910
     21  N         17.6370  -21.9320   -4.2110 N.pl3   1  UNL1       -0.3600
     22  C         16.6600  -22.0770   -3.1540 C.3     1  UNL1        0.1550
     23  C         17.0960  -23.9770   -5.6010 C.2     1  UNL1        0.0300
     24  C         17.4560  -24.6570   -6.7670 C.2     1  UNL1        0.0030
     25  C         18.4920  -24.1940   -7.5700 C.2     1  UNL1        0.0180
@<TRIPOS>BOND
     1    14    12    1
     2    13    12    1
     3    12    11   am
     4    15    11    2
     5    11     8    1
     6     8     9    2
     7     8     7    1
     8     9    10    1
     9     7     6    2
    10    10     5    2
    11     6     5    1
    12     5     3    1
    13     4     3    1
    14     3     1   am
    15     1     2    2
    16     1    16    1
    17    25    16    2
    18    25    24    1
    19    16    17    1
    20    24    23    2
    21    17    18    1
    22    17    19    2
    23    23    19    1
    24    18    20    2
    25    19    21    1
    26    20    21    1
    27    21    22    1
