@<TRIPOS>MOLECULE
2972_out_ligand_01.pdbqt
 37 40 0 0 0
SMALL
GASTEIGER

@<TRIPOS>ATOM
      1  C         20.6520  -23.1350  -10.0480 C.2     1  UNL1        0.2590
      2  O         20.7470  -24.1150   -9.3140 O.2     1  UNL1       -0.2670
      3  N         19.5240  -22.3540  -10.2000 N.am    1  UNL1       -0.3230
      4  H         19.6230  -21.5760  -10.8490 H       1  UNL1        0.1690
      5  C         21.8510  -22.7270  -10.8580 C.2     1  UNL1        0.0650
      6  C         21.6170  -21.9720  -12.0160 C.2     1  UNL1        0.0220
      7  C         22.6750  -21.5450  -12.8300 C.2     1  UNL1        0.0240
      8  C         24.0010  -21.8280  -12.4960 C.2     1  UNL1        0.0110
      9  C         24.2320  -22.6200  -11.3640 C.2     1  UNL1        0.0610
     10  C         23.1780  -23.0530  -10.5470 C.2     1  UNL1        0.0830
     11  N         25.0850  -21.4930  -13.3070 N.pl3   1  UNL1       -0.2870
     12  H         25.9580  -21.3660  -12.7910 H       1  UNL1        0.1280
     13  C         24.9650  -20.4100  -14.2880 C.3     1  UNL1        0.1530
     14  C         25.0040  -20.8650  -15.7250 C.2     1  UNL1        0.0690
     15  C         25.5670  -20.1920  -16.8360 C.2     1  UNL1        0.0490
     16  C         25.3380  -21.0210  -17.9080 C.2     1  UNL1        0.1140
     17  N         24.6760  -22.1050  -17.4120 N.pl3   1  UNL1       -0.2850
     18  C         24.2120  -23.2530  -18.1520 C.3     1  UNL1        0.1790
     19  N         24.4580  -22.0390  -16.0850 N.2     1  UNL1       -0.1770
     20  O         23.4780  -23.8110   -9.4410 O.2     1  UNL1       -0.3600
     21  H         23.0490  -24.6810   -9.5340 H       1  UNL1        0.2170
     22  C         18.2670  -22.5010   -9.5850 C.2     1  UNL1        0.0350
     23  C         17.0520  -22.3890  -10.2520 C.2     1  UNL1        0.0290
     24  C         15.8520  -22.5440   -9.5580 C.2     1  UNL1        0.0030
     25  C         15.8540  -22.8140   -8.1880 C.2     1  UNL1        0.0100
     26  C         17.0610  -22.9330   -7.4820 C.2     1  UNL1       -0.0190
     27  C         18.2610  -22.7730   -8.2080 C.2     1  UNL1        0.0390
     28  C         17.1090  -23.2510   -5.9920 C.3     1  UNL1        0.1390
     29  C         17.8250  -24.5710   -5.7040 C.3     1  UNL1        0.0540
     30  N         15.8000  -23.2530   -5.3650 N.am    1  UNL1       -0.3210
     31  C         15.6750  -22.3070   -4.3820 C.2     1  UNL1        0.3240
     32  H         15.0610  -23.9180   -5.5470 H       1  UNL1        0.1650
     33  O         14.6920  -22.1560   -3.6800 O.2     1  UNL1       -0.2470
     34  N         16.8230  -21.6010   -4.3100 N.am    1  UNL1       -0.2770
     35  C         17.7550  -22.1110   -5.1610 C.2     1  UNL1        0.2580
     36  H         16.9980  -20.8790   -3.6330 H       1  UNL1        0.1730
     37  O         18.9150  -21.7270   -5.2190 O.2     1  UNL1       -0.2700
@<TRIPOS>BOND
     1    18    17    1
     2    16    17    1
     3    16    15    2
     4    17    19    1
     5    15    14    1
     6    19    14    2
     7    14    13    1
     8    13    11    1
     9    11    12    1
    10    11     8    1
    11     7     8    2
    12     7     6    1
    13     8     9    1
    14     6     5    2
    15     9    10    2
    16     5    10    1
    17     5     1    1
    18     4     3    1
    19    10    20    1
    20    23    22    2
    21    23    24    1
    22     3     1   am
    23     3    22    1
    24     1     2    2
    25    22    27    1
    26    24    25    2
    27    21    20    1
    28    27    26    2
    29    25    26    1
    30    26    28    1
    31    28    29    1
    32    28    30    1
    33    28    35    1
    34    32    30    1
    35    30    31   am
    36    37    35    2
    37    35    34   am
    38    31    34   am
    39    31    33    2
    40    34    36    1
