@<TRIPOS>MOLECULE
29731_out_ligand_01.pdbqt
 29 32 0 0 0
SMALL
GASTEIGER

@<TRIPOS>ATOM
      1  C         21.4760  -21.9970  -11.7000 C.2     1  UNL1        0.0330
      2  C         20.4410  -21.1570  -12.1930 C.2     1  UNL1        0.0180
      3  C         19.1680  -21.1470  -11.6100 C.2     1  UNL1        0.0190
      4  C         18.9620  -21.9910  -10.5390 C.2     1  UNL1        0.0480
      5  C         19.9650  -22.8120  -10.0560 C.2     1  UNL1        0.0490
      6  C         21.2310  -22.8500  -10.6140 C.2     1  UNL1        0.0350
      7  C         19.4130  -23.5690   -8.9360 C.2     1  UNL1        0.2620
      8  O         20.0630  -24.3610   -8.2830 O.2     1  UNL1       -0.2670
      9  N         18.1060  -23.1860   -8.8140 N.am    1  UNL1       -0.2760
     10  C         17.7660  -22.2360   -9.7360 C.2     1  UNL1        0.2620
     11  O         16.7020  -21.6740   -9.9090 O.2     1  UNL1       -0.2670
     12  C         22.7930  -21.9670  -12.4050 C.2     1  UNL1        0.2560
     13  N         22.8060  -21.3130  -13.6240 N.am    1  UNL1       -0.3200
     14  H         21.9430  -20.9720  -14.0250 H       1  UNL1        0.1690
     15  O         23.7400  -22.5360  -11.8750 O.2     1  UNL1       -0.2670
     16  C         23.9330  -21.1240  -14.4060 C.2     1  UNL1        0.0710
     17  C         24.8210  -20.0750  -14.4060 C.2     1  UNL1        0.1420
     18  N         25.7490  -20.3550  -15.3660 N.pl3   1  UNL1       -0.2830
     19  C         26.8690  -19.5330  -15.7550 C.3     1  UNL1        0.1790
     20  N         25.5290  -21.5230  -16.0000 N.2     1  UNL1       -0.1830
     21  C         24.4210  -21.9880  -15.4130 C.2     1  UNL1        0.1690
     22  C         17.1870  -23.7290   -7.8310 C.3     1  UNL1        0.1760
     23  C         17.3110  -23.0280   -6.4960 C.2     1  UNL1       -0.0180
     24  C         18.4670  -22.2610   -6.2410 C.2     1  UNL1        0.0100
     25  C         18.6220  -21.5630   -5.0430 C.2     1  UNL1        0.0010
     26  C         17.6290  -21.6250   -4.0720 C.2     1  UNL1        0.0020
     27  C         16.4860  -22.3940   -4.2960 C.2     1  UNL1        0.0240
     28  C         16.3250  -23.0910   -5.4980 C.2     1  UNL1        0.0420
     29 CL         14.8800  -24.0270   -5.6760 Cl      1  UNL1       -0.0840
@<TRIPOS>BOND
     1    20    21    2
     2    20    18    1
     3    19    18    1
     4    21    16    1
     5    18    17    1
     6    17    16    2
     7    16    13    1
     8    14    13    1
     9    13    12   am
    10    12    15    2
    11    12     1    1
    12     2     1    2
    13     2     3    1
    14     1     6    1
    15     3     4    2
    16     6     5    2
    17     4     5    1
    18     4    10    1
    19     5     7    1
    20    11    10    2
    21    10     9   am
    22     7     9   am
    23     7     8    2
    24     9    22    1
    25    22    23    1
    26    23    24    2
    27    23    28    1
    28    24    25    1
    29    29    28    1
    30    28    27    2
    31    25    26    2
    32    27    26    1
