@<TRIPOS>MOLECULE
29762_out_ligand_01.pdbqt
 35 38 0 0 0
SMALL
GASTEIGER

@<TRIPOS>ATOM
      1  C         20.0870  -23.0860  -10.1220 C.2     1  UNL1        0.0350
      2  C         20.3420  -23.8100   -8.9540 C.2     1  UNL1        0.0310
      3  C         19.2970  -24.1620   -8.0940 C.2     1  UNL1        0.0270
      4  C         17.9850  -23.8040   -8.4130 C.2     1  UNL1        0.0800
      5  C         17.7180  -23.0620   -9.5640 C.2     1  UNL1        0.0270
      6  C         18.7690  -22.7100  -10.4160 C.2     1  UNL1        0.0310
      7  N         21.0800  -22.6940  -11.0350 N.am    1  UNL1       -0.3200
      8  C         21.1820  -21.5040  -11.7400 C.2     1  UNL1        0.2960
      9  O         20.4050  -20.5580  -11.6830 O.2     1  UNL1       -0.2640
     10  H         21.8340  -23.3520  -11.2230 H       1  UNL1        0.1690
     11  C         22.3850  -21.5000  -12.6050 C.2     1  UNL1        0.2560
     12  N         23.6120  -21.8590  -12.1970 N.2     1  UNL1       -0.1260
     13  N         24.3590  -21.7010  -13.3120 N.pl3   1  UNL1       -0.0560
     14  C         25.7200  -21.9160  -13.4920 C.3     1  UNL1        0.1200
     15  C         23.5560  -21.2280  -14.3550 C.cat   1  UNL1        0.7520
     16  C         26.2710  -21.6470  -14.6910 C.2     1  UNL1        0.0610
     17  C         25.3400  -21.1510  -15.7520 C.2     1  UNL1        0.0520
     18  C         25.9340  -20.8580  -17.1080 C.3     1  UNL1        0.0710
     19  N         24.0640  -20.9560  -15.5900 N.2     1  UNL1       -0.0660
     20  N         22.3200  -21.1060  -13.9270 N.pl3   1  UNL1       -0.0330
     21  C         26.4830  -22.4230  -12.3210 C.3     1  UNL1        0.4050
     22  F         26.3970  -21.5490  -11.2840 F       1  UNL1       -0.2070
     23  F         25.9390  -23.5870  -11.8630 F       1  UNL1       -0.2070
     24  S         16.6560  -24.2380   -7.3130 S.O2    1  UNL1        0.2630
     25  O         17.2180  -25.0560   -6.2580 O.2     1  UNL1       -0.2000
     26  O         15.5490  -24.7140   -8.1130 O.2     1  UNL1       -0.2000
     27  N         16.2520  -22.7700   -6.5870 N.pl3   1  UNL1       -0.2800
     28  H         15.2470  -22.6110   -6.5680 H       1  UNL1        0.1790
     29  C         17.0410  -22.2580   -5.5160 C.2     1  UNL1        0.0480
     30  C         18.1840  -21.5060   -5.8040 C.2     1  UNL1        0.0300
     31  C         18.9880  -21.0200   -4.7740 C.2     1  UNL1        0.0020
     32  C         18.6490  -21.2780   -3.4500 C.2     1  UNL1        0.0010
     33  C         17.5030  -22.0170   -3.1560 C.2     1  UNL1        0.0090
     34  C         16.6830  -22.5150   -4.1810 C.2     1  UNL1       -0.0350
     35  C         15.4530  -23.2980   -3.8190 C.3     1  UNL1        0.0500
@<TRIPOS>BOND
     1    18    17    1
     2    17    19    1
     3    17    16    2
     4    19    15    2
     5    16    14    1
     6    15    20    1
     7    15    13    1
     8    20    11    1
     9    14    13    1
    10    14    21    1
    11    13    12    1
    12    11    12    2
    13    11     8    1
    14    21    23    1
    15    21    22    1
    16     8     9    2
    17     8     7   am
    18    10     7    1
    19     7     1    1
    20     6     1    2
    21     6     5    1
    22     1     2    1
    23     5     4    2
    24     2     3    2
    25     4     3    1
    26     4    24    1
    27    26    24    2
    28    24    27    1
    29    24    25    2
    30    27    28    1
    31    27    29    1
    32    30    29    2
    33    30    31    1
    34    29    34    1
    35    31    32    2
    36    34    35    1
    37    34    33    2
    38    32    33    1
