@<TRIPOS>MOLECULE
2977_out_ligand_01.pdbqt
 36 40 0 0 0
SMALL
GASTEIGER

@<TRIPOS>ATOM
      1  N         22.2750  -21.9510  -11.4260 N.am    1  UNL1       -0.3230
      2  C         21.5910  -22.4120  -10.3170 C.2     1  UNL1        0.2560
      3  O         22.0620  -22.9520   -9.3240 O.2     1  UNL1       -0.2670
      4  H         21.7180  -21.6990  -12.2370 H       1  UNL1        0.1690
      5  C         23.6730  -21.8920  -11.6010 C.2     1  UNL1        0.0350
      6  C         24.5530  -21.3830  -10.6510 C.2     1  UNL1        0.0290
      7  C         25.9230  -21.3460  -10.9140 C.2     1  UNL1        0.0030
      8  C         26.4280  -21.8200  -12.1260 C.2     1  UNL1        0.0100
      9  C         25.5700  -22.3420  -13.1040 C.2     1  UNL1       -0.0190
     10  C         24.1870  -22.3580  -12.8200 C.2     1  UNL1        0.0390
     11  C         26.0810  -22.8630  -14.4430 C.3     1  UNL1        0.1390
     12  C         27.1210  -21.9350  -15.0720 C.3     1  UNL1        0.0540
     13  N         26.6020  -24.2150  -14.3710 N.am    1  UNL1       -0.3210
     14  C         25.9020  -25.1000  -15.1510 C.2     1  UNL1        0.3240
     15  H         27.4270  -24.5020  -13.8640 H       1  UNL1        0.1650
     16  O         26.1730  -26.2790  -15.2840 O.2     1  UNL1       -0.2470
     17  N         24.8900  -24.4430  -15.7530 N.am    1  UNL1       -0.2770
     18  C         24.9290  -23.1160  -15.4520 C.2     1  UNL1        0.2580
     19  H         24.2530  -24.8660  -16.4060 H       1  UNL1        0.1730
     20  O         24.1800  -22.2750  -15.9310 O.2     1  UNL1       -0.2700
     21  C         20.1100  -22.2580  -10.3950 C.2     1  UNL1        0.0330
     22  C         19.5090  -21.8340  -11.6300 C.2     1  UNL1        0.0190
     23  C         18.1180  -21.6420  -11.7930 C.2     1  UNL1        0.0360
     24  C         17.3670  -21.9000  -10.6340 C.ar    1  UNL1        0.0970
     25  N         16.0460  -21.8090  -10.4280 N.ar    1  UNL1       -0.1270
     26  C         18.0090  -22.3230   -9.4100 C.ar    1  UNL1        0.0330
     27  O         15.8270  -22.1600   -9.1080 O.2     1  UNL1       -0.2110
     28  C         17.0060  -22.4800   -8.4900 C.ar    1  UNL1        0.1240
     29  C         19.3760  -22.5080   -9.2110 C.2     1  UNL1        0.0330
     30  C         16.8820  -22.8960   -7.1000 C.2     1  UNL1        0.0010
     31  C         15.7480  -22.5400   -6.3510 C.2     1  UNL1        0.0170
     32  C         15.6180  -22.9430   -5.0190 C.2     1  UNL1        0.0430
     33  C         16.6170  -23.7080   -4.4330 C.2     1  UNL1        0.1160
     34  F         16.4920  -24.0990   -3.1580 F       1  UNL1       -0.2060
     35  C         17.7460  -24.0770   -5.1530 C.2     1  UNL1        0.0430
     36  C         17.8780  -23.6730   -6.4860 C.2     1  UNL1        0.0170
@<TRIPOS>BOND
     1    19    17    1
     2    20    18    2
     3    17    18   am
     4    17    14   am
     5    18    11    1
     6    16    14    2
     7    14    13   am
     8    12    11    1
     9    11    13    1
    10    11     9    1
    11    13    15    1
    12     9    10    1
    13     9     8    2
    14    10     5    2
    15     4     1    1
    16     8     7    1
    17    23    22    2
    18    23    24    1
    19    22    21    1
    20     5     1    1
    21     5     6    1
    22     1     2   am
    23     7     6    2
    24    24    25   ar
    25    24    26   ar
    26    25    27   ar
    27    21     2    1
    28    21    29    2
    29     2     3    2
    30    26    29    1
    31    26    28   ar
    32    27    28   ar
    33    28    30    1
    34    30    36    2
    35    30    31    1
    36    36    35    1
    37    31    32    2
    38    35    33    2
    39    32    33    1
    40    33    34    1
