@<TRIPOS>MOLECULE
29772_out_ligand_01.pdbqt
 32 36 0 0 0
SMALL
GASTEIGER

@<TRIPOS>ATOM
      1  C         22.8900  -21.8270  -13.0680 C.2     1  UNL1        0.0350
      2  C         23.6750  -22.5550  -12.1630 C.2     1  UNL1        0.0310
      3  C         23.1930  -22.8700  -10.8900 C.2     1  UNL1        0.0270
      4  C         21.9090  -22.4590  -10.5210 C.2     1  UNL1        0.0790
      5  C         21.1260  -21.7120  -11.4010 C.2     1  UNL1        0.0270
      6  C         21.6160  -21.4050  -12.6750 C.2     1  UNL1        0.0310
      7  S         21.3100  -22.8510   -8.9000 S.O2    1  UNL1        0.2590
      8  O         21.3540  -24.2930   -8.7710 O.2     1  UNL1       -0.2010
      9  O         21.9670  -21.9970   -7.9370 O.2     1  UNL1       -0.2010
     10  N         19.6890  -22.4620   -8.9670 N.3     1  UNL1       -0.3050
     11  H         19.4700  -21.7790   -9.6910 H       1  UNL1        0.1730
     12  C         18.6200  -22.8670   -8.0410 C.3     1  UNL1        0.0410
     13  C         18.6340  -24.3590   -7.6610 C.3     1  UNL1        0.0360
     14  C         17.4500  -24.6930   -6.7350 C.3     1  UNL1       -0.0120
     15  C         16.1330  -24.3830   -7.4620 C.3     1  UNL1        0.0090
     16  C         17.5440  -23.8300   -5.4640 C.3     1  UNL1        0.0090
     17  C         16.0830  -22.8950   -7.8410 C.3     1  UNL1       -0.0120
     18  C         16.1780  -22.0410   -6.5680 C.3     1  UNL1        0.0090
     19  C         17.2740  -22.5690   -8.7570 C.3     1  UNL1        0.0360
     20  C         17.4960  -22.3380   -5.8340 C.3     1  UNL1       -0.0120
     21  C         18.6800  -22.0080   -6.7590 C.3     1  UNL1        0.0360
     22  N         23.4500  -21.5590  -14.3270 N.am    1  UNL1       -0.3220
     23  C         24.5070  -20.7250  -14.6450 C.2     1  UNL1        0.2780
     24  O         25.1530  -20.0450  -13.8560 O.2     1  UNL1       -0.2650
     25  H         23.0480  -22.0210  -15.1400 H       1  UNL1        0.1690
     26  C         24.7840  -20.7370  -16.0950 C.2     1  UNL1        0.1670
     27  N         24.1930  -21.6510  -16.9040 N.2     1  UNL1       -0.1680
     28  N         24.6740  -21.3640  -18.1270 N.pl3   1  UNL1       -0.2870
     29  C         25.5360  -20.3130  -18.1430 C.2     1  UNL1        0.1350
     30  H         24.3680  -21.9330  -18.9120 H       1  UNL1        0.1880
     31  C         25.6330  -19.8800  -16.8430 C.2     1  UNL1        0.0870
     32 CL         26.5780  -18.5890  -16.2870 Cl      1  UNL1       -0.0800
@<TRIPOS>BOND
     1    30    28    1
     2    29    28    1
     3    29    31    2
     4    28    27    1
     5    27    26    2
     6    31    32    1
     7    31    26    1
     8    26    23    1
     9    25    22    1
    10    23    22   am
    11    23    24    2
    12    22     1    1
    13     1     6    2
    14     1     2    1
    15     6     5    1
    16     2     3    2
    17     5     4    2
    18     3     4    1
    19     4     7    1
    20    11    10    1
    21    10     7    1
    22    10    12    1
    23     7     8    2
    24     7     9    2
    25    19    12    1
    26    19    17    1
    27    12    13    1
    28    12    21    1
    29    17    15    1
    30    17    18    1
    31    13    14    1
    32    15    14    1
    33    21    20    1
    34    14    16    1
    35    18    20    1
    36    20    16    1
