@<TRIPOS>MOLECULE
29811_out_ligand_01.pdbqt
 30 32 0 0 0
SMALL
GASTEIGER

@<TRIPOS>ATOM
      1  C         21.1730  -23.1470   -8.5020 C.2     1  UNL1        0.2260
      2  O         21.2520  -22.2180   -7.7020 O.2     1  UNL1       -0.2730
      3  N         20.0060  -23.7580   -8.9200 N.am    1  UNL1       -0.3240
      4  H         20.0830  -24.5000   -9.6110 H       1  UNL1        0.1690
      5  C         18.6890  -23.5040   -8.4760 C.2     1  UNL1        0.0750
      6  C         18.2220  -23.7890   -7.1910 C.2     1  UNL1        0.0630
      7  C         16.9010  -23.4820   -6.8360 C.2     1  UNL1        0.0470
      8  C         16.0270  -22.9430   -7.7850 C.2     1  UNL1        0.0330
      9  C         16.4790  -22.6620   -9.0720 C.2     1  UNL1        0.0470
     10  C         17.8020  -22.9410   -9.4030 C.2     1  UNL1        0.1430
     11  F         18.2340  -22.6590  -10.6430 F       1  UNL1       -0.2040
     12  N         16.3590  -23.8280   -5.5520 N.pl3   1  UNL1       -0.2760
     13  C         14.9310  -23.5360   -5.2550 C.3     1  UNL1        0.1420
     14  C         14.9110  -22.5140   -4.1230 C.3     1  UNL1        0.0380
     15  C         15.9960  -22.9450   -3.1550 C.3     1  UNL1        0.1650
     16  S         17.3590  -23.4130   -4.2050 S.O2    1  UNL1        0.2330
     17  O         17.9650  -24.6240   -3.6990 O.2     1  UNL1       -0.2050
     18  O         18.1250  -22.2250   -4.5090 O.2     1  UNL1       -0.2050
     19  C         22.4220  -23.6750   -9.1970 C.3     1  UNL1        0.1410
     20  C         22.7470  -22.9960  -10.5080 C.2     1  UNL1       -0.0490
     21  C         24.0610  -22.9880  -10.9950 C.2     1  UNL1        0.0080
     22  C         24.3630  -22.3640  -12.2090 C.2     1  UNL1        0.0170
     23  C         23.3580  -21.7250  -12.9430 C.2     1  UNL1        0.0310
     24  C         22.0420  -21.7350  -12.4650 C.2     1  UNL1        0.0170
     25  C         21.7410  -22.3620  -11.2520 C.2     1  UNL1        0.0080
     26  C         23.7290  -21.0730  -14.2270 C.2     1  UNL1        0.2490
     27  N         22.8350  -20.1880  -14.7680 N.am    1  UNL1       -0.3660
     28  H         23.1720  -19.6640  -15.5660 H       1  UNL1        0.1590
     29  H         22.0980  -19.7700  -14.2200 H       1  UNL1        0.1590
     30  O         24.8050  -21.2850  -14.7710 O.2     1  UNL1       -0.2680
@<TRIPOS>BOND
     1    28    27    1
     2    30    26    2
     3    27    26   am
     4    27    29    1
     5    26    23    1
     6    23    24    2
     7    23    22    1
     8    24    25    1
     9    22    21    2
    10    25    20    2
    11    21    20    1
    12    11    10    1
    13    20    19    1
    14     4     3    1
    15    10     9    1
    16    10     5    2
    17    19     1    1
    18     9     8    2
    19     3     1   am
    20     3     5    1
    21     1     2    2
    22     5     6    1
    23     8     7    1
    24     6     7    2
    25     7    12    1
    26    12    13    1
    27    12    16    1
    28    13    14    1
    29    18    16    2
    30    16    17    2
    31    16    15    1
    32    14    15    1
