@<TRIPOS>MOLECULE
29813_out_ligand_01.pdbqt
 34 36 0 0 0
SMALL
GASTEIGER

@<TRIPOS>ATOM
      1  C         17.4270  -23.4030   -8.7850 C.2     1  UNL1        0.0860
      2  C         18.8250  -23.5230   -8.8220 C.2     1  UNL1        0.0420
      3  C         19.5600  -22.8790   -9.8200 C.2     1  UNL1        0.0330
      4  C         18.9030  -22.0730  -10.7550 C.2     1  UNL1        0.0170
      5  C         17.5130  -21.9390  -10.7060 C.2     1  UNL1        0.0090
      6  C         16.7490  -22.6100   -9.7330 C.2     1  UNL1       -0.0390
      7  C         15.2600  -22.4050   -9.7390 C.3     1  UNL1        0.0500
      8  C         21.0380  -23.0510   -9.8430 C.2     1  UNL1        0.2560
      9  O         21.5490  -23.7920   -9.0140 O.2     1  UNL1       -0.2670
     10  N         21.6860  -22.3620  -10.8540 N.am    1  UNL1       -0.3230
     11  H         21.1000  -21.8970  -11.5350 H       1  UNL1        0.1690
     12  C         23.0730  -22.3150  -11.1000 C.2     1  UNL1        0.0360
     13  C         23.9690  -21.5300  -10.3700 C.2     1  UNL1        0.0320
     14  C         25.3320  -21.5360  -10.6800 C.2     1  UNL1        0.0450
     15  C         25.8070  -22.3250  -11.7230 C.2     1  UNL1        0.1330
     16  F         27.1210  -22.2990  -11.9840 F       1  UNL1       -0.2050
     17  C         24.9330  -23.1130  -12.4680 C.2     1  UNL1        0.0780
     18  C         23.5630  -23.1030  -12.1520 C.2     1  UNL1        0.0510
     19  C         25.4660  -23.9410  -13.5730 C.2     1  UNL1        0.1790
     20  O         26.1270  -24.9570  -13.4860 O.2     1  UNL1       -0.6460
     21  O         25.1390  -23.4460  -14.7830 O.3     1  UNL1       -0.7730
     22  H         25.7450  -23.9250  -15.3890 H       1  UNL1        0.1670
     23  S         16.5630  -24.2930   -7.4900 S.O2    1  UNL1        0.2630
     24  O         17.5400  -25.0290   -6.7160 O.2     1  UNL1       -0.2000
     25  O         15.4320  -24.9730   -8.0840 O.2     1  UNL1       -0.2000
     26  N         15.9950  -23.0540   -6.4930 N.pl3   1  UNL1       -0.2810
     27  H         15.0050  -23.1470   -6.2790 H       1  UNL1        0.1790
     28  C         16.8510  -22.5030   -5.4990 C.2     1  UNL1        0.0430
     29  C         16.6120  -22.7100   -4.1430 C.2     1  UNL1        0.0300
     30  C         17.4490  -22.1250   -3.1920 C.2     1  UNL1        0.0030
     31  C         18.5240  -21.3330   -3.5960 C.2     1  UNL1        0.0070
     32  C         18.7700  -21.1150   -4.9580 C.2     1  UNL1       -0.0600
     33  C         19.9490  -20.2960   -5.3930 C.3     1  UNL1        0.0480
     34  C         17.9330  -21.7180   -5.9070 C.2     1  UNL1        0.0370
@<TRIPOS>BOND
     1    22    21    1
     2    21    19    1
     3    19    20    2
     4    19    17    1
     5    17    18    1
     6    17    15    2
     7    18    12    2
     8    16    15    1
     9    15    14    1
    10    11    10    1
    11    12    10    1
    12    12    13    1
    13    10     8   am
    14     4     5    2
    15     4     3    1
    16     5     6    1
    17    14    13    2
    18     8     3    1
    19     8     9    2
    20     3     2    2
    21     7     6    1
    22     6     1    2
    23     2     1    1
    24     1    23    1
    25    25    23    2
    26    23    24    2
    27    23    26    1
    28    26    27    1
    29    26    28    1
    30    34    28    2
    31    34    32    1
    32    28    29    1
    33    33    32    1
    34    32    31    2
    35    29    30    2
    36    31    30    1
