@<TRIPOS>MOLECULE
29822_out_ligand_01.pdbqt
 28 31 0 0 0
SMALL
GASTEIGER

@<TRIPOS>ATOM
      1  C         23.9560  -22.3270  -10.3500 C.2     1  UNL1        0.2260
      2  O         23.7940  -21.2670   -9.7510 O.2     1  UNL1       -0.2730
      3  N         23.0340  -23.3530  -10.4800 N.am    1  UNL1       -0.3260
      4  H         23.3430  -24.1760  -10.9730 H       1  UNL1        0.1690
      5  C         25.2710  -22.6230  -11.0590 C.3     1  UNL1        0.1410
      6  C         25.0890  -22.7960  -12.5490 C.2     1  UNL1       -0.0490
      7  C         25.5510  -23.9590  -13.1820 C.2     1  UNL1        0.0080
      8  C         25.4130  -24.1210  -14.5640 C.2     1  UNL1        0.0170
      9  C         24.8200  -23.1110  -15.3330 C.2     1  UNL1        0.0310
     10  C         24.3510  -21.9510  -14.7030 C.2     1  UNL1        0.0170
     11  C         24.4900  -21.7900  -13.3210 C.2     1  UNL1        0.0080
     12  C         24.6460  -23.2370  -16.8050 C.2     1  UNL1        0.2490
     13  N         23.3690  -23.3380  -17.2860 N.am    1  UNL1       -0.3660
     14  H         22.5970  -23.6080  -16.6950 H       1  UNL1        0.1590
     15  H         23.2860  -23.5440  -18.2730 H       1  UNL1        0.1590
     16  O         25.6080  -23.2780  -17.5640 O.2     1  UNL1       -0.2680
     17  C         21.7050  -23.4010   -9.9890 C.2     1  UNL1        0.0450
     18  C         21.3260  -24.2430   -8.9200 C.2     1  UNL1        0.0310
     19  C         20.0070  -24.2770   -8.4370 C.2     1  UNL1        0.0100
     20  C         19.0590  -23.4630   -9.0270 C.2     1  UNL1       -0.0460
     21  C         19.4260  -22.6460  -10.0640 C.2     1  UNL1       -0.0110
     22  C         17.6050  -23.3210   -8.6930 C.2     1  UNL1        0.0440
     23  C         18.3380  -21.9330  -10.5000 C.2     1  UNL1       -0.0460
     24  C         20.7200  -22.5570  -10.5960 C.2     1  UNL1        0.0020
     25  C         18.4770  -21.0410  -11.5480 C.2     1  UNL1        0.0080
     26  C         17.1050  -22.2690   -9.7130 C.2     1  UNL1        0.0440
     27  C         19.7390  -20.8950  -12.1350 C.2     1  UNL1        0.0020
     28  C         20.8460  -21.6390  -11.6720 C.2     1  UNL1        0.0140
@<TRIPOS>BOND
     1    15    13    1
     2    16    12    2
     3    13    12   am
     4    13    14    1
     5    12     9    1
     6     9    10    2
     7     9     8    1
     8    10    11    1
     9     8     7    2
    10    11     6    2
    11     7     6    1
    12     6     5    1
    13    27    28    2
    14    27    25    1
    15    28    24    1
    16    25    23    2
    17     5     1    1
    18     4     3    1
    19    24    21    1
    20    24    17    2
    21    23    21    1
    22    23    26    1
    23     3     1   am
    24     3    17    1
    25     1     2    2
    26    21    20    2
    27    17    18    1
    28    26    22    2
    29    20    22    1
    30    20    19    1
    31    18    19    2
