@<TRIPOS>MOLECULE
29828_out_ligand_01.pdbqt
 37 41 0 0 0
SMALL
GASTEIGER

@<TRIPOS>ATOM
      1  C         20.6270  -23.0360   -9.2820 C.2     1  UNL1        0.2560
      2  O         20.0840  -23.6510  -10.1910 O.2     1  UNL1       -0.2670
      3  N         21.8710  -22.4340   -9.3060 N.am    1  UNL1       -0.3230
      4  H         22.1050  -21.8420   -8.5190 H       1  UNL1        0.1690
      5  C         22.8220  -22.4660  -10.3490 C.2     1  UNL1        0.0370
      6  C         24.0920  -23.0380  -10.2190 C.2     1  UNL1        0.0320
      7  C         25.0070  -23.0370  -11.2850 C.2     1  UNL1        0.0360
      8  C         24.6330  -22.4480  -12.4980 C.ar    1  UNL1        0.0850
      9  N         25.3330  -22.3200  -13.6700 N.ar    1  UNL1       -0.2320
     10  C         23.3700  -21.8820  -12.6110 C.ar    1  UNL1        0.0640
     11  C         24.5310  -21.6800  -14.5000 C.ar    1  UNL1        0.1330
     12  N         23.3270  -21.4080  -13.8960 N.ar    1  UNL1       -0.3410
     13  H         22.5500  -20.9290  -14.3270 H       1  UNL1        0.1670
     14  C         22.4410  -21.8690  -11.5650 C.2     1  UNL1        0.0610
     15  C         24.8180  -21.2920  -15.9210 C.3     1  UNL1        0.3500
     16  N         25.3510  -19.9370  -16.1120 N.3     1  UNL1        0.0950
     17  C         26.3170  -19.8460  -17.2050 C.3     1  UNL1        0.2730
     18  C         26.4980  -18.3790  -17.6170 C.3     1  UNL1        0.0300
     19  C         26.4630  -17.4080  -16.4340 C.3     1  UNL1        0.0030
     20  C         26.7810  -18.1230  -15.1280 C.3     1  UNL1        0.0300
     21  C         25.8250  -19.2990  -14.8820 C.3     1  UNL1        0.2730
     22  C         19.8750  -22.8590   -8.0090 C.2     1  UNL1        0.0320
     23  C         20.1920  -21.7750   -7.1870 C.2     1  UNL1        0.0170
     24  C         19.5080  -21.5760   -5.9830 C.2     1  UNL1        0.0110
     25  C         18.4820  -22.4480   -5.5760 C.2     1  UNL1       -0.0210
     26  C         18.1610  -23.5220   -6.4330 C.2     1  UNL1        0.0110
     27  C         18.8450  -23.7270   -7.6360 C.2     1  UNL1        0.0170
     28  C         17.7140  -22.2510   -4.2720 C.3     1  UNL1        0.1390
     29  C         18.4420  -21.4980   -3.1540 C.3     1  UNL1        0.0540
     30  N         16.4350  -21.6110   -4.5240 N.am    1  UNL1       -0.3210
     31  C         15.3710  -22.3780   -4.1250 C.2     1  UNL1        0.3240
     32  H         16.3050  -20.7340   -5.0110 H       1  UNL1        0.1650
     33  O         14.2000  -22.0820   -4.2710 O.2     1  UNL1       -0.2470
     34  N         15.8420  -23.5250   -3.5820 N.am    1  UNL1       -0.2770
     35  C         17.2000  -23.5870   -3.6810 C.2     1  UNL1        0.2580
     36  H         15.2560  -24.2740   -3.2570 H       1  UNL1        0.1730
     37  O         17.8760  -24.5480   -3.3420 O.2     1  UNL1       -0.2700
@<TRIPOS>BOND
     1    18    17    1
     2    18    19    1
     3    17    16    1
     4    19    20    1
     5    16    15    1
     6    16    21    1
     7    15    11    1
     8    20    21    1
     9    11    12   ar
    10    11     9   ar
    11    13    12    1
    12    12    10   ar
    13     9     8   ar
    14    10     8   ar
    15    10    14    1
    16     8     7    1
    17    14     5    2
    18     7     6    2
    19     5     6    1
    20     5     3    1
    21     2     1    2
    22     3     1   am
    23     3     4    1
    24     1    22    1
    25    22    27    2
    26    22    23    1
    27    27    26    1
    28    23    24    2
    29    26    25    2
    30    24    25    1
    31    25    28    1
    32    32    30    1
    33    30    28    1
    34    30    31   am
    35    28    35    1
    36    28    29    1
    37    33    31    2
    38    31    34   am
    39    35    34   am
    40    35    37    2
    41    34    36    1
