@<TRIPOS>MOLECULE
29826_out_ligand_01.pdbqt
 30 32 0 0 0
SMALL
GASTEIGER

@<TRIPOS>ATOM
      1  N         19.5390  -22.7070   -9.5890 N.am    1  UNL1       -0.3080
      2  C         18.8520  -23.4650   -8.6620 C.2     1  UNL1        0.3210
      3  O         19.2980  -24.4020   -8.0140 O.2     1  UNL1       -0.2470
      4  N         17.5410  -23.0370   -8.5680 N.am    1  UNL1       -0.3380
      5  H         18.9530  -22.2470  -10.2680 H       1  UNL1        0.1700
      6  H         17.3490  -22.1030   -8.8940 H       1  UNL1        0.1640
      7  C         20.9290  -22.7140   -9.8360 C.2     1  UNL1        0.0420
      8  C         21.8400  -23.2420   -8.9120 C.2     1  UNL1        0.0310
      9  C         23.2160  -23.2270   -9.1610 C.2     1  UNL1        0.0190
     10  C         23.7050  -22.6770  -10.3460 C.2     1  UNL1        0.0320
     11  C         22.8060  -22.1200  -11.2640 C.2     1  UNL1        0.0260
     12  C         21.4190  -22.1300  -11.0230 C.2     1  UNL1       -0.0340
     13  C         20.5130  -21.5180  -12.0570 C.3     1  UNL1        0.0500
     14  C         25.1580  -22.6360  -10.6630 C.2     1  UNL1        0.2490
     15  N         25.9240  -23.6910  -10.2520 N.am    1  UNL1       -0.3660
     16  H         26.8770  -23.7020  -10.5920 H       1  UNL1        0.1590
     17  H         25.5190  -24.5770   -9.9870 H       1  UNL1        0.1590
     18  O         25.6520  -21.7130  -11.2970 O.2     1  UNL1       -0.2680
     19  C         16.6210  -23.5890   -7.5660 C.3     1  UNL1        0.0900
     20  C         15.5520  -24.3820   -8.3230 C.3     1  UNL1        0.0330
     21  C         16.0150  -22.4630   -6.6550 C.3     1  UNL1        0.0410
     22  C         14.6060  -22.7930   -6.1190 C.3     1  UNL1        0.0110
     23  C         14.6600  -23.9340   -5.1100 C.3     1  UNL1        0.0050
     24  C         15.5000  -23.5520   -3.8940 C.3     1  UNL1        0.0390
     25  C         16.7050  -22.6950   -4.2020 C.2     1  UNL1       -0.0510
     26  C         17.5890  -22.3940   -3.1530 C.2     1  UNL1        0.0070
     27  C         16.9230  -22.1300   -5.4740 C.2     1  UNL1       -0.0460
     28  C         18.6740  -21.5410   -3.3530 C.2     1  UNL1        0.0010
     29  C         18.8780  -20.9650   -4.6010 C.2     1  UNL1        0.0010
     30  C         18.0060  -21.2510   -5.6520 C.2     1  UNL1        0.0080
@<TRIPOS>BOND
     1    13    12    1
     2    18    14    2
     3    11    12    1
     4    11    10    2
     5    12     7    2
     6    14    10    1
     7    14    15   am
     8    16    15    1
     9    10     9    1
    10     5     1    1
    11    15    17    1
    12     7     1    1
    13     7     8    1
    14     1     2   am
    15     9     8    2
    16     6     4    1
    17     2     4   am
    18     2     3    2
    19     4    19    1
    20    20    19    1
    21    19    21    1
    22    21    22    1
    23    21    27    1
    24    22    23    1
    25    30    27    1
    26    30    29    2
    27    27    25    2
    28    23    24    1
    29    29    28    1
    30    25    24    1
    31    25    26    1
    32    28    26    2
