@<TRIPOS>MOLECULE
29831_out_ligand_01.pdbqt
 37 41 0 0 0
SMALL
GASTEIGER

@<TRIPOS>ATOM
      1  C         23.8680  -22.4080  -11.8360 C.2     1  UNL1        0.2560
      2  O         23.2170  -21.4500  -12.2380 O.2     1  UNL1       -0.2670
      3  N         23.7200  -23.0640  -10.6270 N.am    1  UNL1       -0.3230
      4  H         24.4440  -23.7220  -10.3690 H       1  UNL1        0.1690
      5  C         22.7100  -22.8530   -9.6610 C.2     1  UNL1        0.0370
      6  C         22.9640  -21.8800   -8.6800 C.2     1  UNL1        0.0320
      7  C         22.0450  -21.5930   -7.6610 C.2     1  UNL1        0.0340
      8  C         20.8630  -22.3310   -7.6660 C.ar    1  UNL1        0.0630
      9  N         19.7650  -22.3280   -6.8450 N.ar    1  UNL1       -0.3380
     10  C         20.5780  -23.3030   -8.6120 C.ar    1  UNL1        0.0880
     11  C         18.8650  -23.2680   -7.2980 C.ar    1  UNL1        0.1390
     12  H         19.6460  -21.7470   -6.0310 H       1  UNL1        0.1670
     13  N         19.3540  -23.8730   -8.3670 N.ar    1  UNL1       -0.2280
     14  C         21.5080  -23.5720   -9.6300 C.2     1  UNL1        0.0630
     15  C         17.5690  -23.5540   -6.6700 C.2     1  UNL1        0.0100
     16  C         16.5350  -24.0930   -7.4570 C.2     1  UNL1        0.0180
     17  C         15.2830  -24.3730   -6.9060 C.2     1  UNL1        0.0430
     18  C         15.0570  -24.1120   -5.5610 C.2     1  UNL1        0.1160
     19  F         13.8570  -24.3740   -5.0280 F       1  UNL1       -0.2060
     20  C         16.0580  -23.5770   -4.7610 C.2     1  UNL1        0.0430
     21  C         17.3130  -23.2970   -5.3120 C.2     1  UNL1        0.0180
     22  C         24.9740  -22.9120  -12.7000 C.2     1  UNL1        0.0330
     23  C         26.0430  -23.6470  -12.1800 C.2     1  UNL1        0.0170
     24  C         27.0420  -24.1080  -13.0330 C.2     1  UNL1        0.0020
     25  C         26.9690  -23.8570  -14.4080 C.2     1  UNL1        0.0100
     26  C         25.8860  -23.1540  -14.9670 C.2     1  UNL1       -0.0200
     27  C         24.8990  -22.6750  -14.0820 C.2     1  UNL1        0.0270
     28  C         25.7820  -22.8650  -16.4610 C.3     1  UNL1        0.1390
     29  C         27.1180  -22.9310  -17.2120 C.3     1  UNL1        0.0540
     30  N         24.8120  -23.7630  -17.0620 N.am    1  UNL1       -0.3210
     31  C         23.7630  -23.0970  -17.6460 C.2     1  UNL1        0.3240
     32  H         24.7990  -24.7700  -16.9630 H       1  UNL1        0.1650
     33  O         22.7910  -23.6290  -18.1530 O.2     1  UNL1       -0.2470
     34  N         23.9810  -21.7670  -17.5430 N.am    1  UNL1       -0.2770
     35  C         25.1110  -21.5170  -16.8270 C.2     1  UNL1        0.2580
     36  H         23.3410  -21.0640  -17.8710 H       1  UNL1        0.1730
     37  O         25.5050  -20.3960  -16.5350 O.2     1  UNL1       -0.2700
@<TRIPOS>BOND
     1    33    31    2
     2    36    34    1
     3    31    34   am
     4    31    30   am
     5    34    35   am
     6    29    28    1
     7    30    32    1
     8    30    28    1
     9    35    37    2
    10    35    28    1
    11    28    26    1
    12    26    25    2
    13    26    27    1
    14    25    24    1
    15    27    22    2
    16    24    23    2
    17    22    23    1
    18    22     1    1
    19     2     1    2
    20     1     3   am
    21     3     4    1
    22     3     5    1
    23     5    14    2
    24     5     6    1
    25    14    10    1
    26     6     7    2
    27    10    13   ar
    28    10     8   ar
    29    13    11   ar
    30     8     7    1
    31     8     9   ar
    32    16    17    1
    33    16    15    2
    34    11     9   ar
    35    11    15    1
    36    17    18    2
    37     9    12    1
    38    15    21    1
    39    18    19    1
    40    18    20    1
    41    21    20    2
