@<TRIPOS>MOLECULE
29836_out_ligand_01.pdbqt
 32 35 0 0 0
SMALL
GASTEIGER

@<TRIPOS>ATOM
      1  C         24.1350  -22.0440  -13.1100 C.2     1  UNL1       -0.0210
      2  C         22.8320  -21.5150  -13.1350 C.2     1  UNL1        0.0110
      3  C         21.8940  -21.8430  -12.1480 C.2     1  UNL1        0.0170
      4  C         22.2460  -22.7070  -11.1060 C.2     1  UNL1        0.0320
      5  C         23.5300  -23.2560  -11.0730 C.2     1  UNL1        0.0170
      6  C         24.4630  -22.9230  -12.0600 C.2     1  UNL1        0.0110
      7  C         21.2800  -23.0890  -10.0380 C.2     1  UNL1        0.2560
      8  O         21.5710  -24.0190   -9.2950 O.2     1  UNL1       -0.2670
      9  N         20.1400  -22.3120   -9.9760 N.am    1  UNL1       -0.3200
     10  H         20.0920  -21.4940  -10.5750 H       1  UNL1        0.1690
     11  C         19.0440  -22.4550   -9.0970 C.2     1  UNL1        0.0760
     12  C         19.1020  -22.2410   -7.7150 C.2     1  UNL1        0.0620
     13  C         17.9580  -22.4100   -6.9090 C.2     1  UNL1        0.0400
     14  C         16.7500  -22.8030   -7.5110 C.2     1  UNL1        0.0330
     15  C         16.6880  -23.0220   -8.8890 C.2     1  UNL1        0.0470
     16  C         17.8280  -22.8490   -9.6630 C.2     1  UNL1        0.1430
     17  F         17.7540  -23.0660  -10.9860 F       1  UNL1       -0.2040
     18  N         18.0260  -22.1860   -5.4950 N.pl3   1  UNL1       -0.3330
     19  C         18.7280  -21.1860   -4.8460 C.2     1  UNL1        0.0960
     20  C         18.5460  -21.3020   -3.4850 C.2     1  UNL1        0.0190
     21  C         17.7060  -22.4080   -3.2710 C.2     1  UNL1        0.0190
     22  C         17.4000  -22.9310   -4.5100 C.2     1  UNL1        0.0960
     23  C         25.1740  -21.7120  -14.1790 C.3     1  UNL1        0.1390
     24  C         26.4980  -22.4450  -13.9600 C.3     1  UNL1        0.0540
     25  N         24.6990  -21.9520  -15.5300 N.am    1  UNL1       -0.3210
     26  C         24.6770  -20.8170  -16.2970 C.2     1  UNL1        0.3240
     27  H         24.5050  -22.8580  -15.9330 H       1  UNL1        0.1650
     28  O         24.3720  -20.7790  -17.4750 O.2     1  UNL1       -0.2470
     29  N         25.0650  -19.7710  -15.5370 N.am    1  UNL1       -0.2770
     30  C         25.4280  -20.1870  -14.2930 C.2     1  UNL1        0.2580
     31  H         25.1680  -18.8310  -15.8790 H       1  UNL1        0.1730
     32  O         25.8990  -19.4560  -13.4330 O.2     1  UNL1       -0.2700
@<TRIPOS>BOND
     1    28    26    2
     2    26    29   am
     3    26    25   am
     4    27    25    1
     5    31    29    1
     6    29    30   am
     7    25    23    1
     8    30    23    1
     9    30    32    2
    10    23    24    1
    11    23     1    1
    12     2     1    2
    13     2     3    1
    14     1     6    1
    15     3     4    2
    16     6     5    2
    17     4     5    1
    18     4     7    1
    19    17    16    1
    20    10     9    1
    21     7     9   am
    22     7     8    2
    23     9    11    1
    24    16    11    2
    25    16    15    1
    26    11    12    1
    27    15    14    2
    28    12    13    2
    29    14    13    1
    30    13    18    1
    31    18    19    1
    32    18    22    1
    33    19    20    2
    34    22    21    2
    35    20    21    1
