@<TRIPOS>MOLECULE
29840_out_ligand_01.pdbqt
 30 33 0 0 0
SMALL
GASTEIGER

@<TRIPOS>ATOM
      1  C         22.2000  -22.4740  -11.0810 C.2     1  UNL1       -0.0210
      2  C         21.8270  -23.4220  -10.1110 C.2     1  UNL1        0.0110
      3  C         20.4860  -23.6180   -9.7670 C.2     1  UNL1        0.0170
      4  C         19.4890  -22.8660  -10.3870 C.2     1  UNL1        0.0320
      5  C         19.8290  -21.9510  -11.3840 C.2     1  UNL1        0.0170
      6  C         21.1720  -21.7570  -11.7220 C.2     1  UNL1        0.0110
      7  C         18.0740  -23.1170  -10.0280 C.2     1  UNL1        0.2540
      8  O         17.4810  -24.0070  -10.6320 O.2     1  UNL1       -0.2670
      9  N         17.4690  -22.3280   -9.0540 N.am    1  UNL1       -0.3430
     10  C         16.0440  -22.5210   -8.7990 C.3     1  UNL1        0.1310
     11  C         18.1960  -21.6510   -7.9760 C.3     1  UNL1        0.1680
     12  C         15.8470  -23.4410   -7.5960 C.3     1  UNL1        0.0590
     13  C         16.6620  -22.9690   -6.4110 C.2     1  UNL1       -0.0450
     14  C         16.3300  -23.3980   -5.1160 C.2     1  UNL1        0.0110
     15  C         17.7880  -22.1400   -6.6050 C.2     1  UNL1        0.0080
     16  C         17.0900  -22.9870   -4.0180 C.2     1  UNL1        0.0460
     17  C         18.1850  -22.1520   -4.2120 C.2     1  UNL1        0.1550
     18  F         18.9080  -21.7550   -3.1530 F       1  UNL1       -0.2030
     19  C         18.5300  -21.7310   -5.4900 C.2     1  UNL1        0.1630
     20  F         19.5870  -20.9230   -5.6580 F       1  UNL1       -0.2020
     21  C         23.6660  -22.2890  -11.4680 C.3     1  UNL1        0.1390
     22  C         24.4070  -21.4140  -10.4610 C.3     1  UNL1        0.0540
     23  N         24.3560  -23.5570  -11.6450 N.am    1  UNL1       -0.3210
     24  C         24.8440  -23.7370  -12.9150 C.2     1  UNL1        0.3240
     25  H         24.5770  -24.2170  -10.9150 H       1  UNL1        0.1650
     26  O         25.5170  -24.6870  -13.2790 O.2     1  UNL1       -0.2470
     27  N         24.4840  -22.6770  -13.6670 N.am    1  UNL1       -0.2770
     28  C         23.8690  -21.7290  -12.9030 C.2     1  UNL1        0.2580
     29  H         24.7840  -22.5380  -14.6150 H       1  UNL1        0.1730
     30  O         23.5710  -20.6120  -13.2990 O.2     1  UNL1       -0.2700
@<TRIPOS>BOND
     1    29    27    1
     2    27    24   am
     3    27    28   am
     4    30    28    2
     5    26    24    2
     6    24    23   am
     7    28    21    1
     8     6     5    1
     9     6     1    2
    10    23    21    1
    11    23    25    1
    12    21     1    1
    13    21    22    1
    14     5     4    2
    15     1     2    1
    16     8     7    2
    17     4     7    1
    18     4     3    1
    19     2     3    2
    20     7     9   am
    21     9    10    1
    22     9    11    1
    23    10    12    1
    24    11    15    1
    25    12    13    1
    26    15    13    2
    27    15    19    1
    28    13    14    1
    29    20    19    1
    30    19    17    2
    31    14    16    2
    32    17    16    1
    33    17    18    1
