@<TRIPOS>MOLECULE
29850_out_ligand_01.pdbqt
 29 31 0 0 0
SMALL
GASTEIGER

@<TRIPOS>ATOM
      1  C         20.9300  -22.1550   -7.5060 C.3     1  UNL1        0.0480
      2  C         20.3750  -22.4230   -8.9180 C.3     1  UNL1        0.2520
      3  C         18.8550  -22.5190   -8.7970 C.2     1  UNL1       -0.0230
      4  C         18.0430  -22.6970   -9.9290 C.2     1  UNL1        0.0090
      5  C         16.6580  -22.8170   -9.8010 C.2     1  UNL1        0.0030
      6  C         16.0650  -22.7500   -8.5410 C.2     1  UNL1        0.0300
      7  C         16.8550  -22.5380   -7.4090 C.2     1  UNL1        0.0450
      8  C         18.2440  -22.4540   -7.5360 C.2     1  UNL1        0.0390
      9  N         16.3040  -22.5240   -6.0900 N.pl3   1  UNL1       -0.2760
     10  C         14.8320  -22.5810   -5.9030 C.3     1  UNL1        0.1420
     11  C         14.5380  -23.6770   -4.8780 C.3     1  UNL1        0.0380
     12  C         15.6940  -23.6650   -3.8920 C.3     1  UNL1        0.1650
     13  S         17.1250  -23.5010   -4.9370 S.O2    1  UNL1        0.2330
     14  O         18.1340  -22.7050   -4.2780 O.2     1  UNL1       -0.2050
     15  O         17.4020  -24.8000   -5.5100 O.2     1  UNL1       -0.2050
     16  N         20.9500  -23.6270   -9.5790 N.3     1  UNL1        0.0970
     17  C         20.6520  -24.8600   -8.8400 C.3     1  UNL1        0.3110
     18  C         22.4160  -23.4800   -9.7360 C.3     1  UNL1        0.3110
     19  C         22.8180  -22.8440  -11.0530 C.2     1  UNL1       -0.0300
     20  C         24.1250  -22.9800  -11.5420 C.2     1  UNL1        0.0100
     21  C         24.4940  -22.3810  -12.7490 C.2     1  UNL1        0.0170
     22  C         23.5660  -21.6280  -13.4800 C.2     1  UNL1        0.0310
     23  C         22.2590  -21.4940  -13.0010 C.2     1  UNL1        0.0170
     24  C         21.8910  -22.0920  -11.7930 C.2     1  UNL1        0.0100
     25  C         24.0110  -21.0140  -14.7600 C.2     1  UNL1        0.2490
     26  N         24.6140  -19.7880  -14.6980 N.am    1  UNL1       -0.3660
     27  H         24.9910  -19.4170  -13.8390 H       1  UNL1        0.1590
     28  H         25.0190  -19.4550  -15.5650 H       1  UNL1        0.1590
     29  O         23.8800  -21.5900  -15.8330 O.2     1  UNL1       -0.2680
@<TRIPOS>BOND
     1    29    25    2
     2    28    26    1
     3    25    26   am
     4    25    22    1
     5    26    27    1
     6    22    23    2
     7    22    21    1
     8    23    24    1
     9    21    20    2
    10    24    19    2
    11    20    19    1
    12    19    18    1
    13     4     5    1
    14     4     3    2
    15     5     6    2
    16    18    16    1
    17    16     2    1
    18    16    17    1
    19     2     3    1
    20     2     1    1
    21     3     8    1
    22     6     7    1
    23     8     7    2
    24     7     9    1
    25     9    10    1
    26     9    13    1
    27    10    11    1
    28    15    13    2
    29    13    14    2
    30    13    12    1
    31    11    12    1
