@<TRIPOS>MOLECULE
29878_out_ligand_01.pdbqt
 37 41 0 0 0
SMALL
GASTEIGER

@<TRIPOS>ATOM
      1  C         24.2360  -22.3180  -10.4780 C.2     1  UNL1        0.2560
      2  O         24.5890  -23.2480   -9.7600 O.2     1  UNL1       -0.2670
      3  N         22.9880  -21.7220  -10.5130 N.am    1  UNL1       -0.3230
      4  H         22.8060  -21.0800  -11.2730 H       1  UNL1        0.1690
      5  C         21.8950  -21.9840   -9.6590 C.2     1  UNL1        0.0350
      6  C         21.9860  -22.0380   -8.2690 C.2     1  UNL1        0.0300
      7  C         20.8470  -22.2910   -7.4920 C.2     1  UNL1        0.0170
      8  C         19.5950  -22.5020   -8.0850 C.2     1  UNL1        0.0100
      9  C         19.5060  -22.4360   -9.4830 C.2     1  UNL1        0.0170
     10  C         20.6440  -22.1780  -10.2600 C.2     1  UNL1        0.0300
     11  C         18.4340  -22.7700   -7.2300 C.ar    1  UNL1        0.1390
     12  N         17.4350  -23.5850   -7.5150 N.ar    1  UNL1       -0.2280
     13  C         16.5680  -23.5260   -6.4540 C.ar    1  UNL1        0.0880
     14  C         15.3580  -24.1990   -6.2470 C.2     1  UNL1        0.0760
     15  C         17.0330  -22.6420   -5.4890 C.ar    1  UNL1        0.0630
     16  C         14.6670  -23.9420   -5.0630 C.2     1  UNL1        0.1180
     17  F         13.5060  -24.5730   -4.8360 F       1  UNL1       -0.2060
     18  C         15.1470  -23.0520   -4.1050 C.2     1  UNL1        0.0440
     19  C         16.3530  -22.3730   -4.2990 C.2     1  UNL1        0.0350
     20  N         18.2130  -22.1770   -6.0080 N.ar    1  UNL1       -0.3380
     21  H         18.8110  -21.4920   -5.5760 H       1  UNL1        0.1670
     22  C         25.2160  -21.7840  -11.4650 C.2     1  UNL1        0.0330
     23  C         26.0560  -20.7110  -11.1590 C.2     1  UNL1        0.0170
     24  C         26.9550  -20.2480  -12.1170 C.2     1  UNL1        0.0020
     25  C         27.0320  -20.8630  -13.3700 C.2     1  UNL1        0.0100
     26  C         26.2270  -21.9690  -13.6930 C.2     1  UNL1       -0.0200
     27  C         25.3080  -22.4060  -12.7190 C.2     1  UNL1        0.0270
     28  C         26.2900  -22.6430  -15.0600 C.3     1  UNL1        0.1390
     29  C         27.1200  -21.8940  -16.1090 C.3     1  UNL1        0.0540
     30  N         26.7730  -24.0030  -14.9120 N.am    1  UNL1       -0.3210
     31  C         25.8750  -24.9370  -15.3580 C.2     1  UNL1        0.3240
     32  H         27.6170  -24.2760  -14.4270 H       1  UNL1        0.1650
     33  O         26.0220  -26.1430  -15.2860 O.2     1  UNL1       -0.2470
     34  N         24.7990  -24.2980  -15.8670 N.am    1  UNL1       -0.2770
     35  C         24.9120  -22.9520  -15.6980 C.2     1  UNL1        0.2580
     36  H         23.9870  -24.7680  -16.2300 H       1  UNL1        0.1730
     37  O         24.0480  -22.1430  -16.0070 O.2     1  UNL1       -0.2700
@<TRIPOS>BOND
     1    36    34    1
     2    29    28    1
     3    37    35    2
     4    34    35   am
     5    34    31   am
     6    35    28    1
     7    31    33    2
     8    31    30   am
     9    28    30    1
    10    28    26    1
    11    30    32    1
    12    26    25    2
    13    26    27    1
    14    25    24    1
    15    27    22    2
    16    24    23    2
    17    22    23    1
    18    22     1    1
    19     4     3    1
    20     3     1   am
    21     3     5    1
    22     1     2    2
    23    10     5    2
    24    10     9    1
    25     5     6    1
    26     9     8    2
    27     6     7    2
    28     8     7    1
    29     8    11    1
    30    12    11   ar
    31    12    13   ar
    32    11    20   ar
    33    13    14    2
    34    13    15   ar
    35    14    16    1
    36    20    21    1
    37    20    15   ar
    38    15    19    2
    39    16    17    1
    40    16    18    2
    41    19    18    1
