@<TRIPOS>MOLECULE
29882_out_ligand_01.pdbqt
 28 30 0 0 0
SMALL
GASTEIGER

@<TRIPOS>ATOM
      1  C         20.2860  -23.0270   -8.8640 C.2     1  UNL1        0.2570
      2  O         20.1620  -24.2260   -8.6450 O.2     1  UNL1       -0.2670
      3  N         19.7510  -21.9790   -8.1440 N.am    1  UNL1       -0.3230
      4  H         19.9430  -21.0430   -8.4830 H       1  UNL1        0.1690
      5  C         21.0430  -22.6350  -10.0780 C.2     1  UNL1        0.0510
      6  C         20.4600  -22.0550  -11.2130 C.2     1  UNL1        0.0260
      7  C         21.2640  -21.7040  -12.3060 C.2     1  UNL1        0.0210
      8 BR         18.6080  -21.6560  -11.3470 Br      1  UNL1       -0.0500
      9  C         22.6450  -21.9120  -12.2650 C.2     1  UNL1        0.0260
     10  C         23.2220  -22.4670  -11.1220 C.2     1  UNL1        0.0750
     11  C         22.4310  -22.8360  -10.0320 C.2     1  UNL1        0.0430
     12  S         24.9720  -22.7420  -11.0450 S.O2    1  UNL1        0.2390
     13  O         25.6130  -21.4930  -10.7040 O.2     1  UNL1       -0.2060
     14  O         25.3460  -23.5210  -12.1990 O.2     1  UNL1       -0.2060
     15  N         25.1140  -23.7100   -9.6780 N.3     1  UNL1       -0.2250
     16  H         25.5960  -24.5760   -9.9270 H       1  UNL1        0.1360
     17  H         25.5400  -23.2470   -8.8770 H       1  UNL1        0.1360
     18  C         18.9790  -22.0530   -6.9670 C.2     1  UNL1        0.0350
     19  C         19.2890  -21.3780   -5.7850 C.2     1  UNL1        0.0300
     20  C         18.4700  -21.5030   -4.6560 C.2     1  UNL1        0.0100
     21  C         17.3290  -22.3130   -4.6850 C.2     1  UNL1       -0.0440
     22  C         17.0100  -22.9770   -5.8760 C.2     1  UNL1        0.0180
     23  C         16.4510  -22.4180   -3.4680 C.3     1  UNL1        0.0400
     24  C         17.8310  -22.8520   -7.0060 C.2     1  UNL1        0.0450
     25  C         15.7860  -23.8200   -5.9640 C.2     1  UNL1        0.1600
     26  O         15.4900  -24.3730   -7.0210 O.2     1  UNL1       -0.2920
     27  C         14.8980  -23.9140   -4.7430 C.3     1  UNL1        0.0840
     28  C         15.6870  -23.7360   -3.4550 C.3     1  UNL1        0.0120
@<TRIPOS>BOND
     1     7     9    2
     2     7     6    1
     3     9    10    1
     4    14    12    2
     5     8     6    1
     6     6     5    2
     7    10    12    1
     8    10    11    2
     9    12    13    2
    10    12    15    1
    11     5    11    1
    12     5     1    1
    13    16    15    1
    14    15    17    1
    15     1     2    2
    16     1     3   am
    17     4     3    1
    18     3    18    1
    19    26    25    2
    20    24    18    2
    21    24    22    1
    22    18    19    1
    23    25    22    1
    24    25    27    1
    25    22    21    2
    26    19    20    2
    27    27    28    1
    28    21    20    1
    29    21    23    1
    30    23    28    1
