@<TRIPOS>MOLECULE
298_out_ligand_01.pdbqt
 34 37 0 0 0
SMALL
GASTEIGER

@<TRIPOS>ATOM
      1  C         18.2540  -23.3770   -9.0540 C.2     1  UNL1        0.0790
      2  C         19.1890  -24.2090   -8.4290 C.2     1  UNL1        0.0260
      3  C         20.5400  -24.0920   -8.7640 C.2     1  UNL1        0.0180
      4  C         20.9540  -23.1490   -9.7170 C.2     1  UNL1        0.0320
      5  C         20.0040  -22.3570  -10.3770 C.2     1  UNL1        0.0180
      6  C         18.6520  -22.4780  -10.0520 C.2     1  UNL1        0.0260
      7  C         22.4090  -23.0250   -9.9980 C.2     1  UNL1        0.2510
      8  O         23.2180  -23.6130   -9.2910 O.2     1  UNL1       -0.2680
      9  N         22.7570  -22.1850  -11.0300 N.am    1  UNL1       -0.3530
     10  H         22.0540  -21.6410  -11.5070 H       1  UNL1        0.1630
     11  C         24.1410  -21.8830  -11.3360 C.3     1  UNL1        0.1610
     12  C         24.5430  -22.3850  -12.7050 C.2     1  UNL1       -0.0380
     13  C         24.9630  -23.7090  -12.9070 C.2     1  UNL1        0.0120
     14  C         25.2870  -24.1690  -14.1880 C.2     1  UNL1        0.0400
     15  C         25.1770  -23.3160  -15.2810 C.2     1  UNL1        0.1020
     16  C         24.7200  -22.0060  -15.1000 C.2     1  UNL1        0.1020
     17  O         25.5170  -23.8300  -16.5050 O.2     1  UNL1       -0.3460
     18  C         24.4160  -21.5410  -13.8190 C.2     1  UNL1        0.0480
     19  O         24.5440  -21.1200  -16.1350 O.2     1  UNL1       -0.3460
     20  C         24.5210  -21.7940  -17.3970 C.3     1  UNL1        0.2020
     21  C         25.6660  -22.7950  -17.4880 C.3     1  UNL1        0.2020
     22  S         16.5340  -23.4820   -8.5990 S.O2    1  UNL1        0.2630
     23  O         15.7470  -23.3400   -9.8050 O.2     1  UNL1       -0.2000
     24  O         16.3790  -24.6340   -7.7340 O.2     1  UNL1       -0.2000
     25  N         16.3070  -22.1270   -7.6120 N.pl3   1  UNL1       -0.2800
     26  H         15.6680  -21.4510   -8.0240 H       1  UNL1        0.1790
     27  C         16.3180  -22.2820   -6.1940 C.2     1  UNL1        0.0490
     28  C         15.1470  -22.7040   -5.5600 C.2     1  UNL1        0.0310
     29  C         15.0940  -22.8030   -4.1750 C.2     1  UNL1        0.0030
     30  C         16.2170  -22.4880   -3.4160 C.2     1  UNL1        0.0070
     31  C         17.4090  -22.0720   -4.0300 C.2     1  UNL1       -0.0540
     32  C         18.5870  -21.7340   -3.1530 C.3     1  UNL1        0.0490
     33  C         17.4650  -21.9510   -5.4390 C.2     1  UNL1       -0.0290
     34  C         18.7480  -21.5350   -6.1130 C.3     1  UNL1        0.0510
@<TRIPOS>BOND
     1    21    20    1
     2    21    17    1
     3    20    19    1
     4    17    15    1
     5    19    16    1
     6    15    16    2
     7    15    14    1
     8    16    18    1
     9    14    13    2
    10    18    12    2
    11    13    12    1
    12    12    11    1
    13    10     9    1
    14    11     9    1
    15     9     7   am
    16     5     6    1
    17     5     4    2
    18     6     1    2
    19     7     4    1
    20     7     8    2
    21    23    22    2
    22     4     3    1
    23     1    22    1
    24     1     2    1
    25     3     2    2
    26    22    24    2
    27    22    25    1
    28    26    25    1
    29    25    27    1
    30    27    28    2
    31    27    33    1
    32    34    33    1
    33    28    29    1
    34    33    31    2
    35    29    30    2
    36    31    30    1
    37    31    32    1
