@<TRIPOS>MOLECULE
29902_out_ligand_01.pdbqt
 34 37 0 0 0
SMALL
GASTEIGER

@<TRIPOS>ATOM
      1  N         20.0900  -22.1240  -11.2530 N.am    1  UNL1       -0.3010
      2  C         21.3840  -22.1500  -10.7930 C.2     1  UNL1        0.2570
      3  O         21.7630  -22.1980   -9.6290 O.2     1  UNL1       -0.2670
      4  H         19.8970  -22.2150  -12.2400 H       1  UNL1        0.1710
      5  C         22.4230  -22.1530  -11.8630 C.2     1  UNL1        0.0320
      6  C         23.5940  -22.9080  -11.7600 C.2     1  UNL1        0.0170
      7  C         24.5350  -22.8830  -12.7950 C.2     1  UNL1        0.0110
      8  C         24.3320  -22.1140  -13.9600 C.2     1  UNL1       -0.0210
      9  C         23.1380  -21.3780  -14.0510 C.2     1  UNL1        0.0110
     10  C         22.1940  -21.4010  -13.0190 C.2     1  UNL1        0.0170
     11  C         25.3790  -22.1130  -15.0710 C.3     1  UNL1        0.1390
     12  C         26.8440  -22.2240  -14.6320 C.3     1  UNL1        0.0540
     13  N         25.2250  -20.9460  -15.9200 N.am    1  UNL1       -0.3210
     14  C         24.9670  -21.2710  -17.2270 C.2     1  UNL1        0.3240
     15  H         25.2170  -19.9860  -15.6010 H       1  UNL1        0.1650
     16  O         24.7540  -20.4710  -18.1200 O.2     1  UNL1       -0.2470
     17  N         24.9560  -22.6200  -17.3440 N.am    1  UNL1       -0.2770
     18  C         25.1200  -23.2140  -16.1280 C.2     1  UNL1        0.2580
     19  H         24.7440  -23.1090  -18.1960 H       1  UNL1        0.1730
     20  O         25.0770  -24.4200  -15.9360 O.2     1  UNL1       -0.2700
     21  C         18.9450  -22.0850  -10.5000 C.2     1  UNL1        0.1730
     22  S         17.4370  -21.5840  -11.1100 S.3     1  UNL1       -0.0610
     23  C         16.7300  -21.8730   -9.5760 C.2     1  UNL1        0.0850
     24  C         17.6920  -22.3380   -8.7020 C.2     1  UNL1        0.0770
     25  N         18.9600  -22.4660   -9.2440 N.2     1  UNL1       -0.2230
     26  C         17.4110  -22.6820   -7.3130 C.2     1  UNL1       -0.0000
     27  C         16.5490  -23.7410   -6.9720 C.2     1  UNL1       -0.0490
     28  C         16.3360  -24.0350   -5.6140 C.2     1  UNL1        0.0150
     29  C         15.8650  -24.5880   -8.0120 C.3     1  UNL1        0.0490
     30  C         16.9470  -23.2920   -4.5910 C.2     1  UNL1       -0.0560
     31  C         16.6720  -23.6490   -3.1560 C.3     1  UNL1        0.0490
     32  C         17.7960  -22.2250   -4.9320 C.2     1  UNL1       -0.0550
     33  C         18.0240  -21.9400   -6.2890 C.2     1  UNL1        0.0210
     34  C         18.4870  -21.4020   -3.8790 C.3     1  UNL1        0.0490
@<TRIPOS>BOND
     1    19    17    1
     2    16    14    2
     3    17    14   am
     4    17    18   am
     5    14    13   am
     6    18    20    2
     7    18    11    1
     8    13    15    1
     9    13    11    1
    10    11    12    1
    11    11     8    1
    12     9     8    2
    13     9    10    1
    14     8     7    1
    15    10     5    2
    16     7     6    2
    17     4     1    1
    18     5     6    1
    19     5     2    1
    20     1     2   am
    21     1    21    1
    22    22    21    1
    23    22    23    1
    24     2     3    2
    25    21    25    2
    26    23    24    2
    27    25    24    1
    28    24    26    1
    29    29    27    1
    30    26    27    2
    31    26    33    1
    32    27    28    1
    33    33    32    2
    34    28    30    2
    35    32    30    1
    36    32    34    1
    37    30    31    1
