@<TRIPOS>MOLECULE
29906_out_ligand_01.pdbqt
 32 36 0 0 0
SMALL
GASTEIGER

@<TRIPOS>ATOM
      1  S         22.3480  -21.7980  -10.8080 S.O2    1  UNL1        0.2430
      2  O         23.2900  -21.2540   -9.8550 O.2     1  UNL1       -0.2060
      3  O         21.0770  -21.1660  -11.0750 O.2     1  UNL1       -0.2060
      4  C         23.1810  -21.9960  -12.3440 C.2     1  UNL1        0.0930
      5  C         24.2550  -22.8710  -12.4840 C.2     1  UNL1        0.0470
      6  C         24.8700  -22.9550  -13.7330 C.ar    1  UNL1        0.0800
      7  C         25.9990  -23.8570  -13.9910 C.ar    1  UNL1        0.2630
      8  C         24.4040  -22.1660  -14.7760 C.ar    1  UNL1        0.1470
      9  N         26.5160  -23.8280  -15.2630 N.ar    1  UNL1       -0.2750
     10  O         26.4380  -24.5920  -13.1150 O.2     1  UNL1       -0.2670
     11  C         26.0590  -23.0600  -16.2950 C.ar    1  UNL1        0.3280
     12  H         27.2920  -24.4420  -15.4620 H       1  UNL1        0.1730
     13  O         26.5700  -23.1080  -17.4090 O.2     1  UNL1       -0.2470
     14  N         25.0070  -22.2440  -16.0210 N.ar    1  UNL1       -0.2920
     15  H         24.6450  -21.6560  -16.7580 H       1  UNL1        0.1720
     16  N         23.3700  -21.3070  -14.6500 N.2     1  UNL1       -0.2410
     17  C         22.7800  -21.2320  -13.4290 C.2     1  UNL1        0.1430
     18  N         22.1170  -23.4190  -10.3660 N.3     1  UNL1       -0.2100
     19  H         22.9990  -23.9200  -10.4990 H       1  UNL1        0.1400
     20  C         21.5180  -23.6360   -9.0380 C.3     1  UNL1        0.0800
     21  C         20.7490  -24.8760   -8.7140 C.3     1  UNL1        0.0320
     22  C         20.0130  -23.5620   -8.8590 C.3     1  UNL1        0.0400
     23  C         19.4440  -22.8440   -7.6460 C.2     1  UNL1       -0.0410
     24  C         20.2080  -21.8430   -7.0130 C.2     1  UNL1        0.0080
     25  C         19.7320  -21.1470   -5.9060 C.2     1  UNL1        0.0010
     26  C         18.4730  -21.4420   -5.3940 C.2     1  UNL1        0.0120
     27  C         17.6840  -22.4420   -5.9730 C.2     1  UNL1       -0.0250
     28  C         16.4190  -22.7380   -5.4360 C.2     1  UNL1        0.0120
     29  C         18.1640  -23.1610   -7.0990 C.2     1  UNL1       -0.0190
     30  C         15.6210  -23.7370   -5.9870 C.2     1  UNL1        0.0010
     31  C         16.0800  -24.4600   -7.0800 C.2     1  UNL1        0.0010
     32  C         17.3350  -24.1770   -7.6250 C.2     1  UNL1        0.0130
@<TRIPOS>BOND
     1    13    11    2
     2    15    14    1
     3    11    14   ar
     4    11     9   ar
     5    14     8   ar
     6    12     9    1
     7     9     7   ar
     8     8    16    2
     9     8     6   ar
    10    16    17    1
    11     7     6   ar
    12     7    10    2
    13     6     5    2
    14    17     4    2
    15     5     4    1
    16     4     1    1
    17     3     1    2
    18     1    18    1
    19     1     2    2
    20    19    18    1
    21    18    20    1
    22    20    22    1
    23    20    21    1
    24    22    21    1
    25    22    23    1
    26    23    29    2
    27    23    24    1
    28    32    29    1
    29    32    31    2
    30    29    27    1
    31    31    30    1
    32    24    25    2
    33    30    28    2
    34    27    28    1
    35    27    26    2
    36    25    26    1
