@<TRIPOS>MOLECULE
2992_out_ligand_01.pdbqt
 32 35 0 0 0
SMALL
GASTEIGER

@<TRIPOS>ATOM
      1  C         20.4290  -21.8520  -11.4620 C.2     1  UNL1        0.0350
      2  C         19.7310  -20.8530  -12.1430 C.2     1  UNL1        0.0290
      3  C         18.3780  -20.6220  -11.8740 C.2     1  UNL1        0.0030
      4  C         17.7100  -21.3870  -10.9220 C.2     1  UNL1        0.0090
      5  C         18.3900  -22.3940  -10.2260 C.2     1  UNL1       -0.0380
      6  C         19.7510  -22.6140  -10.4980 C.2     1  UNL1        0.0380
      7  C         17.6690  -23.2020   -9.1800 C.3     1  UNL1        0.1610
      8  N         17.7050  -22.5300   -7.9050 N.am    1  UNL1       -0.3530
      9  C         18.7600  -22.7180   -7.0390 C.2     1  UNL1        0.2550
     10  O         19.6620  -23.5070   -7.2910 O.2     1  UNL1       -0.2680
     11  H         17.0930  -21.7400   -7.7680 H       1  UNL1        0.1630
     12  C         18.7200  -21.9020   -5.8320 C.2     1  UNL1        0.0800
     13  C         19.5310  -20.8110   -5.5530 C.2     1  UNL1        0.1280
     14  N         19.1280  -20.3170   -4.3490 N.pl3   1  UNL1       -0.2880
     15  N         18.1160  -20.9980   -3.8070 N.2     1  UNL1       -0.1730
     16  H         19.4920  -19.5180   -3.8400 H       1  UNL1        0.1880
     17  C         17.8540  -21.9710   -4.6960 C.2     1  UNL1        0.1060
     18  C         16.7850  -22.9350   -4.4230 C.2     1  UNL1        0.0190
     19  C         15.5880  -23.0250   -5.1860 C.2     1  UNL1        0.0400
     20  C         14.8350  -24.0240   -4.6100 C.2     1  UNL1        0.1420
     21  O         15.4820  -24.5460   -3.5350 O.2     1  UNL1       -0.3340
     22  C         16.6630  -23.8750   -3.4240 C.2     1  UNL1        0.1550
     23  N         21.7970  -22.1380  -11.6740 N.am    1  UNL1       -0.3230
     24  C         22.8540  -21.7900  -10.8520 C.2     1  UNL1        0.2560
     25  O         22.8040  -21.1080   -9.8350 O.2     1  UNL1       -0.2670
     26  H         22.0230  -22.5710  -12.5600 H       1  UNL1        0.1690
     27  C         24.1870  -22.2750  -11.2990 C.2     1  UNL1        0.0350
     28  C         24.2330  -23.2720  -12.2720 C.2     1  UNL1        0.0360
     29  C         25.4740  -23.7080  -12.6940 C.2     1  UNL1        0.1170
     30  N         26.6420  -23.2160  -12.2210 N.2     1  UNL1       -0.2730
     31  C         26.5690  -22.2360  -11.2950 C.2     1  UNL1        0.1170
     32  C         25.3770  -21.7330  -10.8040 C.2     1  UNL1        0.0360
@<TRIPOS>BOND
     1    29    28    1
     2    29    30    2
     3    26    23    1
     4    28    27    2
     5    30    31    1
     6     2     3    1
     7     2     1    2
     8     3     4    2
     9    23     1    1
    10    23    24   am
    11     1     6    1
    12    27    24    1
    13    27    32    1
    14    31    32    2
    15     4     5    1
    16    24    25    2
    17     6     5    2
    18     5     7    1
    19     7     8    1
    20     8    11    1
    21     8     9   am
    22    10     9    2
    23     9    12    1
    24    12    13    2
    25    12    17    1
    26    13    14    1
    27    19    20    2
    28    19    18    1
    29    17    18    1
    30    17    15    2
    31    20    21    1
    32    18    22    2
    33    14    16    1
    34    14    15    1
    35    21    22    1
