@<TRIPOS>MOLECULE
29939_out_ligand_01.pdbqt
 37 40 0 0 0
SMALL
GASTEIGER

@<TRIPOS>ATOM
      1  C         19.5980  -20.2800  -11.7770 C.3     1  UNL1        0.0370
      2  C         19.9910  -21.6280  -11.1630 C.3     1  UNL1        0.1150
      3  N         19.3040  -21.8440   -9.9030 N.am    1  UNL1       -0.3350
      4  C         18.5200  -22.9410   -9.6900 C.2     1  UNL1        0.3170
      5  O         18.3120  -23.8120  -10.5210 O.2     1  UNL1       -0.2470
      6  N         17.9940  -22.9490   -8.4220 N.am    1  UNL1       -0.3380
      7  H         17.8420  -22.0280   -8.0290 H       1  UNL1        0.1640
      8  H         19.6060  -21.3160   -9.0940 H       1  UNL1        0.1650
      9  C         17.0210  -23.9760   -8.0430 C.3     1  UNL1        0.0940
     10  C         15.6170  -23.3660   -7.8270 C.3     1  UNL1        0.0640
     11  C         15.6410  -23.0790   -6.3550 C.2     1  UNL1       -0.0470
     12  C         14.7770  -22.2630   -5.6430 C.2     1  UNL1        0.0080
     13  C         16.6570  -23.8010   -5.7120 C.2     1  UNL1       -0.0170
     14  C         14.9450  -22.1660   -4.2590 C.2     1  UNL1        0.0030
     15  C         15.9590  -22.8890   -3.6110 C.2     1  UNL1        0.0370
     16  C         16.8120  -23.7130   -4.3390 C.2     1  UNL1        0.0720
     17  C         17.4110  -24.6360   -6.7030 C.3     1  UNL1        0.0670
     18  O         17.7650  -24.4010   -3.6510 O.2     1  UNL1       -0.3600
     19  H         17.5680  -24.3430   -2.7010 H       1  UNL1        0.2170
     20  C         21.4890  -21.7730  -10.9640 C.2     1  UNL1       -0.0340
     21  C         22.0170  -21.7770   -9.6660 C.2     1  UNL1        0.0090
     22  C         23.3910  -21.8710   -9.4610 C.2     1  UNL1        0.0030
     23  C         24.2540  -21.9750  -10.5500 C.2     1  UNL1        0.0290
     24  C         23.7550  -21.9740  -11.8570 C.2     1  UNL1        0.0350
     25  C         22.3750  -21.8630  -12.0540 C.2     1  UNL1        0.0380
     26  N         24.6950  -22.0930  -12.8970 N.am    1  UNL1       -0.3270
     27  C         25.3470  -23.2370  -13.3260 C.2     1  UNL1        0.2260
     28  O         25.1590  -24.3790  -12.9200 O.2     1  UNL1       -0.2730
     29  H         24.9520  -21.2320  -13.3640 H       1  UNL1        0.1690
     30  C         26.3670  -22.9600  -14.4180 C.3     1  UNL1        0.1440
     31  C         25.7240  -22.6030  -15.7350 C.2     1  UNL1       -0.0110
     32  C         25.8000  -21.3000  -16.2460 C.2     1  UNL1        0.0110
     33  C         25.1690  -20.9800  -17.4510 C.2     1  UNL1        0.0010
     34  C         24.4550  -21.9520  -18.1530 C.2     1  UNL1        0.0030
     35  C         24.3680  -23.2480  -17.6480 C.2     1  UNL1        0.0430
     36  C         24.9950  -23.5580  -16.4470 C.2     1  UNL1        0.1230
     37  F         24.8690  -24.7980  -15.9470 F       1  UNL1       -0.2060
@<TRIPOS>BOND
     1    34    35    2
     2    34    33    1
     3    35    36    1
     4    33    32    2
     5    36    37    1
     6    36    31    2
     7    32    31    1
     8    31    30    1
     9    30    27    1
    10    29    26    1
    11    27    28    2
    12    27    26   am
    13    26    24    1
    14    25    24    1
    15    25    20    2
    16    24    23    2
    17     1     2    1
    18     2    20    1
    19     2     3    1
    20    20    21    1
    21    23    22    1
    22     5     4    2
    23     3     4   am
    24     3     8    1
    25     4     6   am
    26    21    22    2
    27     6     9    1
    28     6     7    1
    29     9    10    1
    30     9    17    1
    31    10    11    1
    32    17    13    1
    33    11    13    2
    34    11    12    1
    35    13    16    1
    36    12    14    2
    37    16    18    1
    38    16    15    2
    39    14    15    1
    40    18    19    1
