@<TRIPOS>MOLECULE
29944_out_ligand_01.pdbqt
 31 34 0 0 0
SMALL
GASTEIGER

@<TRIPOS>ATOM
      1  S         21.7170  -23.2960   -8.9060 S.O2    1  UNL1        0.2450
      2  O         23.0020  -23.1210   -8.2650 O.2     1  UNL1       -0.2060
      3  O         21.3410  -24.5580   -9.5000 O.2     1  UNL1       -0.2060
      4  C         20.4630  -22.9060   -7.7310 C.2     1  UNL1        0.0930
      5  C         19.3840  -23.7540   -7.4980 C.2     1  UNL1        0.0470
      6  C         18.4300  -23.3510   -6.5640 C.ar    1  UNL1        0.0800
      7  C         17.2640  -24.1780   -6.2280 C.ar    1  UNL1        0.2630
      8  C         18.5820  -22.1320   -5.9180 C.ar    1  UNL1        0.1470
      9  N         16.3950  -23.6500   -5.3070 N.ar    1  UNL1       -0.2750
     10  O         17.0990  -25.2780   -6.7400 O.2     1  UNL1       -0.2670
     11  C         16.5410  -22.4550   -4.6610 C.ar    1  UNL1        0.3280
     12  H         15.5880  -24.2030   -5.0600 H       1  UNL1        0.1730
     13  O         15.7270  -22.0700   -3.8280 O.2     1  UNL1       -0.2470
     14  N         17.6380  -21.7240   -4.9880 N.ar    1  UNL1       -0.2920
     15  H         17.7760  -20.8310   -4.5360 H       1  UNL1        0.1720
     16  N         19.6180  -21.2960   -6.1430 N.2     1  UNL1       -0.2410
     17  C         20.5370  -21.6960   -7.0590 C.2     1  UNL1        0.1430
     18  N         21.5300  -22.0440  -10.0580 N.3     1  UNL1       -0.1970
     19  C         22.7680  -21.2880  -10.4040 C.3     1  UNL1        0.1080
     20  C         23.4070  -21.8220  -11.6780 C.3     1  UNL1        0.0160
     21  C         22.4740  -21.6960  -12.8780 C.3     1  UNL1        0.0030
     22  C         21.0110  -21.5630  -12.4660 C.3     1  UNL1        0.0260
     23  C         20.6780  -22.4300  -11.2390 C.3     1  UNL1        0.1100
     24  C         19.1970  -22.2820  -10.9390 C.2     1  UNL1       -0.0010
     25  C         18.4100  -23.3720  -10.5270 C.2     1  UNL1        0.0150
     26  C         17.0520  -23.1970  -10.2560 C.2     1  UNL1        0.0430
     27  C         16.4790  -21.9350  -10.3870 C.2     1  UNL1        0.1190
     28  F         15.1770  -21.7730  -10.1210 F       1  UNL1       -0.2060
     29  C         17.2380  -20.8420  -10.7770 C.2     1  UNL1        0.0850
     30  C         18.5900  -21.0240  -11.0460 C.2     1  UNL1        0.1270
     31  F         19.3240  -19.9590  -11.3990 F       1  UNL1       -0.2050
@<TRIPOS>BOND
     1    21    22    1
     2    21    20    1
     3    22    23    1
     4    20    19    1
     5    31    30    1
     6    23    24    1
     7    23    18    1
     8    30    24    2
     9    30    29    1
    10    24    25    1
    11    29    27    2
    12    25    26    2
    13    19    18    1
    14    27    26    1
    15    27    28    1
    16    18     1    1
    17     3     1    2
    18     1     2    2
    19     1     4    1
    20     4     5    2
    21     4    17    1
    22     5     6    1
    23    17    16    2
    24    10     7    2
    25     6     7   ar
    26     6     8   ar
    27     7     9   ar
    28    16     8    1
    29     8    14   ar
    30     9    12    1
    31     9    11   ar
    32    14    11   ar
    33    14    15    1
    34    11    13    2
