@<TRIPOS>MOLECULE
29955_out_ligand_01.pdbqt
 35 39 0 0 0
SMALL
GASTEIGER

@<TRIPOS>ATOM
      1  N         21.7960  -22.5110  -10.9720 N.am    1  UNL1       -0.3230
      2  C         20.9670  -21.6830  -11.7070 C.2     1  UNL1        0.2570
      3  O         21.2730  -21.0170  -12.6900 O.2     1  UNL1       -0.2670
      4  H         21.3650  -23.1110  -10.2800 H       1  UNL1        0.1690
      5  C         23.1880  -22.6860  -11.1360 C.2     1  UNL1        0.0350
      6  C         24.0500  -23.0760  -10.1150 C.2     1  UNL1        0.0290
      7  C         25.4120  -23.2410  -10.3700 C.2     1  UNL1        0.0030
      8  C         25.9260  -23.0220  -11.6490 C.2     1  UNL1        0.0100
      9  C         25.0870  -22.6330  -12.7030 C.2     1  UNL1       -0.0190
     10  C         23.7140  -22.4670  -12.4190 C.2     1  UNL1        0.0390
     11  C         25.6120  -22.3670  -14.1100 C.3     1  UNL1        0.1390
     12  C         27.1200  -22.1100  -14.1250 C.3     1  UNL1        0.0540
     13  N         25.2820  -23.4190  -15.0540 N.am    1  UNL1       -0.3210
     14  C         24.5030  -22.9800  -16.0930 C.2     1  UNL1        0.3240
     15  H         25.6330  -24.3660  -15.0300 H       1  UNL1        0.1650
     16  O         24.1420  -23.6670  -17.0310 O.2     1  UNL1       -0.2470
     17  N         24.2330  -21.6700  -15.9110 N.am    1  UNL1       -0.2770
     18  C         24.8730  -21.1960  -14.8080 C.2     1  UNL1        0.2580
     19  H         23.7070  -21.1090  -16.5580 H       1  UNL1        0.1730
     20  O         24.8670  -20.0230  -14.4590 O.2     1  UNL1       -0.2700
     21  C         19.5540  -21.6510  -11.2660 C.2     1  UNL1        0.0500
     22  C         18.5540  -21.0840  -12.0410 C.2     1  UNL1        0.1330
     23  N         17.2550  -21.0310  -11.6670 N.2     1  UNL1       -0.2710
     24  C         16.9440  -21.6000  -10.4750 C.2     1  UNL1        0.1280
     25  C         17.8590  -22.2200   -9.6200 C.2     1  UNL1       -0.0070
     26  C         19.1930  -22.2380  -10.0490 C.2     1  UNL1        0.0320
     27  C         17.4450  -22.8210   -8.3420 C.2     1  UNL1       -0.0240
     28  C         18.2140  -23.8510   -7.7470 C.2     1  UNL1        0.0150
     29  C         17.8430  -24.4340   -6.5300 C.2     1  UNL1        0.0380
     30  C         16.6920  -23.9820   -5.9250 C.2     1  UNL1        0.0750
     31  C         15.9220  -22.9750   -6.4810 C.2     1  UNL1       -0.0220
     32  O         16.2090  -24.4490   -4.7310 O.2     1  UNL1       -0.3500
     33  C         16.2830  -22.3810   -7.6800 C.2     1  UNL1        0.0220
     34  C         14.8030  -22.6570   -5.5670 C.3     1  UNL1        0.0680
     35  C         14.8790  -23.8850   -4.6570 C.3     1  UNL1        0.1800
@<TRIPOS>BOND
     1    16    14    2
     2    19    17    1
     3    14    17   am
     4    14    13   am
     5    17    18   am
     6    13    15    1
     7    13    11    1
     8    18    20    2
     9    18    11    1
    10    12    11    1
    11    11     9    1
    12     9    10    1
    13     9     8    2
    14     3     2    2
    15    10     5    2
    16    22    23    1
    17    22    21    2
    18     2    21    1
    19     2     1   am
    20    23    24    2
    21     8     7    1
    22    21    26    1
    23     5     1    1
    24     5     6    1
    25     1     4    1
    26    24    25    1
    27     7     6    2
    28    26    25    2
    29    25    27    1
    30    27    28    2
    31    27    33    1
    32    28    29    1
    33    33    31    2
    34    29    30    2
    35    31    30    1
    36    31    34    1
    37    30    32    1
    38    34    35    1
    39    32    35    1
