@<TRIPOS>MOLECULE
29965_out_ligand_01.pdbqt
 30 34 0 0 0
SMALL
GASTEIGER

@<TRIPOS>ATOM
      1  C         22.0350  -22.0230   -9.8800 C.2     1  UNL1        0.0320
      2  C         20.7960  -22.1200  -10.5180 C.2     1  UNL1        0.0190
      3  C         19.6370  -22.3970   -9.7800 C.2     1  UNL1        0.0240
      4  C         19.6850  -22.5850   -8.3920 C.2     1  UNL1        0.0110
      5  C         20.9380  -22.4650   -7.7680 C.2     1  UNL1        0.0240
      6  C         22.1020  -22.1850   -8.4950 C.2     1  UNL1        0.0190
      7  C         23.2370  -21.7240  -10.7080 C.2     1  UNL1        0.2520
      8  O         24.2140  -21.1770  -10.2080 O.2     1  UNL1       -0.2680
      9  N         23.1650  -22.0640  -12.0430 N.am    1  UNL1       -0.3470
     10  H         22.2530  -22.2360  -12.4420 H       1  UNL1        0.1630
     11  C         24.2040  -21.6520  -12.9620 C.3     1  UNL1        0.1370
     12  C         23.6100  -20.8400  -14.1430 C.3     1  UNL1        0.0320
     13  C         24.5270  -20.8280  -15.3850 C.3     1  UNL1        0.0070
     14  C         24.8020  -22.2490  -15.9210 C.3     1  UNL1        0.0420
     15  C         25.1480  -23.1600  -14.8020 C.2     1  UNL1       -0.0130
     16  C         25.7900  -24.4090  -14.7580 C.2     1  UNL1        0.1480
     17  C         24.8590  -22.8750  -13.4870 C.2     1  UNL1        0.0580
     18  N         25.9130  -24.8690  -13.5070 N.2     1  UNL1       -0.1860
     19  N         25.3700  -23.8980  -12.7480 N.pl3   1  UNL1       -0.2800
     20  H         25.3750  -24.0050  -11.7390 H       1  UNL1        0.1890
     21  N         18.5530  -22.8620   -7.6060 N.pl3   1  UNL1       -0.2790
     22  C         17.9630  -24.2040   -7.7050 C.3     1  UNL1        0.1000
     23  C         16.5330  -24.1700   -7.1630 C.3     1  UNL1        0.0540
     24  C         16.4760  -23.5750   -5.7790 C.2     1  UNL1       -0.0500
     25  C         15.3880  -23.8500   -4.9400 C.2     1  UNL1        0.0070
     26  C         17.4890  -22.6980   -5.3500 C.2     1  UNL1       -0.0380
     27  C         15.3150  -23.2810   -3.6700 C.2     1  UNL1        0.0010
     28  C         16.3240  -22.4280   -3.2310 C.2     1  UNL1        0.0010
     29  C         17.4040  -22.1380   -4.0640 C.2     1  UNL1        0.0090
     30  C         18.6890  -22.3690   -6.2190 C.3     1  UNL1        0.1340
@<TRIPOS>BOND
     1    14    13    1
     2    14    15    1
     3    13    12    1
     4    15    16    1
     5    15    17    2
     6    16    18    2
     7    12    11    1
     8    18    19    1
     9    17    11    1
    10    17    19    1
    11    11     9    1
    12    19    20    1
    13    10     9    1
    14     9     7   am
    15     7     8    2
    16     7     1    1
    17     2     1    2
    18     2     3    1
    19     1     6    1
    20     3     4    2
    21     6     5    2
    22     4     5    1
    23     4    21    1
    24    22    21    1
    25    22    23    1
    26    21    30    1
    27    23    24    1
    28    30    26    1
    29    24    26    2
    30    24    25    1
    31    26    29    1
    32    25    27    2
    33    29    28    2
    34    27    28    1
