@<TRIPOS>MOLECULE
29986_out_ligand_01.pdbqt
 36 40 0 0 0
SMALL
GASTEIGER

@<TRIPOS>ATOM
      1  S         16.1410  -23.3480   -9.5560 S.3     1  UNL1       -0.0870
      2  C         16.1060  -23.2330   -7.8290 C.ar    1  UNL1        0.1710
      3  N         17.0640  -23.7830   -7.0130 N.ar    1  UNL1       -0.3040
      4  C         16.7010  -23.4890   -5.7220 C.ar    1  UNL1        0.1610
      5  N         17.3520  -23.8250   -4.5890 N.2     1  UNL1       -0.2410
      6  C         15.5200  -22.7670   -5.8380 C.ar    1  UNL1        0.1050
      7  C         16.7160  -23.3770   -3.4790 C.2     1  UNL1        0.1190
      8  C         15.5290  -22.6490   -3.4550 C.2     1  UNL1        0.0220
      9  C         14.9040  -22.3270   -4.6620 C.2     1  UNL1        0.0370
     10  N         15.1640  -22.6160   -7.1510 N.ar    1  UNL1       -0.2210
     11  C         18.2260  -24.5710   -7.3820 C.3     1  UNL1        0.1710
     12  C         19.4520  -23.7140   -7.5990 C.2     1  UNL1       -0.0390
     13  C         19.5110  -22.4150   -7.0750 C.2     1  UNL1        0.0090
     14  C         20.6460  -21.6270   -7.2650 C.2     1  UNL1        0.0010
     15  C         21.7280  -22.1210   -7.9910 C.2     1  UNL1        0.0070
     16  C         21.6800  -23.4040   -8.5450 C.2     1  UNL1       -0.0610
     17  C         22.8550  -23.9430   -9.3080 C.3     1  UNL1        0.0480
     18  C         20.5440  -24.1970   -8.3380 C.2     1  UNL1        0.0150
     19  C         16.6490  -21.6560   -9.9790 C.3     1  UNL1        0.1210
     20  C         17.9840  -21.5900  -10.6760 C.2     1  UNL1       -0.0480
     21  C         18.7720  -22.7430  -10.8120 C.2     1  UNL1        0.0090
     22  C         20.0110  -22.6860  -11.4540 C.2     1  UNL1        0.0170
     23  C         20.4860  -21.4710  -11.9580 C.2     1  UNL1        0.0320
     24  C         19.7040  -20.3170  -11.8370 C.2     1  UNL1        0.0170
     25  C         18.4630  -20.3770  -11.1950 C.2     1  UNL1        0.0090
     26  C         21.8130  -21.4550  -12.6310 C.2     1  UNL1        0.2520
     27  O         21.9010  -21.1580  -13.8160 O.2     1  UNL1       -0.2680
     28  N         22.8930  -21.8210  -11.8490 N.am    1  UNL1       -0.3520
     29  H         22.7010  -22.2980  -10.9770 H       1  UNL1        0.1630
     30  C         24.2310  -21.9850  -12.4200 C.3     1  UNL1        0.0840
     31  C         25.2590  -21.3190  -11.4900 C.3     1  UNL1        0.0250
     32  C         25.8810  -22.2510  -10.4500 C.2     1  UNL1        0.0020
     33  C         26.8840  -23.2830  -10.9910 C.2     1  UNL1        0.0000
     34  C         27.0590  -23.3360  -12.5070 C.3     1  UNL1        0.0000
     35  C         25.8390  -23.8200  -13.2890 C.3     1  UNL1        0.0020
     36  C         24.4720  -23.4740  -12.7100 C.3     1  UNL1        0.0250
@<TRIPOS>BOND
     1    27    26    2
     2    35    36    1
     3    35    34    1
     4    36    30    1
     5    26    23    1
     6    26    28   am
     7    34    33    1
     8    30    28    1
     9    30    31    1
    10    23    24    2
    11    23    22    1
    12    28    29    1
    13    24    25    1
    14    31    32    1
    15    22    21    2
    16    25    20    2
    17    33    32    2
    18    21    20    1
    19    20    19    1
    20    19     1    1
    21     1     2    1
    22    17    16    1
    23    16    18    1
    24    16    15    2
    25    18    12    2
    26    15    14    1
    27     2    10   ar
    28     2     3   ar
    29    12    11    1
    30    12    13    1
    31    11     3    1
    32    14    13    2
    33    10     6   ar
    34     3     4   ar
    35     6     4   ar
    36     6     9    1
    37     4     5    1
    38     9     8    2
    39     5     7    2
    40     7     8    1
