@<TRIPOS>MOLECULE
29999_out_ligand_01.pdbqt
 37 41 0 0 0
SMALL
GASTEIGER

@<TRIPOS>ATOM
      1  C         23.6430  -21.7430  -10.0220 C.ar    1  UNL1        0.1920
      2  N         24.8570  -21.2450   -9.9900 N.ar    1  UNL1       -0.1220
      3  N         25.3000  -21.1480  -11.2830 N.ar    1  UNL1       -0.1280
      4  C         24.3670  -21.6430  -12.0800 C.ar    1  UNL1        0.1730
      5  N         23.2700  -21.9840  -11.3220 N.ar    1  UNL1       -0.3040
      6  S         22.6570  -22.0560   -8.6340 S.3     1  UNL1       -0.0810
      7  C         22.3590  -23.8450   -8.8000 C.3     1  UNL1        0.1850
      8  C         20.9070  -24.1930   -8.4870 C.2     1  UNL1        0.2310
      9  N         20.2100  -23.1460   -7.8990 N.am    1  UNL1       -0.3270
     10  H         20.6890  -22.2470   -7.8730 H       1  UNL1        0.1690
     11  O         20.4630  -25.3110   -8.7490 O.2     1  UNL1       -0.2720
     12  C         18.8920  -23.1520   -7.4060 C.2     1  UNL1        0.0350
     13  C         18.6310  -22.3810   -6.2660 C.2     1  UNL1        0.0300
     14  C         17.3540  -22.3630   -5.7020 C.2     1  UNL1        0.0090
     15  C         16.3120  -23.1180   -6.2590 C.2     1  UNL1       -0.0560
     16  C         14.9550  -23.1100   -5.6110 C.3     1  UNL1        0.0490
     17  C         16.5660  -23.8880   -7.4110 C.2     1  UNL1       -0.0540
     18  C         17.8560  -23.9000   -7.9670 C.2     1  UNL1        0.0370
     19  C         15.4870  -24.7290   -8.0420 C.3     1  UNL1        0.0490
     20  C         21.9840  -22.4600  -11.7930 C.3     1  UNL1        0.1650
     21  C         20.7680  -21.7020  -11.2660 C.3     1  UNL1        0.1400
     22  C         20.0950  -20.6990  -12.1820 C.3     1  UNL1        0.0350
     23  C         18.7500  -20.5510  -11.4980 C.3     1  UNL1        0.0290
     24  C         18.4560  -21.9730  -11.0520 C.3     1  UNL1        0.1680
     25  O         19.7310  -22.6160  -10.8640 O.3     1  UNL1       -0.3840
     26  C         24.5170  -21.7700  -13.4970 C.ar    1  UNL1        0.0820
     27  S         24.3390  -20.3860  -14.4940 S.2     1  UNL1       -0.0630
     28  C         24.5910  -21.2880  -15.9090 C.ar    1  UNL1        0.1100
     29  N         24.5390  -20.6900  -17.1210 N.2     1  UNL1       -0.2530
     30  C         24.8600  -22.6290  -15.6500 C.ar    1  UNL1        0.0270
     31  C         24.7840  -21.5120  -18.1530 C.2     1  UNL1        0.1180
     32  C         25.0690  -22.8630  -18.0450 C.2     1  UNL1        0.0200
     33  C         25.1110  -23.4410  -16.7770 C.2     1  UNL1        0.0180
     34  C         24.8370  -22.8910  -14.2360 C.ar    1  UNL1        0.0600
     35  N         25.1030  -24.1180  -13.7020 N.pl3   1  UNL1       -0.3970
     36  H         25.4010  -24.1850  -12.7220 H       1  UNL1        0.1560
     37  H         25.5930  -24.8050  -14.2680 H       1  UNL1        0.1560
@<TRIPOS>BOND
     1    31    32    2
     2    31    29    1
     3    32    33    1
     4    29    28    2
     5    33    30    2
     6    28    30   ar
     7    28    27   ar
     8    30    34   ar
     9    27    26   ar
    10    37    35    1
    11    34    35    1
    12    34    26   ar
    13    35    36    1
    14    26     4    1
    15    22    23    1
    16    22    21    1
    17     4     5   ar
    18     4     3   ar
    19    20     5    1
    20    20    21    1
    21    23    24    1
    22     5     1   ar
    23     3     2   ar
    24    21    25    1
    25    24    25    1
    26     1     2   ar
    27     1     6    1
    28     7     6    1
    29     7     8    1
    30    11     8    2
    31     8     9   am
    32    19    17    1
    33    18    17    1
    34    18    12    2
    35     9    10    1
    36     9    12    1
    37    17    15    2
    38    12    13    1
    39    13    14    2
    40    15    14    1
    41    15    16    1
