@<TRIPOS>MOLECULE
29994_out_ligand_01.pdbqt
 31 34 0 0 0
SMALL
GASTEIGER

@<TRIPOS>ATOM
      1  C         20.6210  -22.4770   -7.6860 C.2     1  UNL1        0.0320
      2  C         21.6790  -21.5610   -7.6550 C.2     1  UNL1        0.0170
      3  C         22.8410  -21.8110   -8.3900 C.2     1  UNL1        0.0100
      4  C         22.9590  -22.9760   -9.1610 C.2     1  UNL1       -0.0300
      5  C         21.9030  -23.9010   -9.1640 C.2     1  UNL1        0.0100
      6  C         20.7420  -23.6550   -8.4300 C.2     1  UNL1        0.0170
      7  C         19.3610  -22.2360   -6.9320 C.2     1  UNL1        0.2510
      8  N         18.2580  -22.9420   -7.3720 N.am    1  UNL1       -0.3530
      9  H         18.4260  -23.7270   -7.9910 H       1  UNL1        0.1630
     10  O         19.3540  -21.4840   -5.9660 O.2     1  UNL1       -0.2680
     11  C         17.0030  -22.9360   -6.6300 C.3     1  UNL1        0.0810
     12  C         16.8690  -24.2380   -5.8330 C.3     1  UNL1        0.0320
     13  C         15.8130  -22.7720   -7.5870 C.3     1  UNL1        0.0290
     14  C         16.0100  -23.4520   -8.9490 C.3     1  UNL1        0.0400
     15  C         16.8490  -22.6440   -9.9080 C.2     1  UNL1       -0.0580
     16  C         18.0450  -23.1590  -10.4260 C.2     1  UNL1        0.0070
     17  C         18.8180  -22.4040  -11.3100 C.2     1  UNL1        0.0010
     18  C         18.4040  -21.1260  -11.6820 C.2     1  UNL1        0.0000
     19  C         17.2190  -20.6020  -11.1710 C.2     1  UNL1        0.0010
     20  C         16.4460  -21.3570  -10.2880 C.2     1  UNL1        0.0070
     21  C         24.2220  -23.2480   -9.9560 C.3     1  UNL1        0.3110
     22  N         24.4030  -22.3450  -11.1040 N.3     1  UNL1        0.0970
     23  C         24.5820  -23.1250  -12.3390 C.3     1  UNL1        0.2770
     24  C         24.5830  -22.2130  -13.5710 C.3     1  UNL1        0.0690
     25  C         25.5020  -21.0290  -13.4140 C.2     1  UNL1       -0.0490
     26  C         25.8770  -20.2730  -14.5330 C.2     1  UNL1        0.0070
     27  C         25.9260  -20.6380  -12.1320 C.2     1  UNL1       -0.0240
     28  C         26.6870  -19.1470  -14.3840 C.2     1  UNL1        0.0010
     29  C         27.1210  -18.7650  -13.1180 C.2     1  UNL1        0.0010
     30  C         26.7460  -19.5070  -11.9980 C.2     1  UNL1        0.0090
     31  C         25.5640  -21.4550  -10.9070 C.3     1  UNL1        0.3110
@<TRIPOS>BOND
     1    26    28    1
     2    26    25    2
     3    28    29    2
     4    24    25    1
     5    24    23    1
     6    25    27    1
     7    29    30    1
     8    23    22    1
     9    27    30    2
    10    27    31    1
    11    18    17    2
    12    18    19    1
    13    17    16    1
    14    19    20    2
    15    22    31    1
    16    22    21    1
    17    16    15    2
    18    20    15    1
    19    21     4    1
    20    15    14    1
    21     5     4    2
    22     5     6    1
    23     4     3    1
    24    14    13    1
    25     6     1    2
    26     3     2    2
    27     9     8    1
    28     1     2    1
    29     1     7    1
    30    13    11    1
    31     8     7   am
    32     8    11    1
    33     7    10    2
    34    11    12    1
