@<TRIPOS>MOLECULE
2999_out_ligand_01.pdbqt
 37 41 0 0 0
SMALL
GASTEIGER

@<TRIPOS>ATOM
      1  N         24.3260  -23.3110   -9.8490 N.am    1  UNL1       -0.3530
      2  C         23.4040  -22.3570   -9.4740 C.2     1  UNL1        0.2510
      3  O         23.5930  -21.1490   -9.5240 O.2     1  UNL1       -0.2680
      4  H         24.1750  -24.2680   -9.5650 H       1  UNL1        0.1630
      5  C         25.6550  -22.9410  -10.2820 C.3     1  UNL1        0.1610
      6  C         25.8250  -23.0670  -11.7760 C.2     1  UNL1       -0.0400
      7  C         26.6430  -24.0590  -12.3310 C.2     1  UNL1        0.0090
      8  C         26.7650  -24.1720  -13.7150 C.2     1  UNL1        0.0010
      9  C         26.0660  -23.3050  -14.5590 C.2     1  UNL1        0.0100
     10  C         25.2310  -22.3010  -14.0370 C.2     1  UNL1       -0.0210
     11  C         25.1280  -22.2020  -12.6360 C.2     1  UNL1        0.0190
     12  C         24.4270  -21.3550  -14.9250 C.3     1  UNL1        0.1390
     13  C         23.0820  -20.9520  -14.3210 C.3     1  UNL1        0.0540
     14  N         25.1640  -20.1620  -15.3040 N.am    1  UNL1       -0.3210
     15  C         25.4230  -20.1010  -16.6500 C.2     1  UNL1        0.3240
     16  H         25.5100  -19.4600  -14.6570 H       1  UNL1        0.1650
     17  O         26.0600  -19.2200  -17.1930 O.2     1  UNL1       -0.2470
     18  N         24.8580  -21.1690  -17.2560 N.am    1  UNL1       -0.2770
     19  C         24.2190  -21.9560  -16.3390 C.2     1  UNL1        0.2580
     20  H         24.8910  -21.3470  -18.2410 H       1  UNL1        0.1730
     21  O         23.5910  -22.9660  -16.6200 O.2     1  UNL1       -0.2700
     22  C         22.1150  -22.8910   -8.9680 C.2     1  UNL1        0.0330
     23  C         21.5870  -24.0850   -9.4760 C.2     1  UNL1        0.0190
     24  C         20.3660  -24.5710   -9.0010 C.2     1  UNL1        0.0310
     25  C         19.6560  -23.8640   -8.0280 C.ar    1  UNL1        0.0470
     26  N         18.4580  -24.3760   -7.5060 N.ar    1  UNL1       -0.3550
     27  C         20.2060  -22.6780   -7.5110 C.ar    1  UNL1        0.0430
     28  C         17.6820  -23.6820   -6.5660 C.ar    1  UNL1        0.0460
     29  H         17.9750  -25.0680   -8.0650 H       1  UNL1        0.1660
     30  C         16.4660  -24.2060   -6.1180 C.2     1  UNL1        0.0300
     31  C         18.1610  -22.4960   -5.9900 C.ar    1  UNL1        0.0420
     32  C         15.7250  -23.5390   -5.1390 C.2     1  UNL1        0.0020
     33  C         16.2010  -22.3500   -4.5870 C.2     1  UNL1        0.0010
     34  C         17.4210  -21.8260   -5.0100 C.2     1  UNL1        0.0180
     35  C         19.4650  -21.9560   -6.4450 C.ar    1  UNL1        0.1960
     36  O         19.9240  -20.9340   -5.9510 O.2     1  UNL1       -0.2860
     37  C         21.4220  -22.1780   -7.9900 C.2     1  UNL1        0.0340
@<TRIPOS>BOND
     1    20    18    1
     2    18    15   am
     3    18    19   am
     4    17    15    2
     5    15    14   am
     6    21    19    2
     7    19    12    1
     8    14    12    1
     9    14    16    1
    10    12    13    1
    11    12    10    1
    12     9    10    2
    13     9     8    1
    14    10    11    1
    15     8     7    2
    16    11     6    2
    17     7     6    1
    18     6     5    1
    19     5     1    1
    20     1     4    1
    21     1     2   am
    22     3     2    2
    23    23    24    1
    24    23    22    2
    25     2    22    1
    26    24    25    2
    27    22    37    1
    28    29    26    1
    29    25    27   ar
    30    25    26   ar
    31    37    27    2
    32    27    35   ar
    33    26    28   ar
    34    28    30    2
    35    28    31   ar
    36    35    31   ar
    37    35    36    2
    38    30    32    1
    39    31    34    2
    40    32    33    2
    41    34    33    1
