@<TRIPOS>MOLECULE
299_out_ligand_01.pdbqt
 37 39 0 0 0
SMALL
GASTEIGER

@<TRIPOS>ATOM
      1  C         17.6540  -23.5640   -8.5740 C.2     1  UNL1        0.0810
      2  C         19.0390  -23.7830   -8.5100 C.2     1  UNL1        0.0420
      3  C         19.8790  -23.2810   -9.5070 C.2     1  UNL1        0.0330
      4  C         19.3430  -22.5170  -10.5450 C.2     1  UNL1        0.0170
      5  C         17.9670  -22.2800  -10.5980 C.2     1  UNL1        0.0090
      6  C         17.0980  -22.8080   -9.6260 C.2     1  UNL1       -0.0390
      7  C         15.6310  -22.4990   -9.7470 C.3     1  UNL1        0.0500
      8  C         21.3310  -23.5860   -9.4230 C.2     1  UNL1        0.2510
      9  O         21.7070  -24.6900   -9.0470 O.2     1  UNL1       -0.2680
     10  N         22.1820  -22.5900   -9.8570 N.am    1  UNL1       -0.3530
     11  H         21.7850  -21.8130  -10.3650 H       1  UNL1        0.1630
     12  C         23.5790  -22.8720  -10.1090 C.3     1  UNL1        0.1610
     13  C         23.9030  -22.6240  -11.5630 C.2     1  UNL1       -0.0400
     14  C         23.1180  -21.7530  -12.3340 C.2     1  UNL1        0.0100
     15  C         23.3890  -21.5710  -13.6920 C.2     1  UNL1        0.0250
     16  C         24.4460  -22.2680  -14.2820 C.2     1  UNL1        0.0740
     17  C         25.2350  -23.1410  -13.5300 C.2     1  UNL1        0.0250
     18  C         24.9640  -23.3130  -12.1730 C.2     1  UNL1        0.0100
     19  S         24.7620  -22.0990  -16.0120 S.O2    1  UNL1        0.2390
     20  O         23.8970  -22.9910  -16.7480 O.2     1  UNL1       -0.2060
     21  O         26.1920  -22.0650  -16.2160 O.2     1  UNL1       -0.2060
     22  N         24.2000  -20.5520  -16.3350 N.3     1  UNL1       -0.2250
     23  H         24.4050  -19.9360  -15.5470 H       1  UNL1        0.1360
     24  H         23.2110  -20.5860  -16.5840 H       1  UNL1        0.1360
     25  S         16.6580  -24.2700   -7.2620 S.O2    1  UNL1        0.2460
     26  O         17.5370  -24.9900   -6.3630 O.2     1  UNL1       -0.2060
     27  O         15.5270  -24.9420   -7.8680 O.2     1  UNL1       -0.2060
     28  N         16.1010  -22.9140   -6.4220 N.pl3   1  UNL1       -0.1790
     29  H         15.1540  -23.0630   -6.0730 H       1  UNL1        0.1460
     30  C         16.9710  -22.2980   -5.4640 C.2     1  UNL1        0.0560
     31  C         18.1040  -21.5980   -5.8780 C.2     1  UNL1        0.0270
     32  C         18.9480  -21.0210   -4.9310 C.2     1  UNL1        0.0020
     33  C         18.6550  -21.1410   -3.5730 C.2     1  UNL1        0.0030
     34  C         17.5200  -21.8420   -3.1540 C.2     1  UNL1        0.0380
     35  C         16.6680  -22.4230   -4.0950 C.2     1  UNL1        0.0900
     36  O         15.5310  -23.1370   -3.8070 O.2     1  UNL1       -0.3540
     37  C         15.7070  -24.3890   -3.1550 C.3     1  UNL1        0.2100
@<TRIPOS>BOND
     1    20    19    2
     2    24    22    1
     3    22    19    1
     4    22    23    1
     5    21    19    2
     6    19    16    1
     7    16    15    2
     8    16    17    1
     9    15    14    1
    10    17    18    2
    11    14    13    2
    12    18    13    1
    13    13    12    1
    14     5     4    2
    15     5     6    1
    16     4     3    1
    17    11    10    1
    18    12    10    1
    19    10     8   am
    20     7     6    1
    21     6     1    2
    22     3     8    1
    23     3     2    2
    24     8     9    2
    25     1     2    1
    26     1    25    1
    27    27    25    2
    28    25    28    1
    29    25    26    2
    30    28    29    1
    31    28    30    1
    32    31    30    2
    33    31    32    1
    34    30    35    1
    35    32    33    2
    36    35    36    1
    37    35    34    2
    38    36    37    1
    39    33    34    1
