@<TRIPOS>MOLECULE
30002_out_ligand_01.pdbqt
 37 40 0 0 0
SMALL
GASTEIGER

@<TRIPOS>ATOM
      1  N         23.2830  -22.5180  -12.1010 N.am    1  UNL1       -0.3240
      2  C         21.9960  -22.0390  -12.3350 C.2     1  UNL1        0.3230
      3  O         21.7100  -21.5000  -13.4020 O.2     1  UNL1       -0.2470
      4  N         21.1080  -22.2000  -11.2920 N.am    1  UNL1       -0.3090
      5  H         21.4870  -22.5230  -10.4160 H       1  UNL1        0.1700
      6  C         23.7190  -23.2590  -10.9180 C.3     1  UNL1        0.1930
      7  C         23.0580  -22.7350   -9.6910 C.2     1  UNL1        0.0720
      8  C         23.3530  -21.7490   -8.7710 C.2     1  UNL1        0.0370
      9  C         22.2890  -21.7430   -7.8340 C.2     1  UNL1        0.0450
     10  C         21.4010  -22.7330   -8.2220 C.2     1  UNL1        0.1430
     11  O         21.8780  -23.3290   -9.3600 O.2     1  UNL1       -0.3080
     12  C         20.1420  -23.2190   -7.6820 C.2     1  UNL1        0.2750
     13  O         19.7460  -24.3730   -7.8270 O.2     1  UNL1       -0.2650
     14  N         19.4010  -22.2800   -6.9800 N.am    1  UNL1       -0.3510
     15  H         19.8330  -21.3980   -6.7530 H       1  UNL1        0.1630
     16  C         18.1770  -22.6410   -6.2540 C.3     1  UNL1        0.0840
     17  C         16.9800  -22.2990   -7.1570 C.3     1  UNL1        0.0250
     18  C         15.5740  -22.4640   -6.5780 C.3     1  UNL1        0.0020
     19  C         15.3620  -23.7460   -5.7750 C.3     1  UNL1        0.0000
     20  C         15.1070  -23.5090   -4.2850 C.3     1  UNL1        0.0000
     21  C         16.0210  -22.5150   -3.5690 C.3     1  UNL1        0.0000
     22  C         17.5200  -22.7440   -3.7480 C.3     1  UNL1        0.0020
     23  C         18.1710  -21.9400   -4.8840 C.3     1  UNL1        0.0250
     24  C         24.2990  -22.2900  -13.1300 C.3     1  UNL1        0.1660
     25  C         25.2250  -21.1430  -12.7910 C.2     1  UNL1       -0.0400
     26  C         25.7130  -20.9850  -11.4850 C.2     1  UNL1        0.0090
     27  C         26.5650  -19.9260  -11.1700 C.2     1  UNL1        0.0010
     28  C         26.9380  -19.0130  -12.1550 C.2     1  UNL1        0.0000
     29  C         26.4590  -19.1590  -13.4560 C.2     1  UNL1        0.0010
     30  C         25.6080  -20.2180  -13.7740 C.2     1  UNL1        0.0090
     31  C         19.7450  -21.8360  -11.2480 C.2     1  UNL1        0.0360
     32  C         18.8400  -22.8200  -10.8190 C.2     1  UNL1        0.0320
     33  C         17.4720  -22.5460  -10.7380 C.2     1  UNL1        0.0440
     34  C         17.0070  -21.2850  -11.0850 C.2     1  UNL1        0.1160
     35  F         15.6970  -21.0180  -11.0040 F       1  UNL1       -0.2060
     36  C         17.8830  -20.2980  -11.5160 C.2     1  UNL1        0.0440
     37  C         19.2520  -20.5750  -11.6020 C.2     1  UNL1        0.0320
@<TRIPOS>BOND
     1    30    29    1
     2    30    25    2
     3    29    28    2
     4     3     2    2
     5    24    25    1
     6    24     1    1
     7    25    26    1
     8     2     1   am
     9     2     4   am
    10    28    27    1
    11     1     6    1
    12    37    36    1
    13    37    31    2
    14    36    34    2
    15    26    27    2
    16     4    31    1
    17     4     5    1
    18    31    32    1
    19    34    35    1
    20    34    33    1
    21     6     7    1
    22    32    33    2
    23     7    11    1
    24     7     8    2
    25    11    10    1
    26     8     9    1
    27    10     9    2
    28    10    12    1
    29    13    12    2
    30    12    14   am
    31    17    18    1
    32    17    16    1
    33    14    15    1
    34    14    16    1
    35    18    19    1
    36    16    23    1
    37    19    20    1
    38    23    22    1
    39    20    21    1
    40    22    21    1
