@<TRIPOS>MOLECULE
30017_out_ligand_01.pdbqt
 31 34 0 0 0
SMALL
GASTEIGER

@<TRIPOS>ATOM
      1  C         21.0320  -23.3230   -9.6830 C.2     1  UNL1        0.0320
      2  C         20.4690  -22.5020  -10.6640 C.2     1  UNL1        0.0190
      3  C         21.2750  -21.9770  -11.6810 C.2     1  UNL1        0.0300
      4  C         22.6440  -22.2680  -11.7370 C.2     1  UNL1        0.0350
      5  C         23.1970  -23.1020  -10.7640 C.2     1  UNL1        0.0300
      6  C         22.3950  -23.6320   -9.7460 C.2     1  UNL1        0.0190
      7  N         23.3760  -21.6960  -12.7900 N.am    1  UNL1       -0.3220
      8  C         24.7240  -21.3760  -12.8350 C.2     1  UNL1        0.2760
      9  O         25.5310  -21.5420  -11.9270 O.2     1  UNL1       -0.2660
     10  H         22.8780  -21.4750  -13.6480 H       1  UNL1        0.1690
     11  C         25.1160  -20.7890  -14.1380 C.ar    1  UNL1        0.1440
     12  N         25.6500  -19.5560  -14.1550 N.ar    1  UNL1       -0.2050
     13  S         25.9980  -19.1330  -15.7100 S.2     1  UNL1        0.0120
     14  C         25.4500  -20.5830  -16.4400 C.ar    1  UNL1        0.0360
     15  C         25.4390  -20.9420  -17.7990 C.2     1  UNL1        0.0210
     16  C         24.9760  -21.4310  -15.4350 C.ar    1  UNL1        0.0170
     17  C         24.9350  -22.1950  -18.1530 C.2     1  UNL1        0.0010
     18  C         24.4570  -23.0640  -17.1800 C.2     1  UNL1        0.0010
     19  C         24.4720  -22.6960  -15.8310 C.2     1  UNL1        0.0150
     20  C         20.2220  -23.9130   -8.5820 C.2     1  UNL1        0.2520
     21  O         20.2740  -25.1170   -8.3610 O.2     1  UNL1       -0.2680
     22  N         19.4590  -23.0310   -7.8460 N.am    1  UNL1       -0.3520
     23  H         19.4790  -22.0460   -8.0650 H       1  UNL1        0.1630
     24  C         18.5420  -23.4810   -6.7920 C.3     1  UNL1        0.0840
     25  C         18.3150  -22.3110   -5.8270 C.3     1  UNL1        0.0250
     26  C         17.4570  -22.5480   -4.5820 C.3     1  UNL1        0.0020
     27  C         16.1680  -23.3540   -4.7010 C.3     1  UNL1        0.0000
     28  C         15.0820  -22.8440   -5.6500 C.3     1  UNL1        0.0000
     29  C         15.4840  -22.2770   -7.0080 C.3     1  UNL1        0.0000
     30  C         16.2160  -23.2020   -7.9820 C.3     1  UNL1        0.0020
     31  C         17.3080  -24.1280   -7.4470 C.3     1  UNL1        0.0250
@<TRIPOS>BOND
     1    17    15    1
     2    17    18    2
     3    15    14    2
     4    18    19    1
     5    14    13   ar
     6    14    16   ar
     7    19    16    2
     8    13    12   ar
     9    16    11   ar
    10    12    11   ar
    11    11     8    1
    12    10     7    1
    13     8     7   am
    14     8     9    2
    15     7     4    1
    16     4     3    2
    17     4     5    1
    18     3     2    1
    19     5     6    2
    20     2     1    2
    21     6     1    1
    22     1    20    1
    23    20    21    2
    24    20    22   am
    25    23    22    1
    26    30    31    1
    27    30    29    1
    28    22    24    1
    29    31    24    1
    30    29    28    1
    31    24    25    1
    32    25    26    1
    33    28    27    1
    34    27    26    1
