@<TRIPOS>MOLECULE
30030_out_ligand_01.pdbqt
 32 36 0 0 0
SMALL
GASTEIGER

@<TRIPOS>ATOM
      1  C         20.7150  -22.3900  -10.4280 C.ar    1  UNL1        0.2130
      2  N         20.7850  -21.8580  -11.6300 N.ar    1  UNL1       -0.1200
      3  N         19.5180  -21.4660  -11.9910 N.ar    1  UNL1       -0.1280
      4  C         18.7110  -21.7570  -10.9910 C.ar    1  UNL1        0.1750
      5  C         17.3250  -21.5900  -10.8100 C.2     1  UNL1        0.0570
      6  C         16.7640  -21.9680   -9.6530 C.2     1  UNL1        0.0380
      7  C         17.6530  -22.5610   -8.6030 C.2     1  UNL1        0.0880
      8  N         18.9300  -22.7620   -8.7500 N.2     1  UNL1       -0.1630
      9  N         19.4210  -22.3430   -9.9600 N.ar    1  UNL1       -0.1870
     10  S         22.0250  -23.0790   -9.5320 S.3     1  UNL1       -0.0790
     11  C         23.1690  -21.6720   -9.4350 C.3     1  UNL1        0.1850
     12  C         24.1280  -21.6580  -10.6180 C.2     1  UNL1        0.2310
     13  O         25.1270  -20.9380  -10.6080 O.2     1  UNL1       -0.2720
     14  N         23.7430  -22.5060  -11.6410 N.am    1  UNL1       -0.3260
     15  H         22.9770  -23.1490  -11.4290 H       1  UNL1        0.1690
     16  C         24.3570  -22.6860  -12.8960 C.2     1  UNL1        0.0370
     17  C         25.2710  -23.7450  -13.0070 C.2     1  UNL1        0.0320
     18  C         25.9160  -24.0080  -14.2180 C.2     1  UNL1        0.0420
     19  C         25.6560  -23.2090  -15.3270 C.2     1  UNL1        0.1020
     20  C         24.7310  -22.1650  -15.2300 C.2     1  UNL1        0.1040
     21  O         26.3370  -23.5120  -16.4790 O.2     1  UNL1       -0.3460
     22  C         24.0930  -21.8960  -14.0170 C.2     1  UNL1        0.0690
     23  O         24.4040  -21.3560  -16.2900 O.2     1  UNL1       -0.3460
     24  C         24.8260  -21.9230  -17.5340 C.3     1  UNL1        0.2020
     25  C         26.2480  -22.4480  -17.4320 C.3     1  UNL1        0.2020
     26  C         17.0040  -22.9660   -7.3200 C.2     1  UNL1       -0.0050
     27  C         17.7930  -23.5980   -6.3450 C.2     1  UNL1        0.0170
     28  C         17.2280  -23.9920   -5.1310 C.2     1  UNL1        0.0430
     29  C         15.8830  -23.7400   -4.8900 C.2     1  UNL1        0.1160
     30  F         15.3390  -24.1200   -3.7250 F       1  UNL1       -0.2060
     31  C         15.0940  -23.0960   -5.8350 C.2     1  UNL1        0.0430
     32  C         15.6520  -22.7030   -7.0540 C.2     1  UNL1        0.0170
@<TRIPOS>BOND
     1    24    25    1
     2    24    23    1
     3    25    21    1
     4    21    19    1
     5    23    20    1
     6    19    20    2
     7    19    18    1
     8    20    22    1
     9    18    17    2
    10    22    16    2
    11    17    16    1
    12    16    14    1
    13     3     2   ar
    14     3     4   ar
    15    14    15    1
    16    14    12   am
    17     2     1   ar
    18     4     5    1
    19     4     9   ar
    20     5     6    2
    21    12    13    2
    22    12    11    1
    23     1     9   ar
    24     1    10    1
    25     9     8    1
    26     6     7    1
    27    10    11    1
    28     8     7    2
    29     7    26    1
    30    26    32    2
    31    26    27    1
    32    32    31    1
    33    27    28    2
    34    31    29    2
    35    28    29    1
    36    29    30    1
