@<TRIPOS>MOLECULE
3005_out_ligand_01.pdbqt
 30 32 0 0 0
SMALL
GASTEIGER

@<TRIPOS>ATOM
      1  C         20.6920  -22.1080  -10.5690 C.2     1  UNL1        0.2590
      2  O         21.3460  -22.1630   -9.5300 O.2     1  UNL1       -0.2670
      3  N         21.2210  -22.1230  -11.8440 N.am    1  UNL1       -0.3230
      4  H         20.5590  -22.0720  -12.6100 H       1  UNL1        0.1690
      5  C         19.1950  -22.0050  -10.4560 C.2     1  UNL1        0.0660
      6  C         18.5430  -21.1770  -11.3880 C.2     1  UNL1        0.0200
      7  C         17.1550  -21.0170  -11.3690 C.2     1  UNL1        0.0010
      8  C         16.3910  -21.6870  -10.4180 C.2     1  UNL1        0.0030
      9  C         17.0150  -22.5100   -9.4840 C.2     1  UNL1        0.0380
     10  C         18.4120  -22.6540   -9.4860 C.2     1  UNL1        0.0910
     11  O         18.9900  -23.5010   -8.5660 O.2     1  UNL1       -0.3100
     12  C         18.6470  -23.3240   -7.2410 C.2     1  UNL1        0.0760
     13  C         17.9580  -24.2790   -6.4900 C.2     1  UNL1        0.0370
     14  C         17.6240  -24.0040   -5.1630 C.2     1  UNL1        0.0030
     15  C         17.9560  -22.7710   -4.5970 C.2     1  UNL1        0.0070
     16  C         18.6110  -21.7930   -5.3570 C.2     1  UNL1       -0.0590
     17  C         18.9780  -20.4720   -4.7470 C.3     1  UNL1        0.0480
     18  C         18.9610  -22.0820   -6.6830 C.2     1  UNL1        0.0440
     19  C         22.5760  -22.2270  -12.2240 C.2     1  UNL1        0.0360
     20  C         23.5220  -22.9990  -11.5520 C.2     1  UNL1        0.0300
     21  C         24.8450  -23.0590  -12.0070 C.2     1  UNL1        0.0100
     22  C         25.2560  -22.3470  -13.1440 C.2     1  UNL1       -0.0460
     23  C         26.6750  -22.4930  -13.6130 C.3     1  UNL1        0.0490
     24  C         24.3090  -21.5350  -13.7930 C.2     1  UNL1        0.0390
     25  C         22.9770  -21.5000  -13.3490 C.2     1  UNL1        0.0470
     26  C         24.6270  -20.6850  -14.9690 C.2     1  UNL1        0.2490
     27  N         25.1700  -19.4580  -14.7110 N.am    1  UNL1       -0.3660
     28  H         25.1430  -19.0570  -13.7850 H       1  UNL1        0.1590
     29  H         25.2360  -18.8240  -15.4970 H       1  UNL1        0.1590
     30  O         24.3450  -21.0330  -16.1090 O.2     1  UNL1       -0.2680
@<TRIPOS>BOND
     1    30    26    2
     2    29    27    1
     3    26    27   am
     4    26    24    1
     5    27    28    1
     6    24    25    1
     7    24    22    2
     8    23    22    1
     9    25    19    2
    10    22    21    1
    11     4     3    1
    12    19     3    1
    13    19    20    1
    14    21    20    2
    15     3     1   am
    16     6     7    1
    17     6     5    2
    18     7     8    2
    19     1     5    1
    20     1     2    2
    21     5    10    1
    22     8     9    1
    23    10     9    2
    24    10    11    1
    25    11    12    1
    26    12    18    2
    27    12    13    1
    28    18    16    1
    29    13    14    2
    30    16    17    1
    31    16    15    2
    32    14    15    1
