@<TRIPOS>MOLECULE
30058_out_ligand_01.pdbqt
 30 33 0 0 0
SMALL
GASTEIGER

@<TRIPOS>ATOM
      1  C         17.4540  -21.7690  -10.7460 C.ar    1  UNL1        0.1580
      2  N         17.2060  -20.7640  -11.5950 N.ar    1  UNL1       -0.1110
      3  O         18.4340  -20.5740  -12.2290 O.2     1  UNL1       -0.1890
      4  C         19.3030  -21.4970  -11.7040 C.ar    1  UNL1        0.2230
      5  C         20.6660  -21.6160  -12.1040 C.2     1  UNL1        0.0890
      6  C         21.6490  -22.4770  -11.6600 C.2     1  UNL1        0.0480
      7  C         22.8420  -22.1900  -12.3780 C.2     1  UNL1       -0.0050
      8  C         24.1450  -22.7230  -12.3630 C.2     1  UNL1        0.0370
      9  C         25.1040  -22.1870  -13.2270 C.2     1  UNL1        0.0350
     10 CL         26.7020  -22.8310  -13.2200 Cl      1  UNL1       -0.0840
     11  C         24.7900  -21.1430  -14.0960 C.2     1  UNL1        0.0260
     12  C         23.5030  -20.5980  -14.1260 C.2     1  UNL1        0.0320
     13  C         22.5510  -21.1440  -13.2550 C.2     1  UNL1        0.0430
     14  N         21.2270  -20.8160  -13.0680 N.pl3   1  UNL1       -0.3520
     15  N         18.7340  -22.2570  -10.7920 N.ar    1  UNL1       -0.2030
     16  H         20.7410  -20.0870  -13.5720 H       1  UNL1        0.1660
     17  C         16.4180  -22.3360   -9.8510 C.3     1  UNL1        0.1030
     18  C         16.7320  -22.1680   -8.3610 C.3     1  UNL1        0.1330
     19  N         16.6730  -23.4140   -7.5820 N.am    1  UNL1       -0.3520
     20  C         17.7890  -24.0460   -7.0240 C.2     1  UNL1        0.2560
     21  O         17.7160  -24.9250   -6.1670 O.2     1  UNL1       -0.2670
     22  C         15.3670  -23.8380   -7.1030 C.3     1  UNL1        0.1520
     23  C         19.1430  -23.6090   -7.4260 C.2     1  UNL1        0.0650
     24  C         19.8330  -24.4210   -8.3370 C.2     1  UNL1        0.0200
     25  C         21.1020  -24.0510   -8.7720 C.2     1  UNL1        0.0010
     26  C         21.6710  -22.8660   -8.3100 C.2     1  UNL1        0.0030
     27  C         20.9710  -22.0420   -7.4200 C.2     1  UNL1        0.0380
     28  C         19.6920  -22.3960   -6.9800 C.2     1  UNL1        0.0840
     29  O         18.9360  -21.6500   -6.1160 O.2     1  UNL1       -0.3550
     30  C         19.5880  -20.5870   -5.4320 C.3     1  UNL1        0.2100
@<TRIPOS>BOND
     1    12    11    2
     2    12    13    1
     3    11     9    1
     4    16    14    1
     5    13    14    1
     6    13     7    2
     7     9    10    1
     8     9     8    2
     9    14     5    1
    10     7     8    1
    11     7     6    1
    12     3     4   ar
    13     3     2   ar
    14     5     4    1
    15     5     6    2
    16     4    15   ar
    17     2     1   ar
    18    15     1   ar
    19     1    17    1
    20    17    18    1
    21    25    24    1
    22    25    26    2
    23    18    19    1
    24    24    23    2
    25    26    27    1
    26    19    22    1
    27    19    20   am
    28    23    20    1
    29    23    28    1
    30    27    28    2
    31    20    21    2
    32    28    29    1
    33    29    30    1
