@<TRIPOS>MOLECULE
3007_out_ligand_01.pdbqt
 35 39 0 0 0
SMALL
GASTEIGER

@<TRIPOS>ATOM
      1  N         24.5630  -22.5820  -12.3190 N.am    1  UNL1       -0.3090
      2  C         24.2290  -22.3570  -11.0020 C.2     1  UNL1        0.3200
      3  O         24.1580  -21.2760  -10.4340 O.2     1  UNL1       -0.2470
      4  N         23.9460  -23.5490  -10.3680 N.am    1  UNL1       -0.3390
      5  H         24.3160  -23.4970  -12.6670 H       1  UNL1        0.1700
      6  H         24.5070  -24.3320  -10.6660 H       1  UNL1        0.1640
      7  C         23.6180  -23.5310   -8.9590 C.3     1  UNL1        0.1620
      8  C         22.1550  -23.2390   -8.7640 C.2     1  UNL1       -0.0400
      9  C         21.7400  -22.1790   -7.9480 C.2     1  UNL1        0.0090
     10  C         20.3800  -21.9310   -7.7510 C.2     1  UNL1        0.0090
     11  C         19.4080  -22.7400   -8.3570 C.2     1  UNL1       -0.0450
     12  C         19.8250  -23.8020   -9.1690 C.2     1  UNL1        0.0090
     13  C         21.1850  -24.0520   -9.3680 C.2     1  UNL1        0.0090
     14  C         17.9350  -22.4540   -8.1480 C.3     1  UNL1        0.1340
     15  N         17.3300  -23.4260   -7.2360 N.pl3   1  UNL1       -0.2780
     16  C         16.0160  -23.9980   -7.6000 C.3     1  UNL1        0.1010
     17  C         15.3550  -24.4980   -6.3050 C.3     1  UNL1        0.0550
     18  C         16.0150  -23.6040   -5.3130 C.2     1  UNL1       -0.0360
     19  C         15.6580  -23.3710   -3.9950 C.2     1  UNL1        0.0090
     20  C         17.1440  -23.0150   -5.8970 C.2     1  UNL1        0.0170
     21  C         16.4550  -22.5120   -3.2400 C.2     1  UNL1        0.0010
     22  C         17.5920  -21.9200   -3.8070 C.2     1  UNL1        0.0020
     23  C         17.9450  -22.1770   -5.1380 C.2     1  UNL1        0.0240
     24  C         24.9900  -21.6340  -13.2690 C.2     1  UNL1        0.0390
     25  C         24.5730  -21.6230  -14.5990 C.2     1  UNL1        0.0680
     26  C         25.0450  -20.6440  -15.4830 C.2     1  UNL1        0.0980
     27  O         24.5380  -20.7100  -16.7540 O.2     1  UNL1       -0.3400
     28  C         25.9230  -19.6420  -15.0530 C.2     1  UNL1        0.0700
     29  C         25.3320  -20.0370  -17.7090 C.3     1  UNL1        0.2790
     30  C         26.0200  -18.7360  -17.3100 C.2     1  UNL1        0.2480
     31  N         26.3500  -18.6380  -15.9640 N.am    1  UNL1       -0.3180
     32  O         26.3170  -17.8880  -18.1530 O.2     1  UNL1       -0.2710
     33  C         27.1210  -17.4950  -15.5050 C.3     1  UNL1        0.1590
     34  C         26.3260  -19.6480  -13.7130 C.2     1  UNL1        0.0350
     35  C         25.8650  -20.6350  -12.8310 C.2     1  UNL1        0.0320
@<TRIPOS>BOND
     1    32    30    2
     2    29    30    1
     3    29    27    1
     4    30    31   am
     5    27    26    1
     6    31    33    1
     7    31    28    1
     8    26    28    2
     9    26    25    1
    10    28    34    1
    11    25    24    2
    12    34    35    2
    13    24    35    1
    14    24     1    1
    15     5     1    1
    16     1     2   am
    17     2     3    2
    18     2     4   am
    19     6     4    1
    20     4     7    1
    21    13    12    1
    22    13     8    2
    23    12    11    2
    24     7     8    1
    25     8     9    1
    26    11    14    1
    27    11    10    1
    28    14    15    1
    29     9    10    2
    30    16    15    1
    31    16    17    1
    32    15    20    1
    33    17    18    1
    34    20    18    2
    35    20    23    1
    36    18    19    1
    37    23    22    2
    38    19    21    2
    39    22    21    1
