@<TRIPOS>MOLECULE
30085_out_ligand_01.pdbqt
 36 39 0 0 0
SMALL
GASTEIGER

@<TRIPOS>ATOM
      1  C         16.3980  -22.8730   -9.0360 C.2     1  UNL1        0.0900
      2  C         17.6860  -22.7370   -9.3940 C.2     1  UNL1        0.1050
      3  N         18.7860  -23.3570   -8.8310 N.pl3   1  UNL1       -0.3500
      4  C         20.0720  -23.2420   -9.3760 C.2     1  UNL1        0.0590
      5  C         21.1600  -23.9020   -8.8010 C.2     1  UNL1        0.0330
      6  C         22.4450  -23.7380   -9.3280 C.2     1  UNL1        0.0190
      7  C         22.6520  -22.9020  -10.4340 C.2     1  UNL1        0.0340
      8  C         21.5720  -22.2090  -10.9950 C.2     1  UNL1        0.0490
      9  C         20.2950  -22.3810  -10.4630 C.2     1  UNL1        0.0620
     10  N         19.2120  -21.6860  -11.0190 N.am    1  UNL1       -0.3200
     11  C         17.9180  -21.7950  -10.5690 C.2     1  UNL1        0.2720
     12  O         17.0160  -21.1490  -11.0960 O.2     1  UNL1       -0.2660
     13  H         18.6220  -24.1250   -8.1910 H       1  UNL1        0.1660
     14  H         19.3540  -21.0580  -11.7970 H       1  UNL1        0.1690
     15  C         24.0030  -22.6930  -11.0240 C.2     1  UNL1        0.2520
     16  O         24.5930  -21.6360  -10.8310 O.2     1  UNL1       -0.2680
     17  N         24.4950  -23.7190  -11.8000 N.am    1  UNL1       -0.3530
     18  H         23.8580  -24.4340  -12.1210 H       1  UNL1        0.1630
     19  C         25.7160  -23.5640  -12.5610 C.3     1  UNL1        0.1610
     20  C         25.4070  -23.3000  -14.0130 C.2     1  UNL1       -0.0410
     21  C         25.2380  -21.9870  -14.4700 C.2     1  UNL1        0.0090
     22  C         24.9250  -21.7350  -15.8070 C.2     1  UNL1        0.0070
     23  C         24.7640  -22.7930  -16.7100 C.2     1  UNL1       -0.0620
     24  C         24.4620  -22.5180  -18.1520 C.3     1  UNL1        0.0480
     25  C         24.9420  -24.1050  -16.2570 C.2     1  UNL1        0.0070
     26  C         25.2530  -24.3570  -14.9180 C.2     1  UNL1        0.0090
     27  C         15.9160  -23.7240   -7.9270 C.2     1  UNL1        0.1840
     28  O         15.5160  -24.8590   -8.1630 O.2     1  UNL1       -0.2880
     29  C         15.8990  -23.1970   -6.5380 C.2     1  UNL1        0.0170
     30  C         14.7450  -23.2160   -5.7500 C.2     1  UNL1        0.0150
     31  C         14.7820  -22.7020   -4.4530 C.2     1  UNL1        0.0040
     32  C         15.9700  -22.1760   -3.9370 C.2     1  UNL1        0.0370
     33  C         17.1300  -22.1700   -4.7110 C.2     1  UNL1        0.0690
     34  C         17.0910  -22.6850   -6.0100 C.2     1  UNL1        0.0520
     35  O         18.3500  -21.6860   -4.3260 O.2     1  UNL1       -0.3560
     36  C         19.0900  -20.9540   -5.2960 C.3     1  UNL1        0.2100
@<TRIPOS>BOND
     1    24    23    1
     2    23    25    2
     3    23    22    1
     4    25    26    1
     5    22    21    2
     6    26    20    2
     7    21    20    1
     8    20    19    1
     9    19    17    1
    10    18    17    1
    11    17    15   am
    12    14    10    1
    13    12    11    2
    14    15    16    2
    15    15     7    1
    16    10    11   am
    17    10     9    1
    18     8     9    1
    19     8     7    2
    20    11     2    1
    21     9     4    2
    22     7     6    1
    23     2     1    2
    24     2     3    1
    25     4     3    1
    26     4     5    1
    27     6     5    2
    28     1    27    1
    29     3    13    1
    30    28    27    2
    31    27    29    1
    32    29    34    2
    33    29    30    1
    34    34    33    1
    35    30    31    2
    36    36    35    1
    37    33    35    1
    38    33    32    2
    39    31    32    1
