@<TRIPOS>MOLECULE
3013_out_ligand_01.pdbqt
 32 35 0 0 0
SMALL
GASTEIGER

@<TRIPOS>ATOM
      1  C         21.0630  -22.4890  -10.5860 C.2     1  UNL1        0.0350
      2  C         21.0800  -21.7440  -11.7730 C.2     1  UNL1        0.0300
      3  C         22.2350  -21.6750  -12.5600 C.2     1  UNL1        0.0190
      4  C         23.3890  -22.3620  -12.1680 C.2     1  UNL1        0.0320
      5  C         23.3810  -23.0950  -10.9790 C.2     1  UNL1        0.0190
      6  C         22.2210  -23.1630  -10.1950 C.2     1  UNL1        0.0300
      7  N         19.8580  -22.5140   -9.8590 N.am    1  UNL1       -0.3230
      8  C         19.7000  -22.4100   -8.4880 C.2     1  UNL1        0.2580
      9  O         20.5670  -22.2040   -7.6510 O.2     1  UNL1       -0.2670
     10  H         19.0030  -22.5140  -10.4060 H       1  UNL1        0.1690
     11  C         18.2950  -22.5290   -8.0420 C.2     1  UNL1        0.0590
     12  C         17.9210  -22.3330   -6.7000 C.ar    1  UNL1        0.0590
     13  N         18.6550  -21.9340   -5.6060 N.ar    1  UNL1       -0.3580
     14  C         16.6060  -22.4970   -6.2670 C.ar    1  UNL1       -0.0010
     15  C         17.8710  -21.9050   -4.4810 C.ar    1  UNL1        0.0120
     16  H         19.6350  -21.6790   -5.6390 H       1  UNL1        0.1660
     17  C         18.4280  -21.5310   -3.1540 C.3     1  UNL1        0.0680
     18  C         16.5810  -22.2440   -4.8570 C.ar    1  UNL1       -0.0270
     19  C         15.3800  -22.3220   -3.9820 C.3     1  UNL1        0.0510
     20  C         15.6230  -22.8500   -7.2160 C.2     1  UNL1        0.0140
     21  C         15.9760  -23.0100   -8.5620 C.2     1  UNL1        0.0020
     22  C         17.2970  -22.8470   -8.9710 C.2     1  UNL1        0.0190
     23  C         24.6440  -22.3190  -12.9700 C.2     1  UNL1        0.2520
     24  O         25.7290  -22.4830  -12.4270 O.2     1  UNL1       -0.2680
     25  N         24.4900  -22.1310  -14.3300 N.am    1  UNL1       -0.3520
     26  H         23.5670  -22.2650  -14.7210 H       1  UNL1        0.1630
     27  C         25.6370  -22.1910  -15.2350 C.3     1  UNL1        0.0880
     28  C         25.5040  -23.3350  -16.2460 C.3     1  UNL1        0.0510
     29  C         24.4950  -22.9960  -17.3320 C.3     1  UNL1        0.1690
     30  O         24.8360  -21.7670  -17.9750 O.3     1  UNL1       -0.3910
     31  C         24.8230  -20.6620  -17.0750 C.3     1  UNL1        0.1690
     32  C         25.8370  -20.8560  -15.9570 C.3     1  UNL1        0.0510
@<TRIPOS>BOND
     1    30    29    1
     2    30    31    1
     3    29    28    1
     4    31    32    1
     5    28    27    1
     6    32    27    1
     7    27    25    1
     8    26    25    1
     9    25    23   am
    10    23    24    2
    11    23     4    1
    12     3     4    2
    13     3     2    1
    14     4     5    1
    15     2     1    2
    16     5     6    2
    17     1     6    1
    18     1     7    1
    19    10     7    1
    20     7     8   am
    21    22    21    1
    22    22    11    2
    23    21    20    2
    24     8    11    1
    25     8     9    2
    26    11    12    1
    27    20    14    1
    28    12    14   ar
    29    12    13   ar
    30    14    18   ar
    31    16    13    1
    32    13    15   ar
    33    18    15   ar
    34    18    19    1
    35    15    17    1
