@<TRIPOS>MOLECULE
30145_out_ligand_01.pdbqt
 38 42 0 0 0
SMALL
GASTEIGER

@<TRIPOS>ATOM
      1  C         20.7020  -23.3970   -9.4860 C.ar    1  UNL1        0.1380
      2  N         19.7400  -23.6840   -8.6430 N.ar    1  UNL1       -0.2080
      3  C         18.5020  -23.1620   -8.8620 C.ar    1  UNL1        0.1920
      4  C         17.2830  -23.2430   -8.2170 C.ar    1  UNL1        0.2210
      5  N         16.3470  -22.4850   -8.8790 N.ar    1  UNL1       -0.1430
      6  N         16.9370  -21.9390   -9.9370 N.ar    1  UNL1        0.0130
      7  N         18.2220  -22.3410   -9.9320 N.ar    1  UNL1       -0.2170
      8  C         19.1890  -21.9540  -10.8610 C.ar    1  UNL1        0.0700
      9  C         18.8950  -21.0940  -11.9220 C.2     1  UNL1        0.0320
     10  C         19.9220  -20.7210  -12.7870 C.2     1  UNL1        0.0020
     11  C         21.2210  -21.1980  -12.5830 C.2     1  UNL1        0.0010
     12  C         21.5030  -22.0620  -11.5180 C.2     1  UNL1        0.0170
     13  C         20.4790  -22.4600  -10.6530 C.ar    1  UNL1        0.0380
     14  N         21.9490  -23.9710   -9.3130 N.pl3   1  UNL1       -0.3740
     15  H         21.9540  -24.9270   -8.9780 H       1  UNL1        0.1610
     16  C         23.0800  -23.2020   -8.7910 C.3     1  UNL1        0.1260
     17  C         24.3960  -23.6150   -9.4560 C.3     1  UNL1        0.0580
     18  C         24.6490  -22.8520  -10.7350 C.2     1  UNL1       -0.0570
     19  C         24.5980  -23.5030  -11.9760 C.2     1  UNL1        0.0090
     20  C         24.8280  -22.7940  -13.1560 C.2     1  UNL1        0.0250
     21  C         25.1200  -21.4290  -13.0960 C.2     1  UNL1        0.0740
     22  C         25.1640  -20.7640  -11.8690 C.2     1  UNL1        0.0250
     23  C         24.9350  -21.4780  -10.6920 C.2     1  UNL1        0.0090
     24  S         25.3780  -20.5160  -14.5870 S.O2    1  UNL1        0.2390
     25  O         25.8430  -19.1880  -14.2620 O.2     1  UNL1       -0.2060
     26  O         26.0500  -21.3570  -15.5490 O.2     1  UNL1       -0.2060
     27  N         23.8100  -20.3220  -15.1530 N.3     1  UNL1       -0.2250
     28  H         23.8270  -20.1330  -16.1560 H       1  UNL1        0.1360
     29  H         23.3320  -19.6050  -14.6060 H       1  UNL1        0.1360
     30  S         16.9370  -24.0700   -6.7520 S.O2    1  UNL1        0.2290
     31  O         17.7300  -25.2860   -6.7800 O.2     1  UNL1       -0.2150
     32  O         15.4910  -24.1100   -6.6480 O.2     1  UNL1       -0.2150
     33  C         17.5460  -23.0010   -5.4790 C.2     1  UNL1        0.0660
     34  C         18.3550  -21.9150   -5.8290 C.2     1  UNL1        0.0240
     35  C         18.8340  -21.0660   -4.8310 C.2     1  UNL1        0.0020
     36  C         18.4970  -21.2990   -3.4960 C.2     1  UNL1        0.0000
     37  C         17.6780  -22.3760   -3.1530 C.2     1  UNL1        0.0020
     38  C         17.1940  -23.2290   -4.1460 C.2     1  UNL1        0.0240
@<TRIPOS>BOND
     1    28    27    1
     2    26    24    2
     3    27    29    1
     4    27    24    1
     5    24    25    2
     6    24    21    1
     7    20    21    2
     8    20    19    1
     9    21    22    1
    10    10    11    2
    11    10     9    1
    12    11    12    1
    13    19    18    2
    14     9     8    2
    15    22    23    2
    16    12    13    2
    17     8    13   ar
    18     8     7   ar
    19    18    23    1
    20    18    17    1
    21    13     1   ar
    22     6     7   ar
    23     6     5   ar
    24     7     3   ar
    25     1    14    1
    26     1     2   ar
    27    17    16    1
    28    14    15    1
    29    14    16    1
    30     5     4   ar
    31     3     2   ar
    32     3     4   ar
    33     4    30    1
    34    31    30    2
    35    30    32    2
    36    30    33    1
    37    34    33    2
    38    34    35    1
    39    33    38    1
    40    35    36    2
    41    38    37    2
    42    36    37    1
