@<TRIPOS>MOLECULE
30149_out_ligand_01.pdbqt
 30 33 0 0 0
SMALL
GASTEIGER

@<TRIPOS>ATOM
      1  C         25.3370  -21.9890  -11.8830 C.3     1  UNL1        0.0480
      2  C         24.0700  -22.3800  -11.1780 C.2     1  UNL1       -0.0610
      3  C         24.1180  -23.1930  -10.0430 C.2     1  UNL1        0.0090
      4  C         22.9560  -23.5460   -9.3500 C.2     1  UNL1        0.0310
      5  C         21.7390  -23.0480   -9.8270 C.ar    1  UNL1        0.0430
      6  N         20.4640  -23.2270   -9.3530 N.ar    1  UNL1       -0.3520
      7  C         19.5580  -22.5480  -10.1260 C.ar    1  UNL1        0.0950
      8  C         18.1640  -22.5880   -9.8200 C.2     1  UNL1        0.2230
      9  N         17.6710  -23.2340   -8.7810 N.2     1  UNL1       -0.2030
     10  C         16.3260  -22.9970   -8.8940 C.2     1  UNL1        0.1580
     11  N         15.9700  -22.2400   -9.9380 N.4     1  UNL1       -0.1110
     12  O         17.1900  -21.9660  -10.5580 O.2     1  UNL1       -0.1890
     13  C         20.2570  -21.9060  -11.1360 C.ar    1  UNL1       -0.0180
     14  C         19.6840  -21.0500  -12.2120 C.3     1  UNL1        0.0520
     15  C         21.6450  -22.2240  -10.9480 C.ar    1  UNL1       -0.0010
     16  C         22.8350  -21.8820  -11.6270 C.2     1  UNL1        0.0210
     17  H         20.2160  -23.7820   -8.5440 H       1  UNL1        0.1660
     18  C         15.3420  -23.5260   -7.9230 C.3     1  UNL1        0.1030
     19  C         15.2390  -22.6290   -6.6890 C.3     1  UNL1        0.1330
     20  N         15.3980  -23.3720   -5.4270 N.am    1  UNL1       -0.3520
     21  C         14.3710  -24.3560   -5.1180 C.3     1  UNL1        0.1520
     22  C         16.6100  -23.4830   -4.7400 C.2     1  UNL1        0.2530
     23  O         16.8500  -24.3750   -3.9290 O.2     1  UNL1       -0.2670
     24  C         17.6730  -22.4830   -4.9810 C.2     1  UNL1        0.0320
     25  C         18.5330  -22.6660   -6.0720 C.2     1  UNL1        0.0200
     26  C         19.5550  -21.7450   -6.3080 C.2     1  UNL1        0.0430
     27  C         19.7170  -20.6650   -5.4450 C.2     1  UNL1        0.1160
     28  F         20.7000  -19.7850   -5.6710 F       1  UNL1       -0.2060
     29  C         18.8820  -20.4900   -4.3440 C.2     1  UNL1        0.0430
     30  C         17.8590  -21.4080   -4.1040 C.2     1  UNL1        0.0200
@<TRIPOS>BOND
     1    14    13    1
     2     1     2    1
     3    16     2    2
     4    16    15    1
     5     2     3    1
     6    13    15   ar
     7    13     7   ar
     8    15     5   ar
     9    12    11    1
    10    12     8    1
    11     7     8    1
    12     7     6   ar
    13     3     4    2
    14    11    10    1
    15     5     6   ar
    16     5     4    1
    17     8     9    2
    18     6    17    1
    19    10     9    2
    20    10    18    1
    21    18    19    1
    22    19    20    1
    23    26    25    1
    24    26    27    2
    25    25    24    2
    26    28    27    1
    27    27    29    1
    28    20    21    1
    29    20    22   am
    30    24    22    1
    31    24    30    1
    32    22    23    2
    33    29    30    2
