@<TRIPOS>MOLECULE
30150_out_ligand_01.pdbqt
 34 38 0 0 0
SMALL
GASTEIGER

@<TRIPOS>ATOM
      1  C         20.7630  -22.4800   -7.6530 C.2     1  UNL1        0.0320
      2  C         21.8070  -21.5460   -7.6930 C.2     1  UNL1        0.0170
      3  C         22.9180  -21.7750   -8.5090 C.2     1  UNL1        0.0100
      4  C         23.0070  -22.9410   -9.2860 C.2     1  UNL1       -0.0300
      5  C         21.9660  -23.8780   -9.2280 C.2     1  UNL1        0.0100
      6  C         20.8550  -23.6520   -8.4110 C.2     1  UNL1        0.0170
      7  C         19.5570  -22.2770   -6.8010 C.2     1  UNL1        0.2560
      8  O         19.4400  -21.2160   -6.1970 O.2     1  UNL1       -0.2670
      9  N         18.6960  -23.3540   -6.7520 N.am    1  UNL1       -0.3210
     10  H         18.9890  -24.2160   -7.1980 H       1  UNL1        0.1690
     11  C         17.4660  -23.4510   -6.0650 C.2     1  UNL1        0.0690
     12  C         17.2810  -23.0670   -4.7370 C.2     1  UNL1        0.0320
     13  C         16.0240  -23.1960   -4.1330 C.2     1  UNL1        0.0020
     14  C         14.9430  -23.7100   -4.8480 C.2     1  UNL1        0.0030
     15  C         15.1100  -24.0920   -6.1770 C.2     1  UNL1        0.0390
     16  C         16.3620  -23.9470   -6.7830 C.2     1  UNL1        0.1020
     17  O         16.5540  -24.3680   -8.0830 O.2     1  UNL1       -0.3090
     18  C         16.7200  -23.3950   -9.0450 C.2     1  UNL1        0.0760
     19  C         17.8710  -23.5000   -9.8310 C.2     1  UNL1        0.0370
     20  C         18.1470  -22.5340  -10.8000 C.2     1  UNL1        0.0030
     21  C         17.2780  -21.4570  -10.9760 C.2     1  UNL1        0.0000
     22  C         16.1360  -21.3420  -10.1810 C.2     1  UNL1        0.0030
     23  C         15.8570  -22.3070   -9.2110 C.2     1  UNL1        0.0370
     24  C         24.2110  -23.1780  -10.1770 C.3     1  UNL1        0.3110
     25  N         24.3380  -22.1890  -11.2620 N.3     1  UNL1        0.0970
     26  C         24.3760  -22.8710  -12.5660 C.3     1  UNL1        0.2770
     27  C         24.3300  -21.8580  -13.7180 C.3     1  UNL1        0.0690
     28  C         25.3280  -20.7420  -13.5480 C.2     1  UNL1       -0.0490
     29  C         25.6650  -19.9240  -14.6350 C.2     1  UNL1        0.0070
     30  C         25.8760  -20.4830  -12.2800 C.2     1  UNL1       -0.0240
     31  C         26.5610  -18.8680  -14.4700 C.2     1  UNL1        0.0010
     32  C         27.1210  -18.6180  -13.2190 C.2     1  UNL1        0.0010
     33  C         26.7820  -19.4220  -12.1300 C.2     1  UNL1        0.0090
     34  C         25.5640  -21.3770  -11.0950 C.3     1  UNL1        0.3110
@<TRIPOS>BOND
     1    29    31    1
     2    29    28    2
     3    31    32    2
     4    27    28    1
     5    27    26    1
     6    28    30    1
     7    32    33    1
     8    26    25    1
     9    30    33    2
    10    30    34    1
    11    25    34    1
    12    25    24    1
    13    21    20    2
    14    21    22    1
    15    20    19    1
    16    22    23    2
    17    24     4    1
    18    19    18    2
    19     4     5    2
    20     4     3    1
    21     5     6    1
    22    23    18    1
    23    18    17    1
    24     3     2    2
    25     6     1    2
    26    17    16    1
    27     2     1    1
    28     1     7    1
    29    10     9    1
    30     7     9   am
    31     7     8    2
    32    16    15    1
    33    16    11    2
    34     9    11    1
    35    15    14    2
    36    11    12    1
    37    14    13    1
    38    12    13    2
