@<TRIPOS>MOLECULE
30175_out_ligand_01.pdbqt
 38 41 0 0 0
SMALL
GASTEIGER

@<TRIPOS>ATOM
      1  N         20.5270  -23.4060   -9.5700 N.ar    1  UNL1       -0.2900
      2  C         21.8900  -23.3470   -9.8190 C.ar    1  UNL1        0.3320
      3  O         22.6920  -23.7930   -8.9920 O.2     1  UNL1       -0.2460
      4  N         22.3000  -22.7230  -10.9870 N.ar    1  UNL1       -0.2650
      5  C         21.4800  -21.8880  -11.7360 C.ar    1  UNL1        0.2640
      6  O         21.8710  -21.1850  -12.6660 O.2     1  UNL1       -0.2670
      7  C         20.0540  -21.8530  -11.3750 C.ar    1  UNL1        0.0590
      8  C         19.1780  -21.0400  -12.1130 C.2     1  UNL1        0.0190
      9  C         17.8270  -20.9890  -11.7820 C.2     1  UNL1        0.0010
     10  C         17.3560  -21.7460  -10.7150 C.2     1  UNL1        0.0020
     11  C         18.2320  -22.5550   -9.9810 C.2     1  UNL1        0.0310
     12  C         19.5970  -22.6210  -10.3050 C.ar    1  UNL1        0.0550
     13  C         20.0860  -24.2240   -8.4350 C.3     1  UNL1        0.2370
     14  C         19.4410  -23.3810   -7.3290 C.2     1  UNL1        0.2400
     15  N         18.2750  -23.9450   -6.8330 N.am    1  UNL1       -0.3250
     16  H         17.9670  -24.7820   -7.3190 H       1  UNL1        0.1690
     17  O         19.9400  -22.3050   -7.0060 O.2     1  UNL1       -0.2710
     18  C         17.4330  -23.4690   -5.8010 C.2     1  UNL1        0.0410
     19  C         17.8400  -23.4670   -4.4600 C.2     1  UNL1        0.0300
     20  C         17.0070  -22.9710   -3.4550 C.2     1  UNL1        0.0020
     21  C         15.7490  -22.4820   -3.7760 C.2     1  UNL1        0.0010
     22  C         15.3200  -22.4890   -5.1050 C.2     1  UNL1        0.0090
     23  C         16.1420  -22.9790   -6.1370 C.2     1  UNL1       -0.0320
     24  C         15.6660  -22.9750   -7.5800 C.3     1  UNL1        0.0360
     25  C         15.4600  -24.3240   -8.2630 C.3     1  UNL1        0.0100
     26  C         23.7320  -22.7420  -11.2950 C.3     1  UNL1        0.1370
     27  C         24.5220  -21.6080  -10.6250 C.3     1  UNL1        0.0210
     28  C         26.0000  -21.5010  -11.0260 C.3     1  UNL1        0.0110
     29  C         26.4320  -20.2180  -11.7270 C.3     1  UNL1        0.1030
     30  C         26.0610  -20.1600  -13.1960 C.2     1  UNL1        0.2170
     31  O         25.6690  -19.1450  -13.7570 O.2     1  UNL1       -0.2740
     32  N         26.1890  -21.3800  -13.8340 N.am    1  UNL1       -0.3560
     33  H         26.3240  -22.2040  -13.2560 H       1  UNL1        0.1620
     34  C         25.6840  -21.5660  -15.1760 C.3     1  UNL1        0.0840
     35  C         26.6640  -22.2940  -16.0880 C.3     1  UNL1        0.0250
     36  C         25.7860  -22.7280  -17.2500 C.3     1  UNL1        0.0020
     37  C         24.4340  -23.0690  -16.6230 C.3     1  UNL1        0.0020
     38  C         24.4480  -22.4650  -15.2170 C.3     1  UNL1        0.0250
@<TRIPOS>BOND
     1    36    37    1
     2    36    35    1
     3    37    38    1
     4    35    34    1
     5    38    34    1
     6    34    32    1
     7    32    33    1
     8    32    30   am
     9    31    30    2
    10    30    29    1
    11     6     5    2
    12     8     9    1
    13     8     7    2
    14     9    10    2
    15     5     7   ar
    16     5     4   ar
    17    29    28    1
    18     7    12   ar
    19    26     4    1
    20    26    27    1
    21    28    27    1
    22     4     2   ar
    23    10    11    1
    24    12    11    2
    25    12     1   ar
    26     2     1   ar
    27     2     3    2
    28     1    13    1
    29    13    14    1
    30    25    24    1
    31    24    23    1
    32    14    17    2
    33    14    15   am
    34    16    15    1
    35    15    18    1
    36    23    18    2
    37    23    22    1
    38    18    19    1
    39    22    21    2
    40    19    20    2
    41    21    20    1
