@<TRIPOS>MOLECULE
30172_out_ligand_01.pdbqt
 34 36 0 0 0
SMALL
GASTEIGER

@<TRIPOS>ATOM
      1  C         26.4210  -18.4770  -16.5620 C.3     1  UNL1        0.0500
      2  C         26.0640  -19.4400  -15.4590 C.2     1  UNL1       -0.0340
      3  C         26.4880  -19.0380  -14.1320 C.2     1  UNL1        0.0330
      4  C         26.2820  -19.8130  -13.0540 C.2     1  UNL1        0.0120
      5  C         26.7540  -19.3620  -11.6960 C.3     1  UNL1        0.0680
      6  N         25.6110  -21.0310  -13.1970 N.am    1  UNL1       -0.3080
      7  C         25.1080  -21.4580  -14.4340 C.2     1  UNL1        0.2690
      8  O         24.4130  -22.4660  -14.5460 O.2     1  UNL1       -0.2660
      9  C         25.4050  -20.6050  -15.6260 C.2     1  UNL1        0.1180
     10  C         24.9530  -21.0650  -16.8950 C.1     1  UNL1        0.1050
     11  N         24.6010  -21.3890  -17.9530 N.1     1  UNL1       -0.1910
     12  C         25.4030  -21.9250  -12.0410 C.3     1  UNL1        0.2350
     13  C         24.0910  -21.7140  -11.2720 C.2     1  UNL1        0.2400
     14  O         24.1110  -21.2050  -10.1550 O.2     1  UNL1       -0.2710
     15  N         22.9730  -22.2140  -11.9150 N.am    1  UNL1       -0.3260
     16  H         23.1480  -22.6720  -12.8000 H       1  UNL1        0.1690
     17  C         21.6310  -22.1820  -11.4850 C.2     1  UNL1        0.0350
     18  C         20.7530  -21.3680  -12.2180 C.2     1  UNL1        0.0290
     19  C         19.4050  -21.2710  -11.8680 C.2     1  UNL1        0.0030
     20  C         18.9190  -21.9820  -10.7730 C.2     1  UNL1        0.0170
     21  C         19.7880  -22.7890  -10.0280 C.2     1  UNL1        0.0340
     22  C         21.1380  -22.8970  -10.3930 C.2     1  UNL1        0.0460
     23  C         19.2970  -23.5680   -8.8590 C.2     1  UNL1        0.2520
     24  O         19.9450  -24.5140   -8.4290 O.2     1  UNL1       -0.2680
     25  N         18.1110  -23.1330   -8.3060 N.am    1  UNL1       -0.3530
     26  H         17.7570  -22.2220   -8.5640 H       1  UNL1        0.1630
     27  C         17.5870  -23.7160   -7.0890 C.3     1  UNL1        0.1640
     28  C         17.8880  -22.8540   -5.8950 C.2     1  UNL1       -0.0020
     29  C         18.7250  -21.7340   -6.0150 C.2     1  UNL1        0.0120
     30  C         18.9870  -20.9250   -4.9060 C.2     1  UNL1        0.0010
     31  C         18.4100  -21.2180   -3.6720 C.2     1  UNL1        0.0030
     32  C         17.5660  -22.3210   -3.5450 C.2     1  UNL1        0.0430
     33  C         17.3110  -23.1240   -4.6540 C.2     1  UNL1        0.1240
     34  F         16.4830  -24.1710   -4.5150 F       1  UNL1       -0.2050
@<TRIPOS>BOND
     1    11    10    3
     2    10     9    1
     3     1     2    1
     4     9     2    2
     5     9     7    1
     6     2     3    1
     7     8     7    2
     8     7     6   am
     9     3     4    2
    10     6     4    1
    11     6    12    1
    12     4     5    1
    13    16    15    1
    14    18    19    1
    15    18    17    2
    16    12    13    1
    17    15    17    1
    18    15    13   am
    19    19    20    2
    20    17    22    1
    21    13    14    2
    22    20    21    1
    23    22    21    2
    24    21    23    1
    25    23    24    2
    26    23    25   am
    27    26    25    1
    28    25    27    1
    29    27    28    1
    30    29    28    2
    31    29    30    1
    32    28    33    1
    33    30    31    2
    34    33    34    1
    35    33    32    2
    36    31    32    1
