@<TRIPOS>MOLECULE
30186_out_ligand_01.pdbqt
 38 41 0 0 0
SMALL
GASTEIGER

@<TRIPOS>ATOM
      1  C         19.0230  -21.3650  -11.2740 C.2     1  UNL1        0.1430
      2  C         19.7090  -20.2860  -11.8030 C.2     1  UNL1        0.0450
      3  C         21.0520  -20.6990  -11.9860 C.2     1  UNL1        0.0370
      4  C         21.1220  -22.0080  -11.5570 C.2     1  UNL1        0.0720
      5  O         19.8910  -22.4170  -11.1370 O.2     1  UNL1       -0.3080
      6  C         22.2040  -23.0250  -11.4510 C.3     1  UNL1        0.1930
      7  N         23.3780  -22.5000  -10.7540 N.am    1  UNL1       -0.3240
      8  C         24.4470  -21.8410  -11.3550 C.2     1  UNL1        0.3230
      9  O         25.4520  -21.5430  -10.7140 O.2     1  UNL1       -0.2470
     10  N         24.2730  -21.5490  -12.6920 N.am    1  UNL1       -0.3090
     11  H         23.3240  -21.5400  -13.0270 H       1  UNL1        0.1700
     12  C         23.4250  -22.7000   -9.3020 C.3     1  UNL1        0.1660
     13  C         22.0820  -23.0820   -8.7250 C.2     1  UNL1       -0.0400
     14  C         21.3200  -22.1370   -8.0220 C.2     1  UNL1        0.0090
     15  C         20.0660  -22.4770   -7.5110 C.2     1  UNL1        0.0010
     16  C         19.5600  -23.7610   -7.6980 C.2     1  UNL1        0.0000
     17  C         20.3080  -24.7090   -8.3960 C.2     1  UNL1        0.0010
     18  C         21.5630  -24.3720   -8.9070 C.2     1  UNL1        0.0090
     19  C         25.2220  -20.9960  -13.5790 C.2     1  UNL1        0.0360
     20  C         25.6510  -21.8020  -14.6430 C.2     1  UNL1        0.0290
     21  C         26.5920  -21.3300  -15.5630 C.2     1  UNL1        0.0020
     22  C         27.1210  -20.0510  -15.4220 C.2     1  UNL1        0.0000
     23  C         26.7120  -19.2470  -14.3610 C.2     1  UNL1        0.0020
     24  C         25.7690  -19.7200  -13.4410 C.2     1  UNL1        0.0290
     25  C         17.6470  -21.5630  -10.8520 C.2     1  UNL1        0.2750
     26  N         17.3580  -22.8340  -10.3900 N.am    1  UNL1       -0.3510
     27  H         18.1210  -23.4620  -10.1910 H       1  UNL1        0.1630
     28  O         16.7920  -20.6810  -10.8920 O.2     1  UNL1       -0.2650
     29  C         16.0730  -23.1560   -9.8150 C.3     1  UNL1        0.1610
     30  C         16.1620  -23.2530   -8.3150 C.2     1  UNL1       -0.0400
     31  C         16.3350  -22.1140   -7.5260 C.2     1  UNL1        0.0100
     32  C         16.3950  -22.2210   -6.1320 C.2     1  UNL1        0.0240
     33  C         16.2790  -23.4590   -5.4770 C.2     1  UNL1        0.0090
     34  C         16.1090  -24.5920   -6.2830 C.2     1  UNL1        0.0240
     35  C         16.0440  -24.4940   -7.6790 C.2     1  UNL1        0.0100
     36  N         16.3510  -23.5060   -4.0720 N.pl3   1  UNL1       -0.2920
     37  C         15.6950  -22.4330   -3.3270 C.3     1  UNL1        0.1160
     38  C         17.6940  -23.8400   -3.5830 C.3     1  UNL1        0.1160
@<TRIPOS>BOND
     1    21    22    2
     2    21    20    1
     3    22    23    1
     4    20    19    2
     5    23    24    2
     6    19    24    1
     7    19    10    1
     8    11    10    1
     9    10     8   am
    10     3     2    1
    11     3     4    2
    12     2     1    2
    13     4     6    1
    14     4     5    1
    15     6     7    1
    16     8     7   am
    17     8     9    2
    18     1     5    1
    19     1    25    1
    20    28    25    2
    21    25    26   am
    22     7    12    1
    23    26    27    1
    24    26    29    1
    25    29    30    1
    26    12    13    1
    27    18    13    2
    28    18    17    1
    29    13    14    1
    30    17    16    2
    31    30    35    2
    32    30    31    1
    33    14    15    2
    34    16    15    1
    35    35    34    1
    36    31    32    2
    37    34    33    2
    38    32    33    1
    39    33    36    1
    40    36    38    1
    41    36    37    1
