@<TRIPOS>MOLECULE
3018_out_ligand_01.pdbqt
 29 31 0 0 0
SMALL
GASTEIGER

@<TRIPOS>ATOM
      1  N         19.9360  -22.9210   -8.6860 N.am    1  UNL1       -0.3480
      2  C         20.8630  -23.8510   -9.1030 C.2     1  UNL1        0.2530
      3  O         20.7640  -25.0560   -8.9120 O.2     1  UNL1       -0.2680
      4  H         20.1620  -21.9380   -8.7110 H       1  UNL1        0.1630
      5  C         18.7750  -23.2960   -7.8700 C.3     1  UNL1        0.1190
      6  C         18.6840  -22.5160   -6.5670 C.2     1  UNL1       -0.0290
      7  C         19.5260  -21.4060   -6.3240 C.2     1  UNL1        0.0100
      8  C         17.7620  -22.8800   -5.5610 C.2     1  UNL1       -0.0500
      9  C         19.4760  -20.6880   -5.1290 C.2     1  UNL1        0.0010
     10  C         18.5840  -21.0620   -4.1380 C.2     1  UNL1        0.0010
     11  C         17.7400  -22.1470   -4.3530 C.2     1  UNL1        0.0070
     12  C         16.7730  -24.0230   -5.6450 C.3     1  UNL1        0.0400
     13  C         16.4090  -24.6610   -6.9900 C.3     1  UNL1        0.0130
     14  C         16.1830  -23.7020   -8.1800 C.3     1  UNL1       -0.0450
     15  C         15.2160  -22.5600   -7.8050 C.3     1  UNL1        0.0150
     16  C         15.5050  -24.5120   -9.3120 C.3     1  UNL1        0.0150
     17  C         17.5130  -23.1160   -8.7370 C.3     1  UNL1        0.0380
     18  C         22.0590  -23.3260   -9.8040 C.2     1  UNL1        0.0490
     19  C         21.9980  -22.6300  -11.0190 C.2     1  UNL1        0.0210
     20  C         23.1760  -22.1740  -11.6090 C.2     1  UNL1        0.0460
     21  C         24.3640  -22.4500  -10.9510 C.2     1  UNL1        0.1660
     22  N         24.4830  -23.1300   -9.7730 N.2     1  UNL1       -0.2470
     23  C         23.3130  -23.5590   -9.2370 C.2     1  UNL1        0.1350
     24  S         25.9180  -21.8840  -11.6280 S.O2    1  UNL1        0.2560
     25  O         26.9760  -22.6510  -11.0100 O.2     1  UNL1       -0.2050
     26  O         25.7640  -21.7730  -13.0600 O.2     1  UNL1       -0.2050
     27  N         26.0460  -20.3170  -10.9920 N.3     1  UNL1       -0.2240
     28  H         26.9790  -19.9610  -11.2040 H       1  UNL1        0.1360
     29  H         25.9140  -20.3740   -9.9740 H       1  UNL1        0.1360
@<TRIPOS>BOND
     1    26    24    2
     2    24    25    2
     3    24    27    1
     4    24    21    1
     5    20    19    1
     6    20    21    2
     7    28    27    1
     8    19    18    2
     9    27    29    1
    10    21    22    1
    11    18    23    1
    12    18     2    1
    13    22    23    2
    14    16    14    1
    15     2     3    2
    16     2     1   am
    17    17    14    1
    18    17     5    1
    19     4     1    1
    20     1     5    1
    21    14    15    1
    22    14    13    1
    23     5     6    1
    24    13    12    1
    25     6     7    2
    26     6     8    1
    27     7     9    1
    28    12     8    1
    29     8    11    2
    30     9    10    2
    31    11    10    1
