@<TRIPOS>MOLECULE
30184_out_ligand_01.pdbqt
 34 38 0 0 0
SMALL
GASTEIGER

@<TRIPOS>ATOM
      1  N         17.1770  -23.7230   -7.1580 N.ar    1  UNL1       -0.3040
      2  C         16.2670  -23.1340   -8.0000 C.ar    1  UNL1        0.1710
      3  N         15.2870  -22.5490   -7.3470 N.ar    1  UNL1       -0.2210
      4  C         15.5740  -22.7520   -6.0250 C.ar    1  UNL1        0.1050
      5  C         14.8980  -22.3550   -4.8660 C.2     1  UNL1        0.0370
      6  C         15.4590  -22.7280   -3.6420 C.2     1  UNL1        0.0220
      7  C         16.6420  -23.4600   -3.6340 C.2     1  UNL1        0.1190
      8  N         17.3350  -23.8660   -4.7270 N.2     1  UNL1       -0.2410
      9  C         16.7460  -23.4820   -5.8770 C.ar    1  UNL1        0.1610
     10  S         16.3930  -23.1660   -9.7280 S.3     1  UNL1       -0.0870
     11  C         17.0680  -21.5070  -10.0330 C.3     1  UNL1        0.1210
     12  C         18.3880  -21.5100  -10.7650 C.2     1  UNL1       -0.0480
     13  C         19.1720  -22.6710  -10.8300 C.2     1  UNL1        0.0090
     14  C         20.3900  -22.6710  -11.5170 C.2     1  UNL1        0.0170
     15  C         20.8430  -21.5040  -12.1440 C.2     1  UNL1        0.0320
     16  C         20.0570  -20.3480  -12.0970 C.2     1  UNL1        0.0170
     17  C         18.8400  -20.3500  -11.4110 C.2     1  UNL1        0.0090
     18  C         22.1290  -21.4560  -12.8920 C.2     1  UNL1        0.2520
     19  O         22.2240  -20.7950  -13.9200 O.2     1  UNL1       -0.2680
     20  N         23.1850  -22.1520  -12.3370 N.am    1  UNL1       -0.3520
     21  H         23.1070  -22.4420  -11.3730 H       1  UNL1        0.1630
     22  C         24.5170  -22.0670  -12.9160 C.3     1  UNL1        0.0840
     23  C         25.3360  -23.3210  -12.6210 C.3     1  UNL1        0.0250
     24  C         25.9280  -23.0950  -11.2310 C.3     1  UNL1        0.0020
     25  C         25.8690  -21.5890  -10.9770 C.3     1  UNL1        0.0020
     26  C         25.3510  -20.9650  -12.2680 C.3     1  UNL1        0.0250
     27  C         18.3590  -24.4940   -7.4980 C.3     1  UNL1        0.1710
     28  C         19.5860  -23.6250   -7.6420 C.2     1  UNL1       -0.0390
     29  C         19.6230  -22.3380   -7.0880 C.2     1  UNL1        0.0090
     30  C         20.7520  -21.5340   -7.2420 C.2     1  UNL1        0.0010
     31  C         21.8620  -22.0110   -7.9370 C.2     1  UNL1        0.0070
     32  C         21.8600  -23.3040   -8.4720 C.2     1  UNL1       -0.0610
     33  C         23.0440  -23.8090   -9.2410 C.3     1  UNL1        0.0480
     34  C         20.7160  -24.1000   -8.3250 C.2     1  UNL1        0.0150
@<TRIPOS>BOND
     1    19    18    2
     2    22    23    1
     3    22    20    1
     4    22    26    1
     5    18    20   am
     6    18    15    1
     7    23    24    1
     8    20    21    1
     9    26    25    1
    10    15    16    2
    11    15    14    1
    12    16    17    1
    13    14    13    2
    14    17    12    2
    15    24    25    1
    16    13    12    1
    17    12    11    1
    18    11    10    1
    19    10     2    1
    20    33    32    1
    21    32    34    1
    22    32    31    2
    23    34    28    2
    24     2     3   ar
    25     2     1   ar
    26    31    30    1
    27    28    27    1
    28    28    29    1
    29    27     1    1
    30     3     4   ar
    31    30    29    2
    32     1     9   ar
    33     4     9   ar
    34     4     5    1
    35     9     8    1
    36     5     6    2
    37     8     7    2
    38     6     7    1
