@<TRIPOS>MOLECULE
30182_out_ligand_01.pdbqt
 31 34 0 0 0
SMALL
GASTEIGER

@<TRIPOS>ATOM
      1  C         24.8460  -21.8120  -13.4210 C.2     1  UNL1        0.0690
      2  C         24.8350  -22.8890  -12.5350 C.2     1  UNL1        0.0390
      3  C         23.6740  -23.2400  -11.8290 C.2     1  UNL1        0.0330
      4  C         22.5260  -22.4710  -12.0470 C.2     1  UNL1        0.0430
      5  N         21.2670  -22.5770  -11.5030 N.pl3   1  UNL1       -0.3520
      6  C         20.4420  -21.6040  -12.0100 C.2     1  UNL1        0.0890
      7  C         19.0800  -21.4860  -11.6110 C.2     1  UNL1        0.2230
      8  N         18.5020  -22.3080  -10.7550 N.2     1  UNL1       -0.2030
      9  C         17.2280  -21.8050  -10.6770 C.2     1  UNL1        0.1580
     10  N         17.0000  -20.7240  -11.4330 N.4     1  UNL1       -0.1110
     11  O         18.2280  -20.5130  -12.0620 O.2     1  UNL1       -0.1890
     12  C         21.1840  -20.8530  -12.8990 C.2     1  UNL1        0.0480
     13  C         22.5020  -21.3900  -12.9270 C.2     1  UNL1       -0.0040
     14  C         23.6800  -21.0590  -13.6230 C.2     1  UNL1        0.0500
     15  H         20.9790  -23.2690  -10.8250 H       1  UNL1        0.1660
     16  C         16.1960  -22.4000   -9.7950 C.3     1  UNL1        0.1030
     17  C         16.5390  -22.2810   -8.3060 C.3     1  UNL1        0.1330
     18  N         16.5980  -23.5690   -7.5930 N.am    1  UNL1       -0.3520
     19  C         15.3310  -24.1400   -7.1580 C.3     1  UNL1        0.1520
     20  C         17.7470  -24.0490   -6.9560 C.2     1  UNL1        0.2530
     21  O         17.7360  -24.8970   -6.0690 O.2     1  UNL1       -0.2670
     22  C         19.0630  -23.5170   -7.3620 C.2     1  UNL1        0.0350
     23  C         19.4770  -22.2770   -6.8670 C.2     1  UNL1        0.0180
     24  C         20.7260  -21.7670   -7.2290 C.2     1  UNL1        0.0110
     25  C         21.5690  -22.5010   -8.0730 C.2     1  UNL1       -0.0230
     26  C         22.9300  -21.9850   -8.4300 C.3     1  UNL1        0.0510
     27  C         21.1500  -23.7610   -8.5170 C.2     1  UNL1        0.1230
     28  F         21.9590  -24.4980   -9.2940 F       1  UNL1       -0.2060
     29  C         19.9070  -24.2760   -8.1720 C.2     1  UNL1        0.0590
     30  O         25.9220  -21.3880  -14.1560 O.2     1  UNL1       -0.3560
     31  C         25.8670  -20.0640  -14.6730 C.3     1  UNL1        0.2100
@<TRIPOS>BOND
     1    31    30    1
     2    30     1    1
     3    14     1    2
     4    14    13    1
     5     1     2    1
     6    13    12    1
     7    13     4    2
     8    12     6    2
     9     2     3    2
    10    11     7    1
    11    11    10    1
    12     4     3    1
    13     4     5    1
    14     6     7    1
    15     6     5    1
    16     7     8    2
    17     5    15    1
    18    10     9    1
    19     8     9    2
    20     9    16    1
    21    16    17    1
    22    28    27    1
    23    27    29    1
    24    27    25    2
    25    26    25    1
    26    17    18    1
    27    29    22    2
    28    25    24    1
    29    18    19    1
    30    18    20   am
    31    22    20    1
    32    22    23    1
    33    24    23    2
    34    20    21    2
