@<TRIPOS>MOLECULE
30197_out_ligand_01.pdbqt
 37 41 0 0 0
SMALL
GASTEIGER

@<TRIPOS>ATOM
      1  C         16.5390  -21.6840   -9.9440 C.3     1  UNL1        0.1210
      2  C         17.8660  -21.6360  -10.6620 C.2     1  UNL1       -0.0480
      3  C         18.6030  -22.8160  -10.8530 C.2     1  UNL1        0.0090
      4  C         19.8630  -22.7780  -11.4540 C.2     1  UNL1        0.0170
      5  C         20.4080  -21.5580  -11.8660 C.2     1  UNL1        0.0320
      6  C         19.6620  -20.3800  -11.7230 C.2     1  UNL1        0.0170
      7  C         18.4020  -20.4200  -11.1200 C.2     1  UNL1        0.0090
      8  C         21.7760  -21.5630  -12.4530 C.2     1  UNL1        0.2510
      9  O         22.0090  -20.9480  -13.4860 O.2     1  UNL1       -0.2680
     10  N         22.7190  -22.3280  -11.7960 N.am    1  UNL1       -0.3570
     11  H         22.4270  -22.9440  -11.0490 H       1  UNL1        0.1620
     12  C         24.0430  -22.5320  -12.3590 C.3     1  UNL1        0.1270
     13  C         25.0690  -21.5650  -11.7580 C.3     1  UNL1        0.0530
     14  C         25.6980  -20.6600  -12.7920 C.2     1  UNL1       -0.0820
     15  C         26.4840  -19.6200  -12.4500 C.2     1  UNL1       -0.0240
     16  C         27.1200  -18.6950  -13.4480 C.3     1  UNL1        0.0270
     17  C         26.5570  -18.8490  -14.8620 C.3     1  UNL1        0.0040
     18  C         26.3830  -20.3200  -15.2180 C.3     1  UNL1        0.0050
     19  C         25.4250  -21.0080  -14.2380 C.3     1  UNL1        0.0340
     20  S         16.0050  -23.3380   -9.4340 S.3     1  UNL1       -0.0870
     21  C         16.1320  -23.2150   -7.7100 C.ar    1  UNL1        0.1700
     22  N         15.2470  -22.6200   -6.9470 N.ar    1  UNL1       -0.2220
     23  C         15.7470  -22.6980   -5.6740 C.ar    1  UNL1        0.0890
     24  C         15.2130  -22.2040   -4.4840 C.2     1  UNL1        0.0530
     25  C         16.9560  -23.3870   -5.6590 C.ar    1  UNL1        0.0830
     26  C         15.9610  -22.4500   -3.3450 C.2     1  UNL1        0.1180
     27  N         17.1350  -23.1270   -3.3220 N.2     1  UNL1       -0.2710
     28  C         17.6510  -23.6080   -4.4790 C.2     1  UNL1        0.1480
     29  N         17.1850  -23.7180   -6.9820 N.ar    1  UNL1       -0.3180
     30  C         18.2790  -24.5540   -7.4580 C.3     1  UNL1        0.1730
     31  C         19.5380  -23.7720   -7.7180 C.2     1  UNL1       -0.0010
     32  C         19.6870  -22.4470   -7.2810 C.2     1  UNL1        0.0120
     33  C         20.8630  -21.7420   -7.5540 C.2     1  UNL1        0.0010
     34  C         21.8990  -22.3480   -8.2680 C.2     1  UNL1        0.0030
     35  C         21.7610  -23.6630   -8.7100 C.2     1  UNL1        0.0430
     36  C         20.5870  -24.3580   -8.4360 C.2     1  UNL1        0.1240
     37  F         20.4730  -25.6240   -8.8690 F       1  UNL1       -0.2050
@<TRIPOS>BOND
     1    18    17    1
     2    18    19    1
     3    17    16    1
     4    19    14    1
     5     9     8    2
     6    16    15    1
     7    14    15    2
     8    14    13    1
     9     8     5    1
    10     8    10   am
    11    12    10    1
    12    12    13    1
    13     5     6    2
    14     5     4    1
    15    10    11    1
    16     6     7    1
    17     4     3    2
    18     7     2    2
    19     3     2    1
    20     2     1    1
    21     1    20    1
    22    20    21    1
    23    37    36    1
    24    35    36    1
    25    35    34    2
    26    36    31    2
    27    34    33    1
    28    31    30    1
    29    31    32    1
    30    21    29   ar
    31    21    22   ar
    32    33    32    2
    33    30    29    1
    34    29    25   ar
    35    22    23   ar
    36    23    25   ar
    37    23    24    1
    38    25    28    1
    39    24    26    2
    40    28    27    2
    41    26    27    1
