@<TRIPOS>MOLECULE
30243_out_ligand_01.pdbqt
 34 37 0 0 0
SMALL
GASTEIGER

@<TRIPOS>ATOM
      1  C         22.8140  -22.1370  -11.7830 C.2     1  UNL1        0.0810
      2  C         22.5730  -23.0150  -10.7950 C.2     1  UNL1        0.1130
      3  N         21.3340  -23.2780  -10.2350 N.pl3   1  UNL1       -0.3310
      4  C         20.1840  -22.6110  -10.7120 C.2     1  UNL1        0.1440
      5  N         18.9580  -22.9320  -10.2210 N.2     1  UNL1       -0.2350
      6  C         17.8720  -22.2680  -10.6970 C.2     1  UNL1        0.0330
      7  C         16.5330  -22.6500  -10.1380 C.3     1  UNL1        0.0700
      8  C         17.9610  -21.2590  -11.6500 C.2     1  UNL1        0.0280
      9  C         19.2090  -20.9370  -12.1580 C.2     1  UNL1        0.0210
     10  C         20.3290  -21.6250  -11.6950 C.2     1  UNL1        0.0610
     11  C         21.6710  -21.3070  -12.2340 C.2     1  UNL1        0.2010
     12  O         21.8120  -20.3780  -13.0230 O.2     1  UNL1       -0.2860
     13  C         21.1460  -24.1600   -9.0740 C.3     1  UNL1        0.2330
     14  C         20.3710  -23.4510   -7.9530 C.2     1  UNL1        0.2400
     15  O         20.8120  -22.4400   -7.4170 O.2     1  UNL1       -0.2710
     16  N         19.1730  -24.0830   -7.6590 N.am    1  UNL1       -0.3260
     17  H         18.8960  -24.8040   -8.3240 H       1  UNL1        0.1690
     18  C         18.2070  -23.7260   -6.7020 C.2     1  UNL1        0.0350
     19  C         16.9220  -24.2570   -6.6520 C.2     1  UNL1        0.0300
     20  C         16.0320  -23.8630   -5.6480 C.2     1  UNL1        0.0090
     21  C         16.4090  -22.9220   -4.6750 C.2     1  UNL1       -0.0560
     22  C         15.4240  -22.5330   -3.6150 C.3     1  UNL1        0.0490
     23  C         17.6930  -22.3480   -4.7380 C.2     1  UNL1       -0.0540
     24  C         18.1400  -21.3020   -3.7530 C.3     1  UNL1        0.0490
     25  C         18.5840  -22.7780   -5.7410 C.2     1  UNL1        0.0370
     26  C         24.2040  -22.0360  -12.3080 C.2     1  UNL1        0.1970
     27  O         25.1510  -21.7810  -11.5580 O.2     1  UNL1       -0.2860
     28  C         24.4690  -22.2930  -13.7490 C.2     1  UNL1        0.0150
     29  C         24.3590  -21.2240  -14.6460 C.2     1  UNL1        0.0160
     30  C         24.6000  -21.4220  -16.0070 C.2     1  UNL1        0.0070
     31  C         24.9580  -22.6870  -16.4870 C.2     1  UNL1       -0.0620
     32  C         25.2160  -22.9110  -17.9440 C.3     1  UNL1        0.0480
     33  C         25.1130  -23.7420  -15.5780 C.2     1  UNL1        0.0070
     34  C         24.8800  -23.5470  -14.2150 C.2     1  UNL1        0.0160
@<TRIPOS>BOND
     1    32    31    1
     2    31    30    2
     3    31    33    1
     4    30    29    1
     5    33    34    2
     6    29    28    2
     7    34    28    1
     8    28    26    1
     9    12    11    2
    10    26     1    1
    11    26    27    2
    12    11     1    1
    13    11    10    1
    14     9    10    1
    15     9     8    2
    16     1     2    2
    17    10     4    2
    18     8     6    1
    19     2     3    1
    20     4     3    1
    21     4     5    1
    22     6     5    2
    23     6     7    1
    24     3    13    1
    25    13    14    1
    26    17    16    1
    27    14    16   am
    28    14    15    2
    29    16    18    1
    30    18    19    2
    31    18    25    1
    32    19    20    1
    33    25    23    2
    34    20    21    2
    35    23    21    1
    36    23    24    1
    37    21    22    1
