@<TRIPOS>MOLECULE
30251_out_ligand_01.pdbqt
 31 34 0 0 0
SMALL
GASTEIGER

@<TRIPOS>ATOM
      1  C         17.6310  -22.9600   -8.5450 C.3     1  UNL1        0.1690
      2  C         19.0960  -22.5370   -8.4460 C.3     1  UNL1        0.0770
      3  C         19.5760  -22.1950   -9.8270 C.2     1  UNL1       -0.0380
      4  C         20.9120  -22.3840  -10.2040 C.2     1  UNL1        0.0250
      5  C         21.3400  -22.0330  -11.4930 C.2     1  UNL1        0.0320
      6  C         20.4230  -21.5060  -12.4120 C.2     1  UNL1        0.0180
      7  C         19.0930  -21.3020  -12.0310 C.2     1  UNL1        0.0190
      8  C         18.6700  -21.6430  -10.7410 C.2     1  UNL1        0.0450
      9  C         17.2600  -21.3820  -10.3440 C.2     1  UNL1        0.2940
     10  O         16.5280  -20.6910  -11.0380 O.2     1  UNL1       -0.2590
     11  O         16.8480  -21.9180   -9.1670 O.3     1  UNL1       -0.3070
     12  C         22.7680  -22.2680  -11.8530 C.2     1  UNL1        0.2560
     13  O         23.4200  -23.0350  -11.1560 O.2     1  UNL1       -0.2670
     14  N         23.2270  -21.5430  -12.9380 N.am    1  UNL1       -0.3230
     15  H         22.6070  -20.8370  -13.3130 H       1  UNL1        0.1690
     16  C         24.5120  -21.6020  -13.5200 C.2     1  UNL1        0.0370
     17  C         25.4300  -20.6140  -13.1320 C.2     1  UNL1        0.0290
     18  C         26.7260  -20.5880  -13.6550 C.2     1  UNL1        0.0050
     19  C         27.1210  -21.5530  -14.5790 C.2     1  UNL1        0.0360
     20  C         26.2070  -22.5360  -14.9760 C.2     1  UNL1        0.1050
     21  C         24.9040  -22.5650  -14.4520 C.2     1  UNL1        0.0650
     22  N         26.6210  -23.5470  -15.9570 N.pl3   1  UNL1       -0.1160
     23  O         26.4990  -23.2760  -17.1590 O.2     1  UNL1       -0.5320
     24  O         27.0760  -24.6150  -15.5220 O.2     1  UNL1       -0.5320
     25  C         17.0680  -23.2700   -7.1720 C.2     1  UNL1       -0.0290
     26  C         15.7070  -23.5490   -6.9820 C.2     1  UNL1        0.0100
     27  C         15.2030  -23.8030   -5.7040 C.2     1  UNL1        0.0070
     28  C         16.0490  -23.7880   -4.5900 C.2     1  UNL1       -0.0620
     29  C         15.5010  -24.0290   -3.2150 C.3     1  UNL1        0.0480
     30  C         17.4040  -23.4890   -4.7720 C.2     1  UNL1        0.0070
     31  C         17.9080  -23.2360   -6.0490 C.2     1  UNL1        0.0100
@<TRIPOS>BOND
     1    23    22    2
     2    22    24    2
     3    22    20    1
     4    20    19    2
     5    20    21    1
     6    19    18    1
     7    21    16    2
     8    18    17    2
     9    16    17    1
    10    16    14    1
    11    15    14    1
    12    14    12   am
    13     6     7    2
    14     6     5    1
    15     7     8    1
    16    12     5    1
    17    12    13    2
    18     5     4    2
    19    10     9    2
    20     8     9    1
    21     8     3    2
    22     9    11    1
    23     4     3    1
    24     3     2    1
    25    11     1    1
    26     1     2    1
    27     1    25    1
    28    25    26    2
    29    25    31    1
    30    26    27    1
    31    31    30    2
    32    27    28    2
    33    30    28    1
    34    28    29    1
