@<TRIPOS>MOLECULE
3027_out_ligand_01.pdbqt
 27 30 0 0 0
SMALL
GASTEIGER

@<TRIPOS>ATOM
      1  C         17.5400  -22.3110  -10.1580 C.3     1  UNL1        0.1760
      2  N         18.9450  -22.6310  -10.1160 N.ar    1  UNL1       -0.1770
      3  C         19.5890  -23.4910   -9.2470 C.ar    1  UNL1        0.7050
      4  N         20.8710  -23.5870   -9.5430 N.ar    1  UNL1       -0.0440
      5  C         21.0550  -22.7490  -10.5960 C.ar    1  UNL1        0.1850
      6  C         19.8950  -22.1360  -10.9680 C.ar    1  UNL1        0.1660
      7  C         19.8310  -21.2020  -12.0350 C.ar    1  UNL1        0.2800
      8  O         18.8220  -20.6090  -12.3970 O.2     1  UNL1       -0.2650
      9  N         21.0530  -21.0140  -12.6420 N.ar    1  UNL1       -0.2730
     10  C         22.2580  -21.6070  -12.3080 C.ar    1  UNL1        0.3300
     11  O         23.2640  -21.3150  -12.9530 O.2     1  UNL1       -0.2460
     12  N         22.2480  -22.5060  -11.2460 N.ar    1  UNL1       -0.2860
     13  C         23.4640  -23.1750  -10.8290 C.3     1  UNL1        0.1630
     14  H         21.0820  -20.3610  -13.4080 H       1  UNL1        0.1730
     15  N         18.9380  -24.1200   -8.2470 N.pl3   1  UNL1       -0.2150
     16  H         18.9670  -25.1310   -8.1670 H       1  UNL1        0.1780
     17  C         17.7050  -23.5310   -7.7250 C.3     1  UNL1        0.1370
     18  C         16.7280  -24.6430   -7.3410 C.3     1  UNL1        0.0570
     19  C         15.6270  -24.0460   -6.4900 C.3     1  UNL1        0.1780
     20  O         16.1410  -23.5560   -5.2500 O.2     1  UNL1       -0.3470
     21  C         17.2230  -22.7240   -5.3740 C.2     1  UNL1        0.1150
     22  C         17.5350  -21.9270   -4.2690 C.2     1  UNL1        0.1500
     23  C         18.0200  -22.6640   -6.5240 C.2     1  UNL1        0.0020
     24  F         16.7910  -21.9960   -3.1550 F       1  UNL1       -0.2030
     25  C         18.6070  -21.0410   -4.3030 C.2     1  UNL1        0.0450
     26  C         19.3820  -20.9440   -5.4550 C.2     1  UNL1        0.0040
     27  C         19.0880  -21.7470   -6.5600 C.2     1  UNL1        0.0120
@<TRIPOS>BOND
     1    14     9    1
     2    11    10    2
     3     9    10   ar
     4     9     7   ar
     5     8     7    2
     6    10    12   ar
     7     7     6   ar
     8    12    13    1
     9    12     5   ar
    10     6     5   ar
    11     6     2   ar
    12     5     4   ar
    13     1     2    1
    14     2     3   ar
    15     4     3   ar
    16     3    15    1
    17    15    16    1
    18    15    17    1
    19    17    18    1
    20    17    23    1
    21    18    19    1
    22    27    23    1
    23    27    26    2
    24    23    21    2
    25    19    20    1
    26    26    25    1
    27    21    20    1
    28    21    22    1
    29    25    22    2
    30    22    24    1
