@<TRIPOS>MOLECULE
30285_out_ligand_01.pdbqt
 33 36 0 0 0
SMALL
GASTEIGER

@<TRIPOS>ATOM
      1  N         20.8560  -23.8180   -9.2270 N.ar    1  UNL1       -0.2080
      2  N         19.9020  -24.1150   -8.2670 N.ar    1  UNL1       -0.1460
      3  C         18.8390  -23.4960   -8.7000 C.ar    1  UNL1        0.1940
      4  C         17.4500  -23.4120   -8.1450 C.2     1  UNL1        0.1460
      5  N         16.4890  -22.7350   -8.6980 N.2     1  UNL1       -0.2480
      6  C         16.8040  -22.0720   -9.8680 C.2     1  UNL1        0.1360
      7  C         18.0170  -22.0820  -10.4450 C.2     1  UNL1        0.1230
      8  N         19.0120  -22.7940   -9.8510 N.ar    1  UNL1       -0.2520
      9  C         20.3200  -22.9710  -10.2060 C.ar    1  UNL1        0.3510
     10  O         20.9210  -22.5220  -11.1720 O.2     1  UNL1       -0.2440
     11  C         22.2510  -24.1810   -9.0850 C.3     1  UNL1        0.2590
     12  C         23.1910  -23.0760   -9.5740 C.2     1  UNL1        0.2420
     13  O         23.2540  -22.0010   -8.9800 O.2     1  UNL1       -0.2710
     14  N         23.8320  -23.3790  -10.7670 N.am    1  UNL1       -0.3260
     15  H         23.6130  -24.2810  -11.1860 H       1  UNL1        0.1690
     16  C         24.7400  -22.5790  -11.4890 C.2     1  UNL1        0.0350
     17  C         26.0590  -22.5360  -11.0170 C.2     1  UNL1        0.0290
     18  C         27.0250  -21.7660  -11.6660 C.2     1  UNL1        0.0030
     19  C         26.6830  -21.0300  -12.7980 C.2     1  UNL1        0.0160
     20  C         25.3710  -21.0620  -13.2910 C.2     1  UNL1        0.0500
     21  C         24.4050  -21.8370  -12.6220 C.2     1  UNL1        0.0450
     22  C         24.9800  -20.2580  -14.5070 C.3     1  UNL1        0.4170
     23  F         25.5170  -20.7380  -15.6650 F       1  UNL1       -0.1660
     24  F         23.6340  -20.2230  -14.7140 F       1  UNL1       -0.1660
     25  F         25.3830  -18.9600  -14.4240 F       1  UNL1       -0.1660
     26  S         17.3780  -24.3330   -6.6880 S.3     1  UNL1       -0.0670
     27  C         17.8200  -23.1180   -5.4660 C.2     1  UNL1        0.0100
     28  C         17.5220  -23.3320   -4.1130 C.2     1  UNL1        0.0190
     29  C         17.8620  -22.3740   -3.1540 C.2     1  UNL1        0.0040
     30  C         18.4940  -21.1960   -3.5450 C.2     1  UNL1        0.0420
     31  C         18.7770  -20.9850   -4.8890 C.2     1  UNL1        0.1170
     32  F         19.3830  -19.8500   -5.2640 F       1  UNL1       -0.2060
     33  C         18.4450  -21.9310   -5.8540 C.2     1  UNL1        0.0610
@<TRIPOS>BOND
     1    23    22    1
     2    24    22    1
     3    22    25    1
     4    22    20    1
     5    20    19    2
     6    20    21    1
     7    19    18    1
     8    21    16    2
     9    18    17    2
    10    16    17    1
    11    16    14    1
    12    15    14    1
    13    10     9    2
    14    14    12   am
    15     7     6    2
    16     7     8    1
    17     9     8   ar
    18     9     1   ar
    19     6     5    1
    20     8     3   ar
    21    12    11    1
    22    12    13    2
    23     1    11    1
    24     1     2   ar
    25     3     2   ar
    26     3     4    1
    27     5     4    2
    28     4    26    1
    29    26    27    1
    30    33    27    2
    31    33    31    1
    32    27    28    1
    33    32    31    1
    34    31    30    2
    35    28    29    2
    36    30    29    1
