@<TRIPOS>MOLECULE
30282_out_ligand_01.pdbqt
 34 37 0 0 0
SMALL
GASTEIGER

@<TRIPOS>ATOM
      1  N         19.7830  -23.7300   -9.5160 N.am    1  UNL1       -0.3050
      2  C         20.9220  -24.4050   -9.0980 C.2     1  UNL1        0.2490
      3  O         20.8970  -25.4270   -8.4070 O.2     1  UNL1       -0.2680
      4  C         22.2310  -23.8710   -9.5150 C.2     1  UNL1        0.0920
      5  C         22.3260  -22.8050  -10.3170 C.2     1  UNL1        0.0490
      6  C         21.1170  -22.1240  -10.7930 C.2     1  UNL1        0.0070
      7  C         21.1950  -21.0120  -11.6490 C.2     1  UNL1        0.0150
      8  C         20.0390  -20.4060  -12.1410 C.2     1  UNL1        0.0010
      9  C         18.7920  -20.9130  -11.7930 C.2     1  UNL1        0.0020
     10  C         18.6980  -22.0120  -10.9350 C.2     1  UNL1        0.0300
     11  C         19.8500  -22.6190  -10.4110 C.2     1  UNL1        0.0490
     12  C         18.5170  -24.2500   -9.0280 C.3     1  UNL1        0.2350
     13  C         18.0290  -23.4330   -7.8270 C.2     1  UNL1        0.2400
     14  O         18.7530  -22.5980   -7.2950 O.2     1  UNL1       -0.2710
     15  N         16.7210  -23.7160   -7.4810 N.am    1  UNL1       -0.3260
     16  H         16.2040  -24.3030   -8.1310 H       1  UNL1        0.1690
     17  C         16.0100  -23.2420   -6.3600 C.2     1  UNL1        0.0370
     18  C         16.3990  -23.7270   -5.0990 C.2     1  UNL1        0.0290
     19  C         15.7810  -23.2650   -3.9240 C.2     1  UNL1        0.0050
     20  C         14.7620  -22.3210   -4.0070 C.2     1  UNL1        0.0420
     21  C         14.3640  -21.8580   -5.2580 C.2     1  UNL1        0.1180
     22  F         13.3760  -20.9560   -5.3390 F       1  UNL1       -0.2060
     23  C         14.9760  -22.3060   -6.4300 C.2     1  UNL1        0.0710
     24  C         23.7080  -22.3550  -10.6580 C.2     1  UNL1        0.2530
     25  O         24.1770  -21.3090  -10.2330 O.2     1  UNL1       -0.2680
     26  N         24.3570  -23.1830  -11.5330 N.am    1  UNL1       -0.3530
     27  H         23.8520  -23.9480  -11.9640 H       1  UNL1        0.1630
     28  C         25.5980  -22.7660  -12.1510 C.3     1  UNL1        0.1610
     29  C         25.3870  -22.4680  -13.6100 C.2     1  UNL1       -0.0410
     30  C         25.6570  -23.4320  -14.5880 C.2     1  UNL1        0.0090
     31  C         25.4010  -23.1610  -15.9280 C.2     1  UNL1        0.0010
     32  C         24.8520  -21.9290  -16.3080 C.2     1  UNL1        0.0000
     33  C         24.5480  -20.9720  -15.3460 C.2     1  UNL1        0.0010
     34  C         24.8280  -21.2350  -14.0040 C.2     1  UNL1        0.0090
@<TRIPOS>BOND
     1    32    31    2
     2    32    33    1
     3    31    30    1
     4    33    34    2
     5    30    29    2
     6    34    29    1
     7    29    28    1
     8    28    26    1
     9     8     9    2
    10     8     7    1
    11    27    26    1
    12     9    10    1
    13     7     6    2
    14    26    24   am
    15    10    11    2
    16     6    11    1
    17     6     5    1
    18    24     5    1
    19    24    25    2
    20    11     1    1
    21     5     4    2
    22     1     2   am
    23     1    12    1
    24     4     2    1
    25     2     3    2
    26    12    13    1
    27    16    15    1
    28    13    15   am
    29    13    14    2
    30    15    17    1
    31    23    17    2
    32    23    21    1
    33    17    18    1
    34    22    21    1
    35    21    20    2
    36    18    19    2
    37    20    19    1
