@<TRIPOS>MOLECULE
30295_out_ligand_01.pdbqt
 36 40 0 0 0
SMALL
GASTEIGER

@<TRIPOS>ATOM
      1  C         21.6880  -22.9740   -8.7810 C.2     1  UNL1        0.0320
      2  C         20.7820  -22.2550   -7.9950 C.2     1  UNL1        0.0170
      3  C         19.6450  -22.8890   -7.4780 C.2     1  UNL1        0.0100
      4  C         19.3880  -24.2430   -7.7510 C.2     1  UNL1       -0.0400
      5  C         20.2860  -24.9470   -8.5640 C.2     1  UNL1        0.0100
      6  C         21.4240  -24.3200   -9.0730 C.2     1  UNL1        0.0170
      7  C         18.1690  -24.9230   -7.1760 C.3     1  UNL1        0.1710
      8  N         17.1480  -23.9760   -6.7640 N.ar    1  UNL1       -0.3040
      9  C         16.1820  -23.3650   -7.5300 C.ar    1  UNL1        0.1710
     10  N         15.3830  -22.6100   -6.8080 N.ar    1  UNL1       -0.2210
     11  C         15.8360  -22.7370   -5.5230 C.ar    1  UNL1        0.1050
     12  C         15.3800  -22.1720   -4.3260 C.2     1  UNL1        0.0370
     13  C         16.9290  -23.5920   -5.4640 C.ar    1  UNL1        0.1610
     14  C         16.0670  -22.5140   -3.1580 C.2     1  UNL1        0.0220
     15  C         17.1510  -23.3870   -3.2360 C.2     1  UNL1        0.1190
     16  N         17.6260  -23.9640   -4.3670 N.2     1  UNL1       -0.2410
     17  S         16.0340  -23.6210   -9.2390 S.3     1  UNL1       -0.0870
     18  C         16.2480  -21.9370   -9.8890 C.3     1  UNL1        0.1210
     19  C         17.5720  -21.7440  -10.5950 C.2     1  UNL1       -0.0490
     20  C         18.0050  -20.4600  -10.9670 C.2     1  UNL1        0.0080
     21  C         19.2260  -20.2790  -11.6230 C.2     1  UNL1        0.0010
     22  C         20.0360  -21.3780  -11.9110 C.2     1  UNL1        0.0000
     23  C         19.6250  -22.6580  -11.5380 C.2     1  UNL1        0.0010
     24  C         18.4000  -22.8430  -10.8810 C.2     1  UNL1        0.0080
     25  C         22.9260  -22.3520   -9.3360 C.2     1  UNL1        0.2510
     26  O         23.1520  -21.1590   -9.1490 O.2     1  UNL1       -0.2680
     27  N         23.7380  -23.1720  -10.0900 N.am    1  UNL1       -0.3570
     28  H         23.4340  -24.1070  -10.3130 H       1  UNL1        0.1620
     29  C         24.9950  -22.7180  -10.6750 C.3     1  UNL1        0.1290
     30  C         25.2210  -23.2440  -12.0960 C.3     1  UNL1        0.0800
     31  C         24.5310  -22.4980  -13.1890 C.2     1  UNL1        0.0520
     32  C         24.6890  -22.5510  -14.5620 C.2     1  UNL1        0.1160
     33  N         23.7720  -21.6670  -15.0670 N.pl3   1  UNL1       -0.3590
     34  C         23.1170  -21.1050  -14.0120 C.2     1  UNL1        0.2070
     35  H         23.6020  -21.4730  -16.0470 H       1  UNL1        0.1660
     36  N         23.5540  -21.5790  -12.8670 N.2     1  UNL1       -0.2470
@<TRIPOS>BOND
     1    35    33    1
     2    33    32    1
     3    33    34    1
     4    32    31    2
     5    34    36    2
     6    31    36    1
     7    31    30    1
     8    30    29    1
     9    22    21    2
    10    22    23    1
    11    21    20    1
    12    23    24    2
    13    20    19    2
    14    24    19    1
    15    29    27    1
    16    19    18    1
    17    28    27    1
    18    27    25   am
    19    18    17    1
    20    25    26    2
    21    25     1    1
    22    17     9    1
    23     6     1    2
    24     6     5    1
    25     1     2    1
    26     5     4    2
    27     2     3    2
    28     4     3    1
    29     4     7    1
    30     9    10   ar
    31     9     8   ar
    32     7     8    1
    33    10    11   ar
    34     8    13   ar
    35    11    13   ar
    36    11    12    1
    37    13    16    1
    38    16    15    2
    39    12    14    2
    40    15    14    1
