@<TRIPOS>MOLECULE
3030_out_ligand_01.pdbqt
 28 31 0 0 0
SMALL
GASTEIGER

@<TRIPOS>ATOM
      1  C         16.8170  -22.3510   -6.8180 C.3     1  UNL1        0.0690
      2  C         16.1290  -23.6980   -6.5290 C.3     1  UNL1        0.0140
      3  C         15.8920  -24.5190   -7.7970 C.3     1  UNL1        0.0310
      4  C         15.6840  -23.6220   -9.0140 C.3     1  UNL1        0.2730
      5  N         16.8250  -22.7420   -9.3100 N.3     1  UNL1        0.0930
      6  C         17.6530  -22.4490   -8.1120 C.3     1  UNL1        0.2830
      7  C         17.6100  -21.8750   -5.6260 C.2     1  UNL1        0.0770
      8  N         18.7880  -21.2570   -5.7990 N.2     1  UNL1       -0.1780
      9  N         19.2040  -20.9820   -4.5600 N.pl3   1  UNL1       -0.2880
     10  C         18.3470  -21.4040   -3.5910 C.2     1  UNL1        0.1280
     11  H         20.0950  -20.5060   -4.4500 H       1  UNL1        0.1880
     12  C         17.2840  -22.0080   -4.2400 C.2     1  UNL1        0.0750
     13  C         16.1220  -22.6470   -3.6440 C.2     1  UNL1        0.2520
     14  N         16.3180  -23.9070   -3.1540 N.am    1  UNL1       -0.3660
     15  H         15.5470  -24.3130   -2.6420 H       1  UNL1        0.1590
     16  H         17.2390  -24.2960   -3.0270 H       1  UNL1        0.1590
     17  O         15.0190  -22.1200   -3.5580 O.2     1  UNL1       -0.2680
     18  C         17.6610  -23.2920  -10.4020 C.3     1  UNL1        0.3130
     19  C         18.9040  -22.4720  -10.7050 C.2     1  UNL1       -0.0010
     20  C         18.7970  -21.3400  -11.5410 C.2     1  UNL1        0.0110
     21  C         19.9160  -20.5810  -11.8600 C.2     1  UNL1        0.0020
     22  C         21.1580  -20.9540  -11.3620 C.2     1  UNL1        0.0140
     23  C         21.2850  -22.0920  -10.5480 C.2     1  UNL1       -0.0070
     24  C         22.5380  -22.4800  -10.0550 C.2     1  UNL1        0.0150
     25  C         20.1540  -22.8740  -10.2130 C.2     1  UNL1        0.0740
     26  C         22.6520  -23.6120   -9.2610 C.2     1  UNL1        0.0200
     27  C         21.5020  -24.3230   -8.9880 C.2     1  UNL1        0.1170
     28  N         20.2790  -23.9800   -9.4460 N.2     1  UNL1       -0.2600
@<TRIPOS>BOND
     1    21    20    1
     2    21    22    2
     3    20    19    2
     4    22    23    1
     5    19    18    1
     6    19    25    1
     7    23    25    2
     8    23    24    1
     9    18     5    1
    10    25    28    1
    11    24    26    2
    12    28    27    2
    13     5     4    1
    14     5     6    1
    15    26    27    1
    16     4     3    1
    17     6     1    1
    18     3     2    1
    19     1     2    1
    20     1     7    1
    21     8     7    2
    22     8     9    1
    23     7    12    1
    24     9    11    1
    25     9    10    1
    26    12    13    1
    27    12    10    2
    28    13    17    2
    29    13    14   am
    30    14    16    1
    31    14    15    1
