@<TRIPOS>MOLECULE
30302_out_ligand_01.pdbqt
 32 34 0 0 0
SMALL
GASTEIGER

@<TRIPOS>ATOM
      1  C         20.4990  -22.4870   -7.4430 C.2     1  UNL1        0.0720
      2  C         19.3030  -23.2000   -7.2680 C.2     1  UNL1        0.0450
      3  C         18.3470  -22.7510   -6.3490 C.2     1  UNL1        0.0800
      4  C         18.5820  -21.6120   -5.5730 C.2     1  UNL1        0.0280
      5  C         19.7740  -20.9080   -5.7360 C.2     1  UNL1        0.0450
      6  C         20.7190  -21.3440   -6.6670 C.2     1  UNL1        0.1320
      7  F         21.8480  -20.6310   -6.7930 F       1  UNL1       -0.2050
      8  S         16.8420  -23.6720   -6.1210 S.O2    1  UNL1        0.2580
      9  O         16.2560  -23.2480   -4.8690 O.2     1  UNL1       -0.2010
     10  O         17.1240  -25.0610   -6.4020 O.2     1  UNL1       -0.2010
     11  N         15.8580  -23.0710   -7.3330 N.3     1  UNL1       -0.3150
     12  H         15.6200  -22.0840   -7.2300 H       1  UNL1        0.1720
     13  C         15.9210  -23.6350   -8.6860 C.3     1  UNL1        0.1370
     14  C         15.7240  -22.5300   -9.7320 C.3     1  UNL1        0.0580
     15  C         17.0110  -22.1210  -10.4110 C.2     1  UNL1       -0.0570
     16  C         18.1120  -22.9910  -10.4270 C.2     1  UNL1        0.0090
     17  C         19.2950  -22.6230  -11.0710 C.2     1  UNL1        0.0240
     18  C         19.3840  -21.3840  -11.7010 C.2     1  UNL1        0.0340
     19 CL         20.8400  -20.9320  -12.4980 Cl      1  UNL1       -0.0840
     20  C         18.3000  -20.5090  -11.6920 C.2     1  UNL1        0.0240
     21  C         17.1160  -20.8770  -11.0480 C.2     1  UNL1        0.0090
     22  C         21.4690  -22.9730   -8.4710 C.2     1  UNL1        0.2590
     23  O         21.5680  -24.1860   -8.6250 O.2     1  UNL1       -0.2670
     24  N         22.1690  -22.0070   -9.1690 N.am    1  UNL1       -0.3230
     25  H         21.9640  -21.0390   -8.9490 H       1  UNL1        0.1690
     26  C         23.1400  -22.2030  -10.1750 C.2     1  UNL1        0.0350
     27  C         23.0180  -23.1270  -11.2140 C.2     1  UNL1        0.0310
     28  C         24.0290  -23.2580  -12.1730 C.2     1  UNL1        0.0210
     29  C         25.1680  -22.4630  -12.0940 C.2     1  UNL1        0.0110
     30 BR         26.5320  -22.6390  -13.3890 Br      1  UNL1       -0.0510
     31  C         25.3060  -21.5360  -11.0650 C.2     1  UNL1        0.0210
     32  C         24.2940  -21.4100  -10.1080 C.2     1  UNL1        0.0310
@<TRIPOS>BOND
     1    30    29    1
     2    19    18    1
     3    28    29    2
     4    28    27    1
     5    29    31    1
     6    18    20    2
     7    18    17    1
     8    20    21    1
     9    27    26    2
    10    17    16    2
    11    31    32    2
    12    21    15    2
    13    16    15    1
    14    15    14    1
    15    26    32    1
    16    26    24    1
    17    14    13    1
    18    24    25    1
    19    24    22   am
    20    13    11    1
    21    23    22    2
    22    22     1    1
    23     1     2    2
    24     1     6    1
    25    11    12    1
    26    11     8    1
    27     2     3    1
    28     7     6    1
    29     6     5    2
    30    10     8    2
    31     3     8    1
    32     3     4    2
    33     8     9    2
    34     5     4    1
