@<TRIPOS>MOLECULE
30348_out_ligand_01.pdbqt
 34 36 0 0 0
SMALL
GASTEIGER

@<TRIPOS>ATOM
      1  C         26.1640  -18.5450  -16.1790 C.3     1  UNL1        0.0500
      2  C         25.9350  -19.5590  -15.0890 C.2     1  UNL1       -0.0340
      3  C         26.4200  -19.1700  -13.7790 C.2     1  UNL1        0.0330
      4  C         26.2740  -19.9600  -12.7020 C.2     1  UNL1        0.0120
      5  C         26.7990  -19.5180  -11.3630 C.3     1  UNL1        0.0680
      6  N         25.6380  -21.1950  -12.8370 N.am    1  UNL1       -0.3080
      7  C         25.1860  -21.6650  -14.0760 C.2     1  UNL1        0.2690
      8  O         24.7020  -22.7910  -14.2100 O.2     1  UNL1       -0.2660
      9  C         25.3390  -20.7570  -15.2530 C.2     1  UNL1        0.1180
     10  C         24.8530  -21.2180  -16.5070 C.1     1  UNL1        0.1050
     11  N         24.4750  -21.5620  -17.5500 N.1     1  UNL1       -0.1910
     12  C         25.4610  -22.0990  -11.6940 C.3     1  UNL1        0.2350
     13  C         24.1460  -21.8150  -10.9590 C.2     1  UNL1        0.2400
     14  O         24.1330  -21.1410   -9.9330 O.2     1  UNL1       -0.2710
     15  N         23.0560  -22.4190  -11.5660 N.am    1  UNL1       -0.3260
     16  H         23.2710  -23.0360  -12.3500 H       1  UNL1        0.1690
     17  C         21.7040  -22.3580  -11.1780 C.2     1  UNL1        0.0340
     18  C         21.3230  -23.1470  -10.0850 C.2     1  UNL1        0.0300
     19  C         19.9980  -23.1540   -9.6340 C.2     1  UNL1        0.0190
     20  C         19.0370  -22.3640  -10.2730 C.2     1  UNL1        0.0320
     21  C         19.4120  -21.5890  -11.3760 C.2     1  UNL1        0.0190
     22  C         20.7410  -21.5820  -11.8220 C.2     1  UNL1        0.0300
     23  C         17.6120  -22.3470   -9.8420 C.2     1  UNL1        0.2510
     24  O         16.7460  -21.8860  -10.5770 O.2     1  UNL1       -0.2680
     25  N         17.3480  -22.8490   -8.5850 N.am    1  UNL1       -0.3530
     26  H         18.1110  -22.9670   -7.9340 H       1  UNL1        0.1630
     27  C         16.0140  -22.7770   -8.0390 C.3     1  UNL1        0.1610
     28  C         16.0620  -22.6550   -6.5400 C.2     1  UNL1       -0.0390
     29  C         14.9840  -23.1070   -5.7610 C.2     1  UNL1        0.0090
     30  C         15.0280  -23.0180   -4.3680 C.2     1  UNL1        0.0020
     31  C         16.1520  -22.4840   -3.7380 C.2     1  UNL1        0.0240
     32  C         17.2280  -22.0410   -4.5040 C.2     1  UNL1        0.0340
     33 CL         18.6170  -21.3880   -3.7270 Cl      1  UNL1       -0.0840
     34  C         17.1900  -22.1260   -5.8970 C.2     1  UNL1        0.0320
@<TRIPOS>BOND
     1    11    10    3
     2    10     9    1
     3     1     2    1
     4     9     2    2
     5     9     7    1
     6     2     3    1
     7     8     7    2
     8     7     6   am
     9     3     4    2
    10     6     4    1
    11     6    12    1
    12     4     5    1
    13    16    15    1
    14    22    21    1
    15    22    17    2
    16    12    13    1
    17    15    17    1
    18    15    13   am
    19    21    20    2
    20    17    18    1
    21    13    14    2
    22    24    23    2
    23    20    23    1
    24    20    19    1
    25    18    19    2
    26    23    25   am
    27    25    27    1
    28    25    26    1
    29    27    28    1
    30    28    34    2
    31    28    29    1
    32    34    32    1
    33    29    30    2
    34    32    31    2
    35    32    33    1
    36    30    31    1
