@<TRIPOS>MOLECULE
30345_out_ligand_01.pdbqt
 38 41 0 0 0
SMALL
GASTEIGER

@<TRIPOS>ATOM
      1  C         21.9740  -22.0250  -11.2340 C.2     1  UNL1        0.0980
      2  C         21.5400  -21.0530  -12.0560 C.2     1  UNL1        0.1090
      3  N         20.2420  -20.6240  -12.1630 N.pl3   1  UNL1       -0.3640
      4  C         19.2150  -21.2770  -11.4720 C.2     1  UNL1        0.0460
      5  C         17.8830  -20.8750  -11.6150 C.2     1  UNL1        0.0320
      6  C         16.8740  -21.5020  -10.8780 C.2     1  UNL1        0.0270
      7  C         17.2020  -22.5230   -9.9800 C.2     1  UNL1        0.0810
      8  C         18.5260  -22.9390   -9.8210 C.2     1  UNL1        0.0430
      9  C         19.5280  -22.3000  -10.5580 C.2     1  UNL1        0.0430
     10  C         20.9500  -22.6950  -10.3820 C.2     1  UNL1        0.2010
     11  O         21.2560  -23.5490   -9.5530 O.2     1  UNL1       -0.2860
     12  H         20.0030  -20.0220  -12.9460 H       1  UNL1        0.1650
     13  S         15.9250  -23.3220   -9.0340 S.O2    1  UNL1        0.2630
     14  O         15.0860  -22.2940   -8.4580 O.2     1  UNL1       -0.2000
     15  O         15.3710  -24.3730   -9.8620 O.2     1  UNL1       -0.2000
     16  N         16.7940  -24.0910   -7.8050 N.pl3   1  UNL1       -0.2810
     17  H         17.6640  -24.4950   -8.1500 H       1  UNL1        0.1790
     18  C         16.7900  -23.5290   -6.4990 C.2     1  UNL1        0.0430
     19  C         15.8520  -23.9790   -5.5690 C.2     1  UNL1        0.0300
     20  C         15.8660  -23.4770   -4.2680 C.2     1  UNL1        0.0030
     21  C         16.8140  -22.5210   -3.8980 C.2     1  UNL1        0.0160
     22  C         17.7540  -22.0520   -4.8290 C.2     1  UNL1        0.0500
     23  C         17.7390  -22.5740   -6.1320 C.2     1  UNL1        0.0460
     24  C         18.7920  -21.0320   -4.4310 C.3     1  UNL1        0.4170
     25  F         19.2270  -21.2140   -3.1530 F       1  UNL1       -0.1660
     26  F         18.3320  -19.7520   -4.4900 F       1  UNL1       -0.1660
     27  F         19.9030  -21.0630   -5.2190 F       1  UNL1       -0.1660
     28  C         23.4250  -22.3660  -11.2390 C.2     1  UNL1        0.2570
     29  O         24.2280  -21.7850  -10.5130 O.2     1  UNL1       -0.2670
     30  N         23.7910  -23.3590  -12.1070 N.am    1  UNL1       -0.3520
     31  H         23.0780  -23.7570  -12.7180 H       1  UNL1        0.1630
     32  C         25.1690  -23.7110  -12.3490 C.3     1  UNL1        0.1620
     33  C         25.5720  -23.3800  -13.7540 C.2     1  UNL1       -0.0230
     34  C         25.9340  -22.0820  -14.1280 C.2     1  UNL1        0.0120
     35  C         26.3160  -21.8240  -15.4410 C.2     1  UNL1        0.0200
     36  C         26.3310  -22.8770  -16.3400 C.2     1  UNL1        0.1160
     37  N         26.0050  -24.1460  -16.0150 N.2     1  UNL1       -0.2730
     38  C         25.6400  -24.3690  -14.7310 C.2     1  UNL1        0.1240
@<TRIPOS>BOND
     1    36    37    2
     2    36    35    1
     3    37    38    1
     4    35    34    2
     5    38    33    2
     6    34    33    1
     7    33    32    1
     8    12     3    1
     9    31    30    1
    10    32    30    1
    11     3     2    1
    12     3     4    1
    13    30    28   am
    14     2     1    2
    15     5     4    2
    16     5     6    1
    17     4     9    1
    18    28     1    1
    19    28    29    2
    20     1    10    1
    21     6     7    2
    22     9    10    1
    23     9     8    2
    24    10    11    2
    25     7     8    1
    26     7    13    1
    27    15    13    2
    28    13    14    2
    29    13    16    1
    30    17    16    1
    31    16    18    1
    32    18    23    2
    33    18    19    1
    34    23    22    1
    35    19    20    2
    36    27    24    1
    37    22    24    1
    38    22    21    2
    39    26    24    1
    40    24    25    1
    41    20    21    1
