@<TRIPOS>MOLECULE
30344_out_ligand_01.pdbqt
 36 38 0 0 0
SMALL
GASTEIGER

@<TRIPOS>ATOM
      1  N         25.7020  -21.0230  -12.9580 N.am    1  UNL1       -0.3080
      2  C         26.3790  -19.8200  -12.7450 C.2     1  UNL1        0.0120
      3  C         26.9030  -19.4750  -11.3750 C.3     1  UNL1        0.0680
      4  C         26.5660  -18.9760  -13.7730 C.2     1  UNL1        0.0330
      5  C         26.0740  -19.2650  -15.1060 C.2     1  UNL1       -0.0340
      6  C         26.3540  -18.1990  -16.1350 C.3     1  UNL1        0.0500
      7  C         25.4200  -20.4190  -15.3410 C.2     1  UNL1        0.1180
      8  C         24.9140  -20.7730  -16.6230 C.1     1  UNL1        0.1050
      9  N         24.5320  -21.0110  -17.6930 N.1     1  UNL1       -0.1910
     10  C         25.2200  -21.3930  -14.2220 C.2     1  UNL1        0.2690
     11  O         24.6880  -22.4800  -14.4340 O.2     1  UNL1       -0.2660
     12  C         25.4390  -21.9570  -11.8470 C.3     1  UNL1        0.2350
     13  C         24.1080  -21.7550  -11.1070 C.2     1  UNL1        0.2400
     14  N         23.0060  -22.2520  -11.7760 N.am    1  UNL1       -0.3260
     15  H         23.2030  -22.7110  -12.6580 H       1  UNL1        0.1690
     16  O         24.0900  -21.1550  -10.0340 O.2     1  UNL1       -0.2710
     17  C         21.6560  -22.2020  -11.3840 C.2     1  UNL1        0.0340
     18  C         20.7170  -21.3120  -11.9180 C.2     1  UNL1        0.0300
     19  C         19.3890  -21.3320  -11.4750 C.2     1  UNL1        0.0190
     20  C         18.9880  -22.2340  -10.4840 C.2     1  UNL1        0.0320
     21  C         19.9190  -23.1390   -9.9580 C.2     1  UNL1        0.0190
     22  C         21.2430  -23.1210  -10.4090 C.2     1  UNL1        0.0300
     23  C         17.5680  -22.2290  -10.0390 C.2     1  UNL1        0.2510
     24  N         17.2800  -23.0230   -8.9510 N.am    1  UNL1       -0.3530
     25  H         18.0290  -23.4560   -8.4310 H       1  UNL1        0.1630
     26  O         16.7450  -21.5270  -10.6130 O.2     1  UNL1       -0.2680
     27  C         15.9360  -23.1700   -8.4360 C.3     1  UNL1        0.1610
     28  C         15.8160  -22.8190   -6.9670 C.2     1  UNL1       -0.0380
     29  C         14.5770  -22.6150   -6.3410 C.2     1  UNL1        0.0090
     30  C         14.5120  -22.3320   -4.9780 C.2     1  UNL1        0.0030
     31  C         15.6820  -22.2660   -4.2250 C.2     1  UNL1        0.0370
     32  C         16.9280  -22.4820   -4.8190 C.2     1  UNL1        0.0690
     33  C         16.9880  -22.7560   -6.1860 C.2     1  UNL1        0.0450
     34  O         17.9840  -22.3950   -3.9570 O.2     1  UNL1       -0.3520
     35  C         18.5870  -21.1240   -3.7160 C.3     1  UNL1        0.1710
     36  C         19.1870  -20.5590   -4.9880 C.3     1  UNL1        0.0340
@<TRIPOS>BOND
     1     9     8    3
     2     8     7    1
     3     6     5    1
     4     7     5    2
     5     7    10    1
     6     5     4    1
     7    11    10    2
     8    10     1   am
     9     4     2    2
    10     1     2    1
    11     1    12    1
    12     2     3    1
    13    15    14    1
    14    18    19    1
    15    18    17    2
    16    12    13    1
    17    14    17    1
    18    14    13   am
    19    19    20    2
    20    17    22    1
    21    13    16    2
    22    26    23    2
    23    20    23    1
    24    20    21    1
    25    22    21    2
    26    23    24   am
    27    24    27    1
    28    24    25    1
    29    27    28    1
    30    28    29    2
    31    28    33    1
    32    29    30    1
    33    33    32    2
    34    36    35    1
    35    30    31    2
    36    32    31    1
    37    32    34    1
    38    34    35    1
