@<TRIPOS>MOLECULE
30367_out_ligand_01.pdbqt
 32 36 0 0 0
SMALL
GASTEIGER

@<TRIPOS>ATOM
      1  N         16.9120  -23.8350   -6.9610 N.ar    1  UNL1       -0.3040
      2  C         15.9670  -23.2240   -7.7480 C.ar    1  UNL1        0.1710
      3  N         15.0960  -22.5330   -7.0390 N.ar    1  UNL1       -0.2210
      4  C         15.4760  -22.7210   -5.7370 C.ar    1  UNL1        0.1050
      5  C         14.9190  -22.2540   -4.5410 C.2     1  UNL1        0.0370
      6  C         15.5660  -22.6130   -3.3550 C.2     1  UNL1        0.0220
      7  C         16.7140  -23.3990   -3.4160 C.2     1  UNL1        0.1190
      8  N         17.2890  -23.8810   -4.5460 N.2     1  UNL1       -0.2410
      9  C         16.6180  -23.5100   -5.6580 C.ar    1  UNL1        0.1610
     10  S         15.9560  -23.3500   -9.4770 S.3     1  UNL1       -0.0870
     11  C         16.5020  -21.6920   -9.9700 C.3     1  UNL1        0.1210
     12  C         17.8460  -21.6630  -10.6620 C.2     1  UNL1       -0.0480
     13  C         18.3440  -20.4560  -11.1710 C.2     1  UNL1        0.0090
     14  C         19.6110  -20.3980  -11.7480 C.2     1  UNL1        0.0170
     15  C         20.3940  -21.5530  -11.8410 C.2     1  UNL1        0.0320
     16  C         19.9000  -22.7660  -11.3470 C.2     1  UNL1        0.0170
     17  C         18.6320  -22.8200  -10.7640 C.2     1  UNL1        0.0090
     18  C         21.7590  -21.4300  -12.4200 C.2     1  UNL1        0.2520
     19  O         21.9020  -20.9840  -13.5550 O.2     1  UNL1       -0.2680
     20  N         22.8040  -21.8670  -11.6230 N.am    1  UNL1       -0.3520
     21  H         22.5920  -22.4400  -10.8200 H       1  UNL1        0.1630
     22  C         24.1570  -21.8290  -12.0830 C.3     1  UNL1        0.0840
     23  C         25.1240  -22.9290  -11.7330 C.3     1  UNL1        0.0270
     24  C         25.2790  -21.5680  -11.1150 C.3     1  UNL1        0.0270
     25  C         18.0740  -24.6030   -7.3720 C.3     1  UNL1        0.1710
     26  C         19.3010  -23.7410   -7.5530 C.2     1  UNL1       -0.0390
     27  C         19.3350  -22.4270   -7.0600 C.2     1  UNL1        0.0090
     28  C         20.4680  -21.6270   -7.2450 C.2     1  UNL1        0.0010
     29  C         21.5740  -22.1280   -7.9290 C.2     1  UNL1        0.0070
     30  C         21.5640  -23.4360   -8.4260 C.2     1  UNL1       -0.0610
     31  C         22.7380  -23.9780   -9.1870 C.3     1  UNL1        0.0480
     32  C         20.4210  -24.2310   -8.2420 C.2     1  UNL1        0.0150
@<TRIPOS>BOND
     1    19    18    2
     2    18    15    1
     3    18    20   am
     4    22    23    1
     5    22    20    1
     6    22    24    1
     7    15    14    2
     8    15    16    1
     9    14    13    1
    10    23    24    1
    11    20    21    1
    12    16    17    2
    13    13    12    2
    14    17    12    1
    15    12    11    1
    16    11    10    1
    17    10     2    1
    18    31    30    1
    19    30    32    1
    20    30    29    2
    21    32    26    2
    22    29    28    1
    23     2     3   ar
    24     2     1   ar
    25    26    25    1
    26    26    27    1
    27    25     1    1
    28    28    27    2
    29     3     4   ar
    30     1     9   ar
    31     4     9   ar
    32     4     5    1
    33     9     8    1
    34     8     7    2
    35     5     6    2
    36     7     6    1
