@<TRIPOS>MOLECULE
30365_out_ligand_01.pdbqt
 37 41 0 0 0
SMALL
GASTEIGER

@<TRIPOS>ATOM
      1  N         22.0690  -22.3230   -9.8270 N.am    1  UNL1       -0.3050
      2  C         21.9700  -23.4090   -8.9720 C.2     1  UNL1        0.2490
      3  O         22.9500  -24.0290   -8.5560 O.2     1  UNL1       -0.2680
      4  C         20.6250  -23.8290   -8.5510 C.2     1  UNL1        0.0920
      5  C         19.5250  -23.2620   -9.0630 C.2     1  UNL1        0.0490
      6  C         19.6400  -22.2380  -10.1110 C.2     1  UNL1        0.0070
      7  C         18.5100  -21.7490  -10.7880 C.2     1  UNL1        0.0150
      8  C         18.6340  -20.7740  -11.7770 C.2     1  UNL1        0.0010
      9  C         19.8910  -20.2900  -12.1130 C.2     1  UNL1        0.0020
     10  C         21.0270  -20.7860  -11.4690 C.2     1  UNL1        0.0300
     11  C         20.9200  -21.7660  -10.4680 C.2     1  UNL1        0.0490
     12  C         23.4160  -21.8380  -10.1300 C.3     1  UNL1        0.2350
     13  C         23.8780  -22.2640  -11.5260 C.2     1  UNL1        0.2400
     14  O         23.6370  -23.3940  -11.9440 O.2     1  UNL1       -0.2710
     15  N         24.5340  -21.2510  -12.2060 N.am    1  UNL1       -0.3260
     16  H         24.6390  -20.3690  -11.7010 H       1  UNL1        0.1690
     17  C         25.0870  -21.2920  -13.5000 C.2     1  UNL1        0.0370
     18  C         26.2730  -20.6480  -13.8640 C.2     1  UNL1        0.0320
     19  C         26.7600  -20.7440  -15.1730 C.2     1  UNL1        0.0420
     20  C         26.0660  -21.4860  -16.1220 C.2     1  UNL1        0.1020
     21  C         24.8670  -22.1100  -15.7740 C.2     1  UNL1        0.1040
     22  O         26.6150  -21.5520  -17.3770 O.2     1  UNL1       -0.3460
     23  C         24.3870  -22.0260  -14.4670 C.2     1  UNL1        0.0690
     24  O         24.1120  -22.8330  -16.6630 O.2     1  UNL1       -0.3460
     25  C         24.5020  -22.5650  -18.0150 C.3     1  UNL1        0.2020
     26  C         26.0140  -22.5960  -18.1530 C.3     1  UNL1        0.2020
     27  C         18.2550  -23.7440   -8.4540 C.2     1  UNL1        0.2530
     28  O         17.2140  -23.8000   -9.0980 O.2     1  UNL1       -0.2680
     29  N         18.3890  -24.1750   -7.1580 N.am    1  UNL1       -0.3530
     30  H         19.3190  -24.2580   -6.7670 H       1  UNL1        0.1630
     31  C         17.3210  -24.8660   -6.4720 C.3     1  UNL1        0.1610
     32  C         16.4730  -23.8910   -5.6970 C.2     1  UNL1       -0.0410
     33  C         16.8200  -23.5180   -4.3910 C.2     1  UNL1        0.0090
     34  C         16.0150  -22.6330   -3.6700 C.2     1  UNL1        0.0010
     35  C         14.8520  -22.1210   -4.2450 C.2     1  UNL1        0.0000
     36  C         14.4930  -22.4920   -5.5390 C.2     1  UNL1        0.0010
     37  C         15.2970  -23.3740   -6.2620 C.2     1  UNL1        0.0090
@<TRIPOS>BOND
     1    26    25    1
     2    26    22    1
     3    25    24    1
     4    22    20    1
     5    24    21    1
     6    20    21    2
     7    20    19    1
     8    21    23    1
     9    19    18    2
    10    23    17    2
    11    18    17    1
    12    17    15    1
    13    15    16    1
    14    15    13   am
    15     9     8    2
    16     9    10    1
    17    14    13    2
    18     8     7    1
    19    13    12    1
    20    10    11    2
    21     7     6    2
    22    11     6    1
    23    11     1    1
    24    12     1    1
    25     6     5    1
    26     1     2   am
    27    28    27    2
    28     5     4    2
    29     5    27    1
    30     2     3    2
    31     2     4    1
    32    27    29   am
    33    29    30    1
    34    29    31    1
    35    31    32    1
    36    37    32    2
    37    37    36    1
    38    32    33    1
    39    36    35    2
    40    33    34    2
    41    35    34    1
