@<TRIPOS>MOLECULE
30374_out_ligand_01.pdbqt
 36 40 0 0 0
SMALL
GASTEIGER

@<TRIPOS>ATOM
      1  C         18.4870  -22.2500  -10.3670 C.2     1  UNL1        0.0320
      2  C         18.8010  -21.2010  -11.2370 C.2     1  UNL1        0.0190
      3  C         20.1210  -21.0130  -11.6690 C.2     1  UNL1        0.0300
      4  C         21.1410  -21.8640  -11.2360 C.2     1  UNL1        0.0350
      5  C         20.8230  -22.9010  -10.3490 C.2     1  UNL1        0.0300
      6  C         19.5080  -23.0920   -9.9150 C.2     1  UNL1        0.0190
      7  C         17.1010  -22.4880   -9.8800 C.2     1  UNL1        0.2510
      8  O         16.1790  -21.7910  -10.2910 O.2     1  UNL1       -0.2680
      9  N         16.9450  -23.4880   -8.9400 N.am    1  UNL1       -0.3570
     10  H         17.7730  -23.7850   -8.4400 H       1  UNL1        0.1620
     11  C         15.6640  -23.6840   -8.2820 C.3     1  UNL1        0.1270
     12  C         15.8210  -24.3720   -6.9260 C.3     1  UNL1        0.0600
     13  C         16.1450  -23.4090   -5.8300 C.2     1  UNL1       -0.0290
     14  C         15.3510  -23.1170   -4.7390 C.2     1  UNL1        0.0960
     15  N         15.9970  -22.1860   -3.9710 N.pl3   1  UNL1       -0.3650
     16  C         17.2080  -21.8600   -4.5360 C.2     1  UNL1        0.0430
     17  H         15.6390  -21.7900   -3.1130 H       1  UNL1        0.1650
     18  C         18.1910  -20.9630   -4.1030 C.2     1  UNL1        0.0320
     19  C         17.3290  -22.6140   -5.7060 C.2     1  UNL1       -0.0000
     20  C         19.3380  -20.8310   -4.8910 C.2     1  UNL1        0.0260
     21  C         19.4850  -21.5690   -6.0620 C.2     1  UNL1        0.0350
     22 CL         20.9110  -21.3830   -7.0100 Cl      1  UNL1       -0.0840
     23  C         18.4950  -22.4620   -6.4850 C.2     1  UNL1        0.0380
     24  N         22.4900  -21.7380  -11.6170 N.am    1  UNL1       -0.3220
     25  C         23.5880  -21.5140  -10.7970 C.2     1  UNL1        0.2760
     26  O         23.5510  -21.3340   -9.5860 O.2     1  UNL1       -0.2660
     27  H         22.6740  -21.7520  -12.6130 H       1  UNL1        0.1690
     28  C         24.8590  -21.4920  -11.5460 C.ar    1  UNL1        0.1440
     29  N         25.7470  -20.5260  -11.2820 N.ar    1  UNL1       -0.2050
     30  S         27.0570  -20.7010  -12.2660 S.2     1  UNL1        0.0120
     31  C         26.4960  -22.0910  -13.0990 C.ar    1  UNL1        0.0360
     32  C         27.1160  -22.8220  -14.1250 C.2     1  UNL1        0.0210
     33  C         25.2450  -22.4380  -12.5820 C.ar    1  UNL1        0.0170
     34  C         26.4560  -23.9420  -14.6370 C.2     1  UNL1        0.0010
     35  C         25.2180  -24.3240  -14.1350 C.2     1  UNL1        0.0010
     36  C         24.6080  -23.5890  -13.1130 C.2     1  UNL1        0.0150
@<TRIPOS>BOND
     1    34    35    2
     2    34    32    1
     3    35    36    1
     4    32    31    2
     5    36    33    2
     6    31    33   ar
     7    31    30   ar
     8    27    24    1
     9    33    28   ar
    10    30    29   ar
    11     3     2    1
    12     3     4    2
    13    24     4    1
    14    24    25   am
    15    28    29   ar
    16    28    25    1
    17     2     1    2
    18     4     5    1
    19    25    26    2
    20     1     6    1
    21     1     7    1
    22     5     6    2
    23     8     7    2
    24     7     9   am
    25     9    10    1
    26     9    11    1
    27    11    12    1
    28    22    21    1
    29    12    13    1
    30    23    21    2
    31    23    19    1
    32    21    20    1
    33    13    19    1
    34    13    14    2
    35    19    16    2
    36    20    18    2
    37    14    15    1
    38    16    18    1
    39    16    15    1
    40    15    17    1
