@<TRIPOS>MOLECULE
3037_out_ligand_01.pdbqt
 37 41 0 0 0
SMALL
GASTEIGER

@<TRIPOS>ATOM
      1  N         21.7050  -23.4390   -9.2430 N.am    1  UNL1       -0.3530
      2  C         20.9290  -22.6320   -8.4370 C.2     1  UNL1        0.2540
      3  O         21.3680  -21.9820   -7.4970 O.2     1  UNL1       -0.2680
      4  H         21.3070  -23.7330  -10.1290 H       1  UNL1        0.1630
      5  C         23.1470  -23.4390   -9.1420 C.3     1  UNL1        0.1610
      6  C         23.7750  -23.0000  -10.4400 C.2     1  UNL1       -0.0410
      7  C         22.9730  -22.6670  -11.5350 C.2     1  UNL1        0.0090
      8  C         23.5450  -22.2870  -12.7540 C.2     1  UNL1        0.0110
      9  C         24.9390  -22.2340  -12.9180 C.2     1  UNL1       -0.0210
     10  C         25.7350  -22.5810  -11.8080 C.2     1  UNL1        0.0110
     11  C         25.1630  -22.9620  -10.5890 C.2     1  UNL1        0.0090
     12  C         25.5910  -21.8250  -14.2350 C.3     1  UNL1        0.1390
     13  C         27.1210  -21.7240  -14.2390 C.3     1  UNL1        0.0540
     14  N         25.1720  -22.7060  -15.3110 N.am    1  UNL1       -0.3210
     15  C         24.5060  -22.0410  -16.3090 C.2     1  UNL1        0.3240
     16  H         25.2380  -23.7140  -15.2970 H       1  UNL1        0.1650
     17  O         24.0040  -22.5660  -17.2860 O.2     1  UNL1       -0.2470
     18  N         24.4760  -20.7230  -16.0070 N.am    1  UNL1       -0.2770
     19  C         25.0270  -20.4910  -14.7820 C.2     1  UNL1        0.2580
     20  H         24.0070  -20.0290  -16.5630 H       1  UNL1        0.1730
     21  O         25.0670  -19.3970  -14.2390 O.2     1  UNL1       -0.2700
     22  C         19.4870  -22.5490   -8.7970 C.2     1  UNL1        0.0590
     23  C         19.1800  -22.4900  -10.1680 C.2     1  UNL1        0.0190
     24  C         17.8540  -22.4580  -10.5960 C.2     1  UNL1        0.0020
     25  C         16.8250  -22.4860   -9.6590 C.2     1  UNL1        0.0180
     26  C         17.1260  -22.5230   -8.2920 C.ar    1  UNL1        0.0430
     27  C         16.0190  -22.5420   -7.3010 C.ar    1  UNL1        0.1960
     28  C         18.4580  -22.5230   -7.8360 C.ar    1  UNL1        0.0620
     29  O         14.8500  -22.5690   -7.6700 O.2     1  UNL1       -0.2860
     30  C         16.3520  -22.5190   -5.8560 C.ar    1  UNL1        0.0420
     31  C         15.3360  -22.5020   -4.8960 C.2     1  UNL1        0.0180
     32  C         17.7020  -22.4950   -5.4780 C.ar    1  UNL1        0.0460
     33  C         15.6670  -22.4790   -3.5420 C.2     1  UNL1        0.0010
     34  C         17.0070  -22.4780   -3.1530 C.2     1  UNL1        0.0020
     35  C         18.0200  -22.4970   -4.1160 C.2     1  UNL1        0.0300
     36  N         18.7140  -22.5830   -6.4480 N.ar    1  UNL1       -0.3540
     37  H         19.6270  -22.2400   -6.1610 H       1  UNL1        0.1660
@<TRIPOS>BOND
     1    17    15    2
     2    20    18    1
     3    15    18   am
     4    15    14   am
     5    18    19   am
     6    14    16    1
     7    14    12    1
     8    19    21    2
     9    19    12    1
    10    13    12    1
    11    12     9    1
    12     9     8    2
    13     9    10    1
    14     8     7    1
    15    10    11    2
    16     7     6    2
    17    24    23    1
    18    24    25    2
    19    11     6    1
    20     6     5    1
    21    23    22    2
    22     4     1    1
    23    25    26    1
    24     1     5    1
    25     1     2   am
    26    22     2    1
    27    22    28    1
    28     2     3    2
    29    26    28   ar
    30    26    27   ar
    31    28    36   ar
    32    29    27    2
    33    27    30   ar
    34    36    37    1
    35    36    32   ar
    36    30    32   ar
    37    30    31    1
    38    32    35    1
    39    31    33    2
    40    35    34    2
    41    33    34    1
