@<TRIPOS>MOLECULE
3039_out_ligand_01.pdbqt
 32 35 0 0 0
SMALL
GASTEIGER

@<TRIPOS>ATOM
      1  C         19.7550  -22.5090  -10.1910 C.2     1  UNL1        0.0360
      2  C         18.5840  -22.5930  -10.9450 C.2     1  UNL1        0.0320
      3  C         17.3380  -22.5490  -10.3140 C.2     1  UNL1        0.0450
      4  C         17.2590  -22.4040   -8.9320 C.2     1  UNL1        0.1300
      5  F         16.0430  -22.4000   -8.3660 F       1  UNL1       -0.2050
      6  C         18.4090  -22.2810   -8.1530 C.2     1  UNL1        0.0530
      7  C         19.6560  -22.3550   -8.8000 C.2     1  UNL1        0.0480
      8  N         21.0530  -22.5650  -10.7380 N.am    1  UNL1       -0.3220
      9  C         21.5820  -21.7870  -11.7510 C.2     1  UNL1        0.2720
     10  O         20.9760  -20.9320  -12.3820 O.2     1  UNL1       -0.2660
     11  H         21.6380  -23.3280  -10.4200 H       1  UNL1        0.1690
     12  C         22.9690  -22.1100  -12.0370 C.2     1  UNL1        0.1030
     13  C         23.7950  -22.9420  -11.2990 C.2     1  UNL1        0.0530
     14  C         25.0870  -22.9790  -11.9030 C.2     1  UNL1        0.0490
     15  C         24.9940  -22.1800  -13.0310 C.2     1  UNL1        0.1080
     16  N         23.7100  -21.6990  -13.1250 N.pl3   1  UNL1       -0.3560
     17  C         23.2140  -20.9480  -14.2600 C.3     1  UNL1        0.1560
     18  C         26.2410  -23.7190  -11.4060 C.2     1  UNL1        0.2500
     19  N         26.7150  -23.3500  -10.1790 N.am    1  UNL1       -0.3660
     20  H         27.5340  -23.8320   -9.8370 H       1  UNL1        0.1590
     21  H         26.3390  -22.5780   -9.6500 H       1  UNL1        0.1590
     22  O         26.7800  -24.6250  -12.0310 O.2     1  UNL1       -0.2680
     23  C         18.3810  -22.1300   -6.6990 C.ar    1  UNL1        0.1670
     24  N         19.0600  -21.2060   -6.0400 N.ar    1  UNL1       -0.1290
     25  N         18.7850  -21.3210   -4.7070 N.ar    1  UNL1       -0.1340
     26  C         17.9190  -22.2980   -4.5540 C.ar    1  UNL1        0.1300
     27  N         17.6120  -22.8280   -5.7840 N.ar    1  UNL1       -0.3160
     28  C         17.3380  -22.7480   -3.2680 C.3     1  UNL1        0.0810
     29  C         16.5990  -23.8160   -6.0880 C.3     1  UNL1        0.1320
     30  C         15.5020  -24.0960   -5.0490 C.3     1  UNL1        0.0200
     31  C         14.9820  -22.8520   -4.3360 C.3     1  UNL1        0.0020
     32  C         15.8520  -22.4110   -3.1530 C.3     1  UNL1        0.0080
@<TRIPOS>BOND
     1    17    16    1
     2    16    15    1
     3    16    12    1
     4    15    14    2
     5    10     9    2
     6    12     9    1
     7    12    13    2
     8    22    18    2
     9    14    18    1
    10    14    13    1
    11     9     8   am
    12    18    19   am
    13     2     3    1
    14     2     1    2
    15     8    11    1
    16     8     1    1
    17     3     4    2
    18     1     7    1
    19    19    20    1
    20    19    21    1
    21     4     5    1
    22     4     6    1
    23     7     6    2
    24     6    23    1
    25    23    24   ar
    26    23    27   ar
    27    29    27    1
    28    29    30    1
    29    24    25   ar
    30    27    26   ar
    31    30    31    1
    32    25    26   ar
    33    26    28    1
    34    31    32    1
    35    28    32    1
