@<TRIPOS>MOLECULE
30390_out_ligand_01.pdbqt
 33 35 0 0 0
SMALL
GASTEIGER

@<TRIPOS>ATOM
      1  C         26.3810  -20.2560  -16.4580 C.3     1  UNL1        0.0500
      2  C         26.1030  -21.0010  -15.1800 C.2     1  UNL1       -0.0340
      3  C         26.4060  -20.2680  -13.9650 C.2     1  UNL1        0.0330
      4  C         26.1850  -20.7890  -12.7460 C.2     1  UNL1        0.0120
      5  C         26.5150  -19.9910  -11.5120 C.3     1  UNL1        0.0680
      6  N         25.6570  -22.0770  -12.6330 N.am    1  UNL1       -0.3080
      7  C         25.3970  -22.8700  -13.7560 C.2     1  UNL1        0.2690
      8  O         25.0310  -24.0440  -13.6540 O.2     1  UNL1       -0.2660
      9  C         25.6130  -22.2540  -15.1000 C.2     1  UNL1        0.1180
     10  C         25.2920  -23.0390  -16.2410 C.1     1  UNL1        0.1050
     11  N         25.0310  -23.6500  -17.1940 N.1     1  UNL1       -0.1910
     12  C         25.4120  -22.6960  -11.3220 C.3     1  UNL1        0.2350
     13  C         23.9880  -22.4160  -10.8290 C.2     1  UNL1        0.2400
     14  O         23.2870  -21.5720  -11.3830 O.2     1  UNL1       -0.2710
     15  N         23.6380  -23.1930   -9.7360 N.am    1  UNL1       -0.3260
     16  H         24.3650  -23.8160   -9.3850 H       1  UNL1        0.1690
     17  C         22.4360  -23.1720   -9.0080 C.2     1  UNL1        0.0340
     18  C         22.0510  -22.1330   -8.1610 C.2     1  UNL1        0.0300
     19  C         20.8380  -22.2020   -7.4620 C.2     1  UNL1        0.0190
     20  C         19.9940  -23.3070   -7.6100 C.2     1  UNL1        0.0320
     21  C         20.3800  -24.3540   -8.4520 C.2     1  UNL1        0.0190
     22  C         21.5900  -24.2810   -9.1500 C.2     1  UNL1        0.0300
     23  C         18.7210  -23.3390   -6.8320 C.2     1  UNL1        0.2520
     24  O         18.4640  -22.4420   -6.0380 O.2     1  UNL1       -0.2680
     25  N         17.8760  -24.4020   -7.0870 N.am    1  UNL1       -0.3520
     26  H         18.0340  -24.9490   -7.9240 H       1  UNL1        0.1630
     27  C         16.5510  -24.4920   -6.4740 C.3     1  UNL1        0.0840
     28  C         15.5360  -23.7200   -7.3290 C.3     1  UNL1        0.0250
     29  C         15.4550  -22.2200   -7.0500 C.3     1  UNL1        0.0020
     30  C         14.4690  -21.8810   -5.9330 C.3     1  UNL1        0.0000
     31  C         14.9210  -22.2650   -4.5270 C.3     1  UNL1        0.0000
     32  C         15.3060  -23.7340   -4.3380 C.3     1  UNL1        0.0020
     33  C         16.6390  -24.0820   -4.9960 C.3     1  UNL1        0.0250
@<TRIPOS>BOND
     1    11    10    3
     2     1     2    1
     3    10     9    1
     4     2     9    2
     5     2     3    1
     6     9     7    1
     7     3     4    2
     8     7     8    2
     9     7     6   am
    10     4     6    1
    11     4     5    1
    12     6    12    1
    13    14    13    2
    14    12    13    1
    15    13    15   am
    16    15    16    1
    17    15    17    1
    18    22    17    2
    19    22    21    1
    20    17    18    1
    21    21    20    2
    22    18    19    2
    23    26    25    1
    24    20    19    1
    25    20    23    1
    26    28    29    1
    27    28    27    1
    28    25    23   am
    29    25    27    1
    30    29    30    1
    31    23    24    2
    32    27    33    1
    33    30    31    1
    34    33    32    1
    35    31    32    1
