@<TRIPOS>MOLECULE
303_out_ligand_01.pdbqt
 33 36 0 0 0
SMALL
GASTEIGER

@<TRIPOS>ATOM
      1  C         18.1240  -22.9870   -6.2050 C.2     1  UNL1        0.0800
      2  C         18.0190  -21.9100   -5.3170 C.2     1  UNL1        0.0250
      3  C         19.0120  -20.9290   -5.2990 C.2     1  UNL1        0.0030
      4  C         20.1110  -21.0350   -6.1530 C.2     1  UNL1        0.0170
      5  C         20.2140  -22.1280   -7.0230 C.2     1  UNL1        0.0330
      6  C         19.2070  -23.0930   -7.0800 C.2     1  UNL1        0.0420
      7  C         21.3720  -22.2520   -7.9320 C.2     1  UNL1        0.2530
      8  O         22.1710  -21.3180   -7.9550 O.2     1  UNL1       -0.2670
      9  N         21.4970  -23.4040   -8.7050 N.am    1  UNL1       -0.3480
     10  C         20.4990  -24.4650   -8.7780 C.3     1  UNL1        0.1530
     11  C         22.7810  -23.6540   -9.3570 C.3     1  UNL1        0.1640
     12  C         22.8580  -22.9920  -10.7130 C.2     1  UNL1       -0.0370
     13  C         21.7090  -22.4240  -11.2890 C.2     1  UNL1        0.0120
     14  C         21.7780  -21.7800  -12.5260 C.2     1  UNL1        0.0400
     15  C         22.9960  -21.6900  -13.1930 C.2     1  UNL1        0.1020
     16  C         24.1420  -22.2700  -12.6400 C.2     1  UNL1        0.1020
     17  O         22.9960  -21.0210  -14.3910 O.2     1  UNL1       -0.3460
     18  C         24.0780  -22.9050  -11.4010 C.2     1  UNL1        0.0480
     19  O         25.3690  -22.2440  -13.2540 O.2     1  UNL1       -0.3460
     20  C         25.2510  -21.8910  -14.6360 C.3     1  UNL1        0.2020
     21  C         24.3270  -20.6970  -14.8090 C.3     1  UNL1        0.2020
     22  S         16.8730  -24.2500   -6.2210 S.O2    1  UNL1        0.2630
     23  O         16.0770  -24.0800   -5.0240 O.2     1  UNL1       -0.2000
     24  O         17.5080  -25.5130   -6.5280 O.2     1  UNL1       -0.2000
     25  N         15.8880  -23.7990   -7.5140 N.pl3   1  UNL1       -0.2810
     26  H         14.9560  -23.5240   -7.2060 H       1  UNL1        0.1790
     27  C         16.4450  -23.1450   -8.6480 C.2     1  UNL1        0.0420
     28  C         17.2130  -23.8300   -9.5870 C.2     1  UNL1        0.0300
     29  C         17.7570  -23.1480  -10.6790 C.2     1  UNL1        0.0090
     30  C         17.5180  -21.7800  -10.8540 C.2     1  UNL1       -0.0620
     31  C         18.1260  -21.0420  -12.0100 C.3     1  UNL1        0.0480
     32  C         16.7430  -21.0990   -9.9090 C.2     1  UNL1        0.0090
     33  C         16.2020  -21.7800   -8.8140 C.2     1  UNL1        0.0300
@<TRIPOS>BOND
     1    21    20    1
     2    21    17    1
     3    20    19    1
     4    17    15    1
     5    19    16    1
     6    15    16    2
     7    15    14    1
     8    16    18    1
     9    14    13    2
    10    31    30    1
    11    18    12    2
    12    13    12    1
    13    30    29    2
    14    30    32    1
    15    12    11    1
    16    29    28    1
    17    32    33    2
    18    28    27    2
    19    11     9    1
    20    33    27    1
    21    10     9    1
    22     9     7   am
    23    27    25    1
    24     8     7    2
    25     7     5    1
    26    25    26    1
    27    25    22    1
    28     6     5    1
    29     6     1    2
    30     5     4    2
    31    24    22    2
    32    22     1    1
    33    22    23    2
    34     1     2    1
    35     4     3    1
    36     2     3    2
