@<TRIPOS>MOLECULE
30418_out_ligand_01.pdbqt
 31 34 0 0 0
SMALL
GASTEIGER

@<TRIPOS>ATOM
      1  C         19.4400  -21.6250  -11.4560 C.2     1  UNL1        0.2230
      2  N         18.8190  -22.5800  -10.7990 N.2     1  UNL1       -0.2030
      3  C         17.5610  -22.0700  -10.6320 C.2     1  UNL1        0.1580
      4  N         17.3770  -20.8440  -11.1340 N.4     1  UNL1       -0.1110
      5  O         18.6260  -20.5400  -11.6810 O.2     1  UNL1       -0.1890
      6  C         20.7990  -21.6970  -11.8950 C.ar    1  UNL1        0.0960
      7  C         21.8960  -22.3640  -11.3640 C.ar    1  UNL1       -0.0150
      8  C         23.0130  -22.0760  -12.2180 C.ar    1  UNL1       -0.0000
      9  C         24.3750  -22.4490  -12.2100 C.2     1  UNL1        0.0210
     10  C         22.5590  -21.2530  -13.2440 C.ar    1  UNL1        0.0430
     11  C         25.2380  -21.9810  -13.2150 C.2     1  UNL1       -0.0610
     12  C         24.7360  -21.1660  -14.2340 C.2     1  UNL1        0.0090
     13  C         26.6790  -22.4040  -13.2290 C.3     1  UNL1        0.0480
     14  C         23.3900  -20.7820  -14.2650 C.2     1  UNL1        0.0310
     15  N         21.2180  -21.0440  -13.0280 N.ar    1  UNL1       -0.3510
     16  H         20.6280  -20.4770  -13.6210 H       1  UNL1        0.1660
     17  C         21.9300  -23.2270  -10.1390 C.3     1  UNL1        0.0370
     18  C         22.9530  -22.7510   -9.1190 C.3     1  UNL1        0.0100
     19  C         16.4910  -22.8200   -9.9340 C.3     1  UNL1        0.1030
     20  C         16.3370  -22.4360   -8.4580 C.3     1  UNL1        0.1330
     21  N         16.3730  -23.5660   -7.5130 N.am    1  UNL1       -0.3520
     22  C         15.4130  -24.6390   -7.7310 C.3     1  UNL1        0.1520
     23  C         17.4700  -23.8670   -6.7010 C.2     1  UNL1        0.2530
     24  O         17.6700  -24.9690   -6.1990 O.2     1  UNL1       -0.2670
     25  C         18.4600  -22.8080   -6.4110 C.2     1  UNL1        0.0320
     26  C         19.6080  -22.6730   -7.2010 C.2     1  UNL1        0.0180
     27  C         20.5150  -21.6460   -6.9290 C.2     1  UNL1        0.0250
     28  C         20.2620  -20.7550   -5.8850 C.2     1  UNL1        0.0340
     29 CL         21.3810  -19.4890   -5.5540 Cl      1  UNL1       -0.0840
     30  C         19.1050  -20.8740   -5.1130 C.2     1  UNL1        0.0250
     31  C         18.1950  -21.8980   -5.3810 C.2     1  UNL1        0.0180
@<TRIPOS>BOND
     1    14    12    2
     2    14    10    1
     3    12    11    1
     4    16    15    1
     5    10    15   ar
     6    10     8   ar
     7    13    11    1
     8    11     9    2
     9    15     6   ar
    10     8     9    1
    11     8     7   ar
    12     6     1    1
    13     6     7   ar
    14     5     1    1
    15     5     4    1
    16     1     2    2
    17     7    17    1
    18     4     3    1
    19     2     3    2
    20     3    19    1
    21    17    18    1
    22    19    20    1
    23    20    21    1
    24    22    21    1
    25    21    23   am
    26    26    27    1
    27    26    25    2
    28    27    28    2
    29    23    25    1
    30    23    24    2
    31    25    31    1
    32    28    29    1
    33    28    30    1
    34    31    30    2
