@<TRIPOS>MOLECULE
30414_out_ligand_01.pdbqt
 37 40 0 0 0
SMALL
GASTEIGER

@<TRIPOS>ATOM
      1  C         22.2990  -21.8330  -10.7330 C.2     1  UNL1        0.0240
      2  C         21.3120  -21.3480  -11.5030 C.2     1  UNL1        0.0270
      3  C         19.9100  -21.5380  -11.1480 C.2     1  UNL1       -0.0080
      4  C         18.9110  -21.0040  -11.9700 C.2     1  UNL1        0.0140
      5  C         17.5660  -21.1760  -11.6450 C.2     1  UNL1        0.0070
      6  C         17.2060  -21.8740  -10.4910 C.2     1  UNL1       -0.0600
      7  C         15.7610  -22.0830  -10.1440 C.3     1  UNL1        0.0480
      8  C         18.2130  -22.4220   -9.6780 C.2     1  UNL1        0.0370
      9  C         19.5710  -22.2580   -9.9940 C.2     1  UNL1        0.0480
     10  N         20.6220  -22.7780   -9.1740 N.am    1  UNL1       -0.3040
     11  C         21.9640  -22.5580   -9.4690 C.2     1  UNL1        0.2560
     12  O         22.8750  -22.9120   -8.7210 O.2     1  UNL1       -0.2670
     13  C         23.7800  -21.7040  -10.9930 C.3     1  UNL1        0.1360
     14  N         24.3130  -22.9240  -11.6060 N.pl3   1  UNL1       -0.2880
     15  H         25.1080  -23.2870  -11.0850 H       1  UNL1        0.1280
     16  C         24.5930  -22.9440  -12.9810 C.2     1  UNL1        0.0110
     17  C         24.2140  -21.9370  -13.8700 C.2     1  UNL1        0.0260
     18  C         24.4600  -22.0500  -15.2450 C.2     1  UNL1        0.0410
     19  C         25.0690  -23.1920  -15.7660 C.2     1  UNL1        0.1010
     20  C         25.4210  -24.2380  -14.8950 C.2     1  UNL1        0.1030
     21  C         25.1680  -24.1060  -13.5210 C.2     1  UNL1        0.0630
     22  O         25.3490  -23.3880  -17.0950 O.2     1  UNL1       -0.3530
     23  C         24.2620  -23.3620  -18.0070 C.3     1  UNL1        0.2100
     24  O         25.9970  -25.3400  -15.4780 O.2     1  UNL1       -0.3530
     25  C         27.1200  -25.9200  -14.8320 C.3     1  UNL1        0.2100
     26  C         20.3050  -23.5590   -7.9710 C.3     1  UNL1        0.2350
     27  C         19.3890  -22.8570   -6.9560 C.2     1  UNL1        0.2400
     28  O         19.6790  -21.7330   -6.5500 O.2     1  UNL1       -0.2710
     29  N         18.2410  -23.5630   -6.6510 N.am    1  UNL1       -0.3260
     30  H         18.1430  -24.4600   -7.1130 H       1  UNL1        0.1690
     31  C         17.2050  -23.2030   -5.7690 C.2     1  UNL1        0.0350
     32  C         17.4060  -23.4740   -4.4090 C.2     1  UNL1        0.0290
     33  C         16.4340  -23.1380   -3.4660 C.2     1  UNL1        0.0030
     34  C         15.2470  -22.5330   -3.8730 C.2     1  UNL1        0.0070
     35  C         15.0200  -22.2690   -5.2260 C.2     1  UNL1       -0.0600
     36  C         13.7580  -21.5900   -5.6700 C.3     1  UNL1        0.0480
     37  C         16.0110  -22.5960   -6.1680 C.2     1  UNL1        0.0360
@<TRIPOS>BOND
     1    23    22    1
     2    22    19    1
     3    19    18    2
     4    19    20    1
     5    24    20    1
     6    24    25    1
     7    18    17    1
     8    20    21    2
     9    17    16    2
    10    21    16    1
    11    16    14    1
    12     4     5    1
    13     4     3    2
    14     5     6    2
    15    14    15    1
    16    14    13    1
    17     2     3    1
    18     2     1    2
    19     3     9    1
    20    13     1    1
    21     1    11    1
    22     6     7    1
    23     6     8    1
    24     9     8    2
    25     9    10    1
    26    11    10   am
    27    11    12    2
    28    10    26    1
    29    26    27    1
    30    30    29    1
    31    27    29   am
    32    27    28    2
    33    29    31    1
    34    37    31    2
    35    37    35    1
    36    31    32    1
    37    36    35    1
    38    35    34    2
    39    32    33    2
    40    34    33    1
