@<TRIPOS>MOLECULE
3043_out_ligand_01.pdbqt
 32 34 0 0 0
SMALL
GASTEIGER

@<TRIPOS>ATOM
      1  N         15.6600  -22.6200   -7.2060 N.am    1  UNL1       -0.3450
      2  C         15.8930  -23.4720   -8.2610 C.2     1  UNL1        0.3100
      3  O         15.6520  -24.6720   -8.3010 O.2     1  UNL1       -0.2620
      4  H         16.0140  -21.6720   -7.3210 H       1  UNL1        0.1630
      5  C         16.5480  -22.7930   -9.4820 C.2     1  UNL1        0.3140
      6  O         15.8330  -22.2280  -10.2970 O.2     1  UNL1       -0.2620
      7  N         17.9210  -22.9230   -9.4540 N.am    1  UNL1       -0.3180
      8  H         18.2450  -23.4380   -8.6420 H       1  UNL1        0.1690
      9  C         18.8770  -22.4300  -10.3730 C.2     1  UNL1        0.0480
     10  C         18.4940  -21.5860  -11.4180 C.2     1  UNL1        0.0320
     11  C         19.4390  -21.1060  -12.3160 C.2     1  UNL1        0.0280
     12  C         20.7770  -21.4660  -12.1770 C.2     1  UNL1        0.0630
     13 CL         21.8890  -20.8200  -13.3430 Cl      1  UNL1       -0.0820
     14  C         21.2180  -22.3090  -11.1500 C.2     1  UNL1        0.0900
     15  N         22.5310  -22.6320  -11.0540 N.2     1  UNL1       -0.2590
     16  C         20.2550  -22.8030  -10.2300 C.2     1  UNL1        0.0210
     17  C         22.9450  -23.4450  -10.0650 C.2     1  UNL1        0.1170
     18  C         22.0990  -23.9760   -9.1230 C.2     1  UNL1        0.0200
     19  C         20.7500  -23.6510   -9.2080 C.2     1  UNL1        0.0170
     20  C         15.2980  -23.0980   -5.8690 C.3     1  UNL1        0.1180
     21  C         14.4450  -22.0050   -5.1930 C.3     1  UNL1        0.0230
     22  C         13.3870  -21.3720   -6.0840 C.3     1  UNL1        0.0070
     23  C         16.5530  -23.4990   -5.0260 C.3     1  UNL1        0.1770
     24  O         17.0090  -24.8040   -5.3990 O.3     1  UNL1       -0.3890
     25  H         17.6480  -25.0880   -4.7210 H       1  UNL1        0.2100
     26  C         17.7120  -22.5330   -5.1630 C.2     1  UNL1        0.0110
     27  C         18.5810  -22.5780   -6.2640 C.2     1  UNL1        0.0130
     28  C         19.6210  -21.6510   -6.3850 C.2     1  UNL1        0.0010
     29  C         19.8020  -20.6690   -5.4120 C.2     1  UNL1        0.0030
     30  C         18.9420  -20.6100   -4.3180 C.2     1  UNL1        0.0430
     31  C         17.9090  -21.5360   -4.2030 C.2     1  UNL1        0.1250
     32  F         17.0800  -21.4490   -3.1530 F       1  UNL1       -0.2050
@<TRIPOS>BOND
     1    13    12    1
     2    11    12    2
     3    11    10    1
     4    12    14    1
     5    10     9    2
     6    14    15    2
     7    14    16    1
     8    15    17    1
     9     9    16    1
    10     9     7    1
    11     6     5    2
    12    16    19    2
    13    17    18    2
    14     5     7   am
    15     5     2    1
    16     7     8    1
    17    19    18    1
    18     3     2    2
    19     2     1   am
    20     4     1    1
    21     1    20    1
    22    28    27    1
    23    28    29    2
    24    27    26    2
    25    22    21    1
    26    20    21    1
    27    20    23    1
    28    29    30    1
    29    24    23    1
    30    24    25    1
    31    26    23    1
    32    26    31    1
    33    30    31    2
    34    31    32    1
