@<TRIPOS>MOLECULE
30440_out_ligand_01.pdbqt
 33 37 0 0 0
SMALL
GASTEIGER

@<TRIPOS>ATOM
      1  N         21.9350  -21.8230   -9.8180 N.ar    1  UNL1       -0.2070
      2  N         21.3250  -21.3150  -10.9600 N.ar    1  UNL1       -0.1480
      3  C         20.0700  -21.6010  -10.7840 C.ar    1  UNL1        0.1760
      4  C         18.9540  -21.3020  -11.6890 C.2     1  UNL1        0.0570
      5  C         17.7230  -21.6680  -11.3070 C.2     1  UNL1        0.0450
      6  C         17.5860  -22.3540   -9.9970 C.2     1  UNL1        0.1190
      7  N         18.5570  -22.6210   -9.1830 N.2     1  UNL1       -0.1540
      8  N         19.7850  -22.2350   -9.6220 N.ar    1  UNL1       -0.1600
      9  C         20.9790  -22.3830   -8.9430 C.ar    1  UNL1        0.3680
     10  O         21.1920  -22.8670   -7.8430 O.2     1  UNL1       -0.2430
     11  C         23.3510  -21.6960   -9.5390 C.3     1  UNL1        0.2590
     12  C         24.2070  -21.6420  -10.8070 C.2     1  UNL1        0.2420
     13  O         25.2030  -20.9250  -10.8600 O.2     1  UNL1       -0.2710
     14  N         23.8180  -22.5640  -11.7620 N.am    1  UNL1       -0.3260
     15  H         23.0280  -23.1440  -11.4840 H       1  UNL1        0.1690
     16  C         24.3830  -22.8110  -13.0250 C.2     1  UNL1        0.0370
     17  C         25.2320  -23.8860  -13.3020 C.2     1  UNL1        0.0320
     18  C         25.7540  -24.0640  -14.5880 C.2     1  UNL1        0.0420
     19  C         25.4290  -23.1690  -15.6030 C.2     1  UNL1        0.1020
     20  C         24.6060  -22.0760  -15.3270 C.2     1  UNL1        0.1040
     21  O         25.9600  -23.4190  -16.8420 O.2     1  UNL1       -0.3460
     22  C         24.0740  -21.9060  -14.0480 C.2     1  UNL1        0.0690
     23  O         24.2690  -21.1320  -16.2650 O.2     1  UNL1       -0.3460
     24  C         25.1250  -21.2100  -17.4110 C.3     1  UNL1        0.2020
     25  C         25.2980  -22.6530  -17.8550 C.3     1  UNL1        0.2020
     26  S         15.9350  -22.7710   -9.5960 S.3     1  UNL1       -0.0690
     27  C         16.0740  -23.1140   -7.8520 C.2     1  UNL1        0.0100
     28  C         16.8000  -24.2340   -7.4240 C.2     1  UNL1        0.0190
     29  C         16.9040  -24.5310   -6.0630 C.2     1  UNL1        0.0040
     30  C         16.2770  -23.7150   -5.1260 C.2     1  UNL1        0.0420
     31  C         15.5480  -22.6110   -5.5570 C.2     1  UNL1        0.1170
     32  F         14.9380  -21.8340   -4.6520 F       1  UNL1       -0.2060
     33  C         15.4380  -22.3050   -6.9090 C.2     1  UNL1        0.0610
@<TRIPOS>BOND
     1    25    24    1
     2    25    21    1
     3    24    23    1
     4    21    19    1
     5    23    20    1
     6    19    20    2
     7    19    18    1
     8    20    22    1
     9    18    17    2
    10    22    16    2
    11    17    16    1
    12    16    14    1
    13    14    15    1
    14    14    12   am
    15     4     5    2
    16     4     3    1
    17     5     6    1
    18     2     3   ar
    19     2     1   ar
    20    13    12    2
    21    12    11    1
    22     3     8   ar
    23     6    26    1
    24     6     7    2
    25     1    11    1
    26     1     9   ar
    27     8     7    1
    28     8     9   ar
    29    26    27    1
    30     9    10    2
    31    27    28    2
    32    27    33    1
    33    28    29    1
    34    33    31    2
    35    29    30    2
    36    31    30    1
    37    31    32    1
