@<TRIPOS>MOLECULE
30451_out_ligand_01.pdbqt
 38 43 0 0 0
SMALL
GASTEIGER

@<TRIPOS>ATOM
      1  C         21.1950  -21.8550  -11.5860 C.2     1  UNL1        0.0320
      2  C         22.1730  -22.4990  -10.8190 C.2     1  UNL1        0.0170
      3  C         23.4660  -22.6600  -11.3250 C.2     1  UNL1        0.0100
      4  C         23.8050  -22.1760  -12.5970 C.2     1  UNL1       -0.0400
      5  C         22.8200  -21.5240  -13.3560 C.2     1  UNL1        0.0100
      6  C         21.5280  -21.3580  -12.8510 C.2     1  UNL1        0.0170
      7  C         19.8060  -21.6540  -11.0920 C.2     1  UNL1        0.2520
      8  O         19.0240  -20.9490  -11.7190 O.2     1  UNL1       -0.2680
      9  N         19.4670  -22.3180   -9.9300 N.am    1  UNL1       -0.3520
     10  H         20.1330  -22.9440   -9.5000 H       1  UNL1        0.1630
     11  C         18.1420  -22.1870   -9.3290 C.3     1  UNL1        0.0880
     12  C         18.1800  -22.4400   -7.8140 C.3     1  UNL1        0.0550
     13  C         17.7920  -23.8780   -7.4840 C.3     1  UNL1        0.2750
     14  N         16.4460  -24.2520   -7.9480 N.3     1  UNL1        0.0920
     15  C         15.9870  -23.4650   -9.1070 C.3     1  UNL1        0.2750
     16  C         17.1400  -23.1040  -10.0390 C.3     1  UNL1        0.0550
     17  C         15.4660  -24.2220   -6.8490 C.3     1  UNL1        0.3110
     18  C         16.0200  -23.6620   -5.5560 C.2     1  UNL1       -0.0300
     19  C         15.3850  -22.5850   -4.9180 C.2     1  UNL1        0.0090
     20  C         15.8910  -22.0700   -3.7230 C.2     1  UNL1        0.0010
     21  C         17.0340  -22.6260   -3.1540 C.2     1  UNL1        0.0000
     22  C         17.6740  -23.6960   -3.7770 C.2     1  UNL1        0.0010
     23  C         17.1690  -24.2130   -4.9720 C.2     1  UNL1        0.0090
     24  C         25.2030  -22.3640  -13.1500 C.3     1  UNL1        0.1720
     25  N         25.4980  -21.4610  -14.2550 N.am    1  UNL1       -0.2910
     26  C         26.0290  -20.2050  -13.9710 C.2     1  UNL1        0.2760
     27  O         26.3060  -19.8410  -12.8300 O.2     1  UNL1       -0.2650
     28  C         26.2440  -19.3510  -15.1120 C.2     1  UNL1        0.1080
     29  C         26.7410  -18.0620  -15.1690 C.2     1  UNL1        0.0370
     30  N         25.9560  -19.7530  -16.3900 N.pl3   1  UNL1       -0.3140
     31  C         26.7540  -17.6720  -16.5270 C.2     1  UNL1        0.0200
     32  C         26.2650  -18.7320  -17.2600 C.2     1  UNL1        0.0980
     33  C         25.4370  -21.0270  -16.6650 C.2     1  UNL1        0.0860
     34  C         25.1550  -21.4540  -17.9640 C.2     1  UNL1        0.0350
     35  C         25.2070  -21.8800  -15.5810 C.2     1  UNL1        0.1600
     36  C         24.6490  -22.7340  -18.1510 C.2     1  UNL1        0.0220
     37  C         24.4520  -23.5280  -17.0360 C.2     1  UNL1        0.1190
     38  N         24.7180  -23.1300  -15.7710 N.2     1  UNL1       -0.2410
@<TRIPOS>BOND
     1    36    34    1
     2    36    37    2
     3    34    33    2
     4    32    31    2
     5    32    30    1
     6    37    38    1
     7    33    30    1
     8    33    35    1
     9    31    29    1
    10    30    28    1
    11    38    35    2
    12    35    25    1
    13    29    28    2
    14    28    26    1
    15    25    26   am
    16    25    24    1
    17    26    27    2
    18     5     6    1
    19     5     4    2
    20    24     4    1
    21     6     1    2
    22     4     3    1
    23     8     7    2
    24     1     7    1
    25     1     2    1
    26     3     2    2
    27     7     9   am
    28    16    11    1
    29    16    15    1
    30     9    10    1
    31     9    11    1
    32    11    12    1
    33    15    14    1
    34    14    13    1
    35    14    17    1
    36    12    13    1
    37    17    18    1
    38    18    23    2
    39    18    19    1
    40    23    22    1
    41    19    20    2
    42    22    21    2
    43    20    21    1
