@<TRIPOS>MOLECULE
3045_out_ligand_01.pdbqt
 32 34 0 0 0
SMALL
GASTEIGER

@<TRIPOS>ATOM
      1  C         18.4830  -22.7470   -6.4560 C.2     1  UNL1        0.1000
      2  C         18.2230  -21.6870   -5.5720 C.2     1  UNL1        0.0270
      3  C         19.1740  -20.6920   -5.3680 C.2     1  UNL1        0.0020
      4  C         20.3860  -20.7410   -6.0520 C.2     1  UNL1        0.0080
      5  C         20.6630  -21.7870   -6.9470 C.2     1  UNL1       -0.0400
      6  C         21.9930  -21.8000   -7.6590 C.3     1  UNL1        0.0500
      7  C         19.7000  -22.8060   -7.1560 C.2     1  UNL1        0.0730
      8  C         20.0250  -23.8880   -8.0450 C.1     1  UNL1        0.1010
      9  N         20.3560  -24.7670   -8.7260 N.1     1  UNL1       -0.1910
     10  S         17.1850  -23.9390   -6.6980 S.O2    1  UNL1        0.2600
     11  O         17.6610  -25.2030   -6.1790 O.2     1  UNL1       -0.2000
     12  O         15.9280  -23.3890   -6.2560 O.2     1  UNL1       -0.2000
     13  N         17.1620  -24.1270   -8.3600 N.3     1  UNL1       -0.3110
     14  H         17.1300  -25.1100   -8.6270 H       1  UNL1        0.1720
     15  C         16.3340  -23.2200   -9.1560 C.3     1  UNL1        0.1700
     16  C         17.1960  -22.3630  -10.0530 C.2     1  UNL1       -0.0380
     17  C         16.6360  -21.2840  -10.7480 C.2     1  UNL1        0.0090
     18  C         17.4330  -20.4850  -11.5640 C.2     1  UNL1        0.0030
     19  C         18.7990  -20.7560  -11.6980 C.2     1  UNL1        0.0290
     20  C         19.3780  -21.8280  -11.0180 C.2     1  UNL1        0.0350
     21  C         18.5690  -22.6230  -10.1930 C.2     1  UNL1        0.0380
     22  N         20.7460  -22.1630  -11.0970 N.am    1  UNL1       -0.3230
     23  C         21.6510  -21.7800  -12.0700 C.2     1  UNL1        0.2560
     24  O         21.4150  -21.1260  -13.0780 O.2     1  UNL1       -0.2670
     25  H         21.0780  -22.8150  -10.3970 H       1  UNL1        0.1690
     26  C         23.0430  -22.2700  -11.8550 C.2     1  UNL1        0.0320
     27  C         23.9930  -22.2620  -12.8820 C.2     1  UNL1        0.0170
     28  C         25.2880  -22.7290  -12.6390 C.2     1  UNL1        0.0070
     29  C         25.6460  -23.2040  -11.3700 C.2     1  UNL1       -0.0620
     30  C         27.0260  -23.7370  -11.1230 C.3     1  UNL1        0.0480
     31  C         24.6810  -23.2410  -10.3560 C.2     1  UNL1        0.0070
     32  C         23.3860  -22.7770  -10.5970 C.2     1  UNL1        0.0170
@<TRIPOS>BOND
     1    24    23    2
     2    27    28    1
     3    27    26    2
     4    28    29    2
     5    23    26    1
     6    23    22   am
     7    26    32    1
     8    19    18    2
     9    19    20    1
    10    18    17    1
    11    29    30    1
    12    29    31    1
    13    22    20    1
    14    22    25    1
    15    20    21    2
    16    17    16    2
    17    32    31    2
    18    21    16    1
    19    16    15    1
    20    15    13    1
    21     9     8    3
    22    14    13    1
    23    13    10    1
    24     8     7    1
    25     6     5    1
    26     7     5    1
    27     7     1    2
    28     5     4    2
    29    10     1    1
    30    10    12    2
    31    10    11    2
    32     1     2    1
    33     4     3    1
    34     2     3    2
