@<TRIPOS>MOLECULE
30469_out_ligand_01.pdbqt
 40 43 0 0 0
SMALL
GASTEIGER

@<TRIPOS>ATOM
      1  C         22.4630  -21.8020  -11.0260 C.2     1  UNL1        0.0980
      2  C         21.9330  -21.1890  -12.0970 C.2     1  UNL1        0.1090
      3  N         20.5920  -20.9760  -12.2930 N.pl3   1  UNL1       -0.3640
      4  C         19.6510  -21.5410  -11.4170 C.2     1  UNL1        0.0460
      5  C         18.2800  -21.3880  -11.6450 C.2     1  UNL1        0.0320
      6  C         17.3520  -21.9140  -10.7430 C.2     1  UNL1        0.0270
      7  C         17.7960  -22.5880   -9.6000 C.2     1  UNL1        0.0810
      8  C         19.1600  -22.7100   -9.3280 C.2     1  UNL1        0.0430
      9  C         20.0820  -22.1900  -10.2430 C.2     1  UNL1        0.0430
     10  C         21.5410  -22.3250   -9.9880 C.2     1  UNL1        0.2010
     11  O         21.9430  -22.8360   -8.9500 O.2     1  UNL1       -0.2860
     12  H         20.2810  -20.7240  -13.2260 H       1  UNL1        0.1650
     13  C         23.9250  -21.9890  -10.9580 C.2     1  UNL1        0.2570
     14  N         24.3640  -23.1500  -11.5580 N.am    1  UNL1       -0.3560
     15  H         23.7130  -23.6900  -12.1110 H       1  UNL1        0.1620
     16  O         24.6540  -21.1880  -10.3920 O.2     1  UNL1       -0.2670
     17  C         25.7800  -23.4390  -11.6860 C.3     1  UNL1        0.1270
     18  C         26.4530  -22.5930  -12.7700 C.3     1  UNL1        0.0580
     19  C         25.8380  -22.8290  -14.1270 C.2     1  UNL1       -0.0540
     20  C         25.6900  -24.1260  -14.6260 C.2     1  UNL1        0.0100
     21  C         25.1100  -24.3400  -15.8790 C.2     1  UNL1        0.0400
     22  C         24.6650  -23.2600  -16.6490 C.2     1  UNL1        0.1010
     23  C         24.8010  -21.9490  -16.1500 C.2     1  UNL1        0.1020
     24  C         25.3860  -21.7450  -14.8950 C.2     1  UNL1        0.0460
     25  O         24.0890  -23.3780  -17.8910 O.2     1  UNL1       -0.3530
     26  C         22.7760  -23.9170  -17.9610 C.3     1  UNL1        0.2100
     27  O         24.3320  -20.9430  -16.9610 O.2     1  UNL1       -0.3530
     28  C         25.2910  -20.1560  -17.6560 C.3     1  UNL1        0.2100
     29  S         16.6150  -23.2590   -8.4500 S.O2    1  UNL1        0.2630
     30  O         17.2230  -24.4050   -7.8070 O.2     1  UNL1       -0.2000
     31  O         15.3530  -23.3780   -9.1480 O.2     1  UNL1       -0.2000
     32  N         16.4210  -22.0130   -7.3280 N.pl3   1  UNL1       -0.2800
     33  H         16.8060  -21.1310   -7.6590 H       1  UNL1        0.1790
     34  C         16.4650  -22.2950   -5.9300 C.2     1  UNL1        0.0480
     35  C         15.3230  -22.7790   -5.2850 C.2     1  UNL1        0.0300
     36  C         15.3560  -23.0880   -3.9250 C.2     1  UNL1        0.0020
     37  C         16.5300  -22.9080   -3.2000 C.2     1  UNL1        0.0010
     38  C         17.6690  -22.4080   -3.8330 C.2     1  UNL1        0.0090
     39  C         17.6520  -22.0920   -5.2030 C.2     1  UNL1       -0.0350
     40  C         18.8970  -21.5350   -5.8350 C.3     1  UNL1        0.0500
@<TRIPOS>BOND
     1    26    25    1
     2    25    22    1
     3    28    27    1
     4    27    23    1
     5    22    23    2
     6    22    21    1
     7    23    24    1
     8    21    20    2
     9    24    19    2
    10    20    19    1
    11    19    18    1
    12    12     3    1
    13    18    17    1
    14     3     2    1
    15     3     4    1
    16    15    14    1
    17     2     1    2
    18    17    14    1
    19     5     4    2
    20     5     6    1
    21    14    13   am
    22     4     9    1
    23     1    13    1
    24     1    10    1
    25    13    16    2
    26     6     7    2
    27     9    10    1
    28     9     8    2
    29    10    11    2
    30     7     8    1
    31     7    29    1
    32    31    29    2
    33    29    30    2
    34    29    32    1
    35    33    32    1
    36    32    34    1
    37    34    35    2
    38    34    39    1
    39    40    39    1
    40    35    36    1
    41    39    38    2
    42    36    37    2
    43    38    37    1
