@<TRIPOS>MOLECULE
30485_out_ligand_01.pdbqt
 37 41 0 0 0
SMALL
GASTEIGER

@<TRIPOS>ATOM
      1  C         20.7570  -21.3120  -12.5170 C.2     1  UNL1        0.0540
      2  C         22.0540  -21.6310  -12.3450 C.2     1  UNL1        0.1450
      3  O         22.4760  -22.2990  -11.2130 O.2     1  UNL1       -0.3030
      4  C         23.8040  -22.6060  -11.0930 C.2     1  UNL1        0.1030
      5  C         24.1590  -23.2940   -9.9270 C.2     1  UNL1        0.0390
      6  C         25.4820  -23.6600   -9.7080 C.2     1  UNL1        0.0030
      7  C         26.4460  -23.3370  -10.6560 C.2     1  UNL1        0.0020
      8  C         26.0880  -22.6470  -11.8200 C.2     1  UNL1        0.0330
      9  C         24.7590  -22.2670  -12.0550 C.2     1  UNL1        0.0710
     10  N         24.3500  -21.5590  -13.2200 N.am    1  UNL1       -0.3050
     11  C         23.0190  -21.2080  -13.4150 C.2     1  UNL1        0.2820
     12  O         22.6270  -20.5800  -14.3990 O.2     1  UNL1       -0.2650
     13  C         19.6710  -21.6300  -11.5800 C.2     1  UNL1       -0.0330
     14  C         19.8310  -22.5630  -10.5470 C.2     1  UNL1        0.0120
     15  C         18.7670  -22.8680   -9.6910 C.2     1  UNL1        0.0180
     16  C         17.5270  -22.2410   -9.8620 C.2     1  UNL1        0.0320
     17  C         17.3550  -21.3340  -10.9140 C.2     1  UNL1        0.0180
     18  C         18.4190  -21.0320  -11.7670 C.2     1  UNL1        0.0120
     19  C         16.3620  -22.5320   -8.9820 C.2     1  UNL1        0.2520
     20  O         15.3310  -22.9880   -9.4630 O.2     1  UNL1       -0.2680
     21  N         16.5120  -22.2320   -7.6440 N.am    1  UNL1       -0.3520
     22  H         17.3790  -21.8330   -7.3140 H       1  UNL1        0.1630
     23  C         15.4790  -22.5480   -6.6630 C.3     1  UNL1        0.0840
     24  C         15.5920  -21.6270   -5.4400 C.3     1  UNL1        0.0250
     25  C         16.8190  -21.8200   -4.5510 C.3     1  UNL1        0.0020
     26  C         17.1690  -23.2560   -4.1740 C.3     1  UNL1        0.0000
     27  C         15.9780  -24.1480   -3.8330 C.2     1  UNL1        0.0000
     28  C         14.9860  -24.4360   -4.9670 C.2     1  UNL1        0.0020
     29  C         15.4650  -24.0620   -6.3670 C.3     1  UNL1        0.0250
     30  C         25.3170  -21.1540  -14.2420 C.3     1  UNL1        0.1740
     31  C         25.0600  -21.7640  -15.6010 C.2     1  UNL1       -0.0010
     32  C         24.6950  -23.1110  -15.7440 C.2     1  UNL1        0.0120
     33  C         24.4830  -23.6600  -17.0120 C.2     1  UNL1        0.0010
     34  C         24.6430  -22.8740  -18.1530 C.2     1  UNL1        0.0030
     35  C         25.0210  -21.5400  -18.0260 C.2     1  UNL1        0.0430
     36  C         25.2300  -21.0000  -16.7590 C.2     1  UNL1        0.1240
     37  F         25.6000  -19.7140  -16.6640 F       1  UNL1       -0.2050
@<TRIPOS>BOND
     1    34    35    2
     2    34    33    1
     3    35    36    1
     4    33    32    2
     5    36    37    1
     6    36    31    2
     7    32    31    1
     8    31    30    1
     9    12    11    2
    10    30    10    1
    11    11    10   am
    12    11     2    1
    13    10     9    1
    14     1     2    2
    15     1    13    1
    16     2     3    1
    17     9     8    1
    18     9     4    2
    19     8     7    2
    20    18    13    2
    21    18    17    1
    22    13    14    1
    23     3     4    1
    24     4     5    1
    25    17    16    2
    26     7     6    1
    27    14    15    2
    28     5     6    2
    29    16    15    1
    30    16    19    1
    31    20    19    2
    32    19    21   am
    33    21    22    1
    34    21    23    1
    35    23    29    1
    36    23    24    1
    37    29    28    1
    38    24    25    1
    39    28    27    2
    40    25    26    1
    41    26    27    1
