@<TRIPOS>MOLECULE
3048_out_ligand_01.pdbqt
 34 38 0 0 0
SMALL
GASTEIGER

@<TRIPOS>ATOM
      1  C         22.2770  -22.7320   -8.7540 C.2     1  UNL1        0.2930
      2  O         22.0660  -21.8190   -7.9710 O.2     1  UNL1       -0.2590
      3  C         22.9840  -22.5480  -10.0520 C.2     1  UNL1        0.0390
      4  C         22.3460  -22.0550  -11.1930 C.2     1  UNL1        0.0180
      5  C         23.0560  -21.8970  -12.3920 C.2     1  UNL1        0.0110
      6  C         24.4210  -22.2170  -12.4780 C.2     1  UNL1       -0.0210
      7  C         25.0460  -22.7220  -11.3200 C.2     1  UNL1        0.0110
      8  C         24.3400  -22.8800  -10.1210 C.2     1  UNL1        0.0180
      9  C         25.2040  -22.0700  -13.7820 C.3     1  UNL1        0.1390
     10  C         26.7320  -22.1070  -13.6580 C.3     1  UNL1        0.0540
     11  N         24.7940  -23.0560  -14.7660 N.am    1  UNL1       -0.3210
     12  C         24.2810  -22.4850  -15.9030 C.2     1  UNL1        0.3240
     13  H         24.8190  -24.0590  -14.6390 H       1  UNL1        0.1650
     14  O         23.8440  -23.1010  -16.8580 O.2     1  UNL1       -0.2470
     15  N         24.3220  -21.1410  -15.7710 N.am    1  UNL1       -0.2770
     16  C         24.8070  -20.7860  -14.5480 C.2     1  UNL1        0.2580
     17  H         23.9730  -20.4950  -16.4570 H       1  UNL1        0.1730
     18  O         24.9170  -19.6340  -14.1520 O.2     1  UNL1       -0.2700
     19  O         21.9280  -24.0260   -8.5890 O.3     1  UNL1       -0.3110
     20  C         20.8390  -24.4830   -9.4110 C.3     1  UNL1        0.2400
     21  C         19.5500  -23.8180   -9.0510 C.ar    1  UNL1        0.0870
     22  N         19.0300  -23.9340   -7.8140 N.ar    1  UNL1       -0.1690
     23  N         17.8470  -23.2330   -7.8310 N.ar    1  UNL1       -0.2370
     24  C         17.6770  -22.6650   -9.0630 C.ar    1  UNL1        0.0450
     25  C         18.7270  -23.0340   -9.8530 C.ar    1  UNL1       -0.0050
     26  C         16.6990  -21.7950   -9.7400 C.3     1  UNL1        0.0600
     27  C         18.6240  -22.4920  -11.2180 C.3     1  UNL1        0.0430
     28  C         17.4820  -21.4350  -11.0500 C.3     1  UNL1        0.0110
     29  C         17.0170  -23.1920   -6.6750 C.2     1  UNL1        0.0580
     30  C         15.7890  -23.8740   -6.6920 C.2     1  UNL1        0.0310
     31  C         14.9510  -23.8560   -5.5740 C.2     1  UNL1        0.0020
     32  C         15.3300  -23.1570   -4.4310 C.2     1  UNL1        0.0000
     33  C         16.5430  -22.4730   -4.4060 C.2     1  UNL1        0.0020
     34  C         17.3860  -22.4880   -5.5220 C.2     1  UNL1        0.0310
@<TRIPOS>BOND
     1    14    12    2
     2    17    15    1
     3    12    15   am
     4    12    11   am
     5    15    16   am
     6    11    13    1
     7    11     9    1
     8    16    18    2
     9    16     9    1
    10     9    10    1
    11     9     6    1
    12     6     5    2
    13     6     7    1
    14     5     4    1
    15     7     8    2
    16    27    28    1
    17    27    25    1
    18     4     3    2
    19    28    26    1
    20     8     3    1
    21     3     1    1
    22    25    24   ar
    23    25    21   ar
    24    26    24    1
    25    20    21    1
    26    20    19    1
    27    24    23   ar
    28    21    22   ar
    29     1    19    1
    30     1     2    2
    31    23    22   ar
    32    23    29    1
    33    30    29    2
    34    30    31    1
    35    29    34    1
    36    31    32    2
    37    34    33    2
    38    32    33    1
