@<TRIPOS>MOLECULE
304_out_ligand_01.pdbqt
 35 37 0 0 0
SMALL
GASTEIGER

@<TRIPOS>ATOM
      1  C         20.9870  -22.4010  -10.7460 C.2     1  UNL1        0.0360
      2  C         20.6170  -21.4440  -11.6860 C.2     1  UNL1        0.0300
      3  C         19.2870  -21.0320  -11.7970 C.2     1  UNL1        0.0100
      4  C         18.2910  -21.5450  -10.9500 C.2     1  UNL1       -0.0390
      5  C         16.8850  -21.0410  -11.1220 C.3     1  UNL1        0.0500
      6  C         18.6710  -22.5080  -10.0000 C.2     1  UNL1        0.0830
      7  C         20.0040  -22.9470   -9.9190 C.2     1  UNL1        0.0540
      8  N         22.3070  -22.8550  -10.5660 N.am    1  UNL1       -0.3240
      9  C         23.3470  -22.1740   -9.9770 C.2     1  UNL1        0.2450
     10  O         23.3400  -21.0620   -9.4730 O.2     1  UNL1       -0.2680
     11  H         22.5090  -23.7970  -10.8850 H       1  UNL1        0.1690
     12  C         24.5720  -23.0060   -9.9340 C.2     1  UNL1        0.0750
     13  C         25.6020  -22.8230  -10.7670 C.2     1  UNL1        0.0200
     14  C         25.6930  -21.7650  -11.7870 C.2     1  UNL1       -0.0030
     15  C         26.2780  -20.5390  -11.4430 C.2     1  UNL1        0.0170
     16  C         26.4190  -19.5220  -12.3900 C.2     1  UNL1        0.0380
     17  C         25.9870  -19.7270  -13.6960 C.2     1  UNL1        0.0700
     18  C         25.4000  -20.9500  -14.0470 C.2     1  UNL1        0.0740
     19  C         25.2410  -21.9740  -13.1040 C.2     1  UNL1        0.0810
     20  O         26.0920  -18.8250  -14.7200 O.2     1  UNL1       -0.3560
     21  C         27.1210  -17.8480  -14.6100 C.3     1  UNL1        0.2100
     22  O         24.6690  -23.1950  -13.3650 O.2     1  UNL1       -0.3550
     23  C         25.3080  -24.0170  -14.3340 C.3     1  UNL1        0.2100
     24  S         17.5170  -23.2150   -8.8300 S.O2    1  UNL1        0.2460
     25  O         16.3370  -23.6520   -9.5420 O.2     1  UNL1       -0.2060
     26  O         18.2490  -24.1400   -7.9910 O.2     1  UNL1       -0.2060
     27  N         17.0610  -21.8700   -7.8990 N.pl3   1  UNL1       -0.1800
     28  H         17.7060  -21.0890   -8.0510 H       1  UNL1        0.1460
     29  C         16.6830  -22.0910   -6.5290 C.2     1  UNL1        0.0440
     30  C         15.3880  -22.5290   -6.2320 C.2     1  UNL1        0.0260
     31  C         15.0190  -22.7900   -4.9080 C.2     1  UNL1        0.0020
     32  C         15.9420  -22.6160   -3.8770 C.2     1  UNL1        0.0020
     33  C         17.2410  -22.1780   -4.1660 C.2     1  UNL1        0.0260
     34  C         17.6060  -21.9110   -5.4870 C.2     1  UNL1        0.0560
     35 CL         19.2120  -21.3470   -5.8010 Cl      1  UNL1       -0.0820
@<TRIPOS>BOND
     1    20    21    1
     2    20    17    1
     3    23    22    1
     4    18    17    2
     5    18    19    1
     6    17    16    1
     7    22    19    1
     8    19    14    2
     9    16    15    2
    10     3     2    1
    11     3     4    2
    12    14    15    1
    13    14    13    1
    14     2     1    2
    15     5     4    1
    16     4     6    1
    17    11     8    1
    18    13    12    2
    19     1     8    1
    20     1     7    1
    21     8     9   am
    22     6     7    2
    23     6    24    1
    24     9    12    1
    25     9    10    2
    26    25    24    2
    27    24    26    2
    28    24    27    1
    29    28    27    1
    30    27    29    1
    31    29    30    2
    32    29    34    1
    33    30    31    1
    34    35    34    1
    35    34    33    2
    36    31    32    2
    37    33    32    1
