@<TRIPOS>MOLECULE
3051_out_ligand_01.pdbqt
 30 33 0 0 0
SMALL
GASTEIGER

@<TRIPOS>ATOM
      1  S         20.6050  -23.1220   -8.9030 S.3     1  UNL1        0.3030
      2  O         20.4710  -21.9900   -8.0040 O.3     1  UNL1       -0.1930
      3  O         21.4730  -24.2370   -8.5830 O.3     1  UNL1       -0.1930
      4  O         19.1160  -23.6730   -9.2690 O.2     1  UNL1       -0.2290
      5  C         18.0080  -23.3740   -8.5180 C.2     1  UNL1        0.0920
      6  C         17.9570  -23.9910   -7.2690 C.2     1  UNL1        0.0760
      7  C         16.8730  -23.7510   -6.4250 C.2     1  UNL1        0.0880
      8  O         16.8710  -24.4390   -5.1970 O.3     1  UNL1       -0.2780
      9  C         15.8230  -22.9050   -6.7880 C.2     1  UNL1       -0.0200
     10  C         15.9890  -24.0890   -4.1860 C.2     1  UNL1        0.2640
     11  C         15.2340  -22.8070   -4.4040 C.3     1  UNL1        0.1200
     12  O         15.8960  -24.7470   -3.1530 O.2     1  UNL1       -0.2650
     13  C         14.6750  -22.7360   -5.8220 C.3     1  UNL1        0.0260
     14  C         13.8730  -21.4430   -5.9880 C.3     1  UNL1        0.0150
     15  C         15.8770  -22.3090   -8.0520 C.2     1  UNL1        0.0130
     16  C         16.9650  -22.5350   -8.9080 C.2     1  UNL1        0.0390
     17  C         21.1910  -22.4790  -10.4580 C.2     1  UNL1        0.0870
     18  C         20.3340  -21.7330  -11.2760 C.2     1  UNL1        0.0280
     19  C         20.7980  -21.2410  -12.5000 C.2     1  UNL1        0.0320
     20  C         22.1100  -21.5020  -12.8950 C.ar    1  UNL1        0.0520
     21  N         22.5840  -21.0170  -14.1160 N.ar    1  UNL1       -0.3080
     22  C         22.9560  -22.2510  -12.0740 C.ar    1  UNL1        0.0600
     23  C         23.8550  -21.2320  -14.5640 C.ar    1  UNL1        0.3270
     24  H         21.9880  -20.4730  -14.7270 H       1  UNL1        0.1700
     25  O         24.2360  -20.7920  -15.6430 O.2     1  UNL1       -0.2470
     26  N         24.6730  -21.9620  -13.7510 N.ar    1  UNL1       -0.2750
     27  C         24.3330  -22.5060  -12.5360 C.ar    1  UNL1        0.2610
     28  H         25.6110  -22.1280  -14.0820 H       1  UNL1        0.1730
     29  O         25.1160  -23.1710  -11.8690 O.2     1  UNL1       -0.2670
     30  C         22.5060  -22.7460  -10.8470 C.2     1  UNL1        0.0450
@<TRIPOS>BOND
     1    25    23    2
     2    24    21    1
     3    23    21   ar
     4    23    26   ar
     5    21    20   ar
     6    28    26    1
     7    26    27   ar
     8    20    19    2
     9    20    22   ar
    10    27    22   ar
    11    27    29    2
    12    19    18    1
    13    22    30    2
    14    18    17    2
    15    30    17    1
    16    17     1    1
    17     4     1    1
    18     4     5    1
    19    16     5    2
    20    16    15    1
    21     1     3    1
    22     1     2    1
    23     5     6    1
    24    15     9    2
    25     6     7    2
    26     9     7    1
    27     9    13    1
    28     7     8    1
    29    14    13    1
    30    13    11    1
    31     8    10    1
    32    11    10    1
    33    10    12    2
