@<TRIPOS>MOLECULE
30522_out_ligand_01.pdbqt
 33 36 0 0 0
SMALL
GASTEIGER

@<TRIPOS>ATOM
      1  C         14.3710  -23.3200   -4.5270 C.3     1  UNL1        0.0480
      2  C         15.6020  -23.4470   -5.3780 C.2     1  UNL1       -0.0610
      3  C         15.6820  -24.4400   -6.3580 C.2     1  UNL1        0.0090
      4  C         16.8040  -24.5600   -7.1840 C.2     1  UNL1        0.0310
      5  C         17.8420  -23.6410   -7.0040 C.ar    1  UNL1        0.0430
      6  N         19.0410  -23.5230   -7.6630 N.ar    1  UNL1       -0.3520
      7  C         19.7660  -22.4680   -7.1680 C.ar    1  UNL1        0.0950
      8  C         21.0510  -22.1510   -7.7020 C.2     1  UNL1        0.2230
      9  N         21.6230  -22.8440   -8.6680 N.2     1  UNL1       -0.2030
     10  C         22.8180  -22.1910   -8.8360 C.2     1  UNL1        0.1580
     11  N         22.9990  -21.1330   -8.0380 N.4     1  UNL1       -0.1110
     12  O         21.8300  -21.1060   -7.2770 O.2     1  UNL1       -0.1890
     13  C         19.0220  -21.8790   -6.1570 C.ar    1  UNL1       -0.0180
     14  C         19.4130  -20.7000   -5.3350 C.3     1  UNL1        0.0520
     15  C         17.8000  -22.6250   -6.0510 C.ar    1  UNL1       -0.0010
     16  C         16.6550  -22.5270   -5.2320 C.2     1  UNL1        0.0210
     17  H         19.3560  -24.1230   -8.4130 H       1  UNL1        0.1660
     18  C         23.8190  -22.6080   -9.8460 C.3     1  UNL1        0.1030
     19  C         23.1970  -23.2650  -11.0830 C.3     1  UNL1        0.1330
     20  N         23.2170  -22.4300  -12.2970 N.am    1  UNL1       -0.3520
     21  C         24.5030  -22.2570  -12.9550 C.3     1  UNL1        0.1520
     22  C         22.2260  -21.4940  -12.6130 C.2     1  UNL1        0.2530
     23  O         22.3870  -20.5680  -13.4020 O.2     1  UNL1       -0.2670
     24  C         20.9000  -21.6100  -11.9720 C.2     1  UNL1        0.0320
     25  C         20.4570  -22.8400  -11.4790 C.2     1  UNL1        0.0180
     26  C         19.1870  -22.9360  -10.9030 C.2     1  UNL1        0.0170
     27  C         18.3510  -21.8090  -10.8250 C.2     1  UNL1        0.0480
     28  C         18.8000  -20.5880  -11.3570 C.2     1  UNL1        0.0170
     29  C         20.0680  -20.4880  -11.9330 C.2     1  UNL1        0.0180
     30  C         16.9690  -21.9220  -10.2260 C.3     1  UNL1        0.4170
     31  F         16.5250  -23.2090  -10.1570 F       1  UNL1       -0.1660
     32  F         16.8970  -21.4380   -8.9540 F       1  UNL1       -0.1660
     33  F         16.0350  -21.2410  -10.9420 F       1  UNL1       -0.1660
@<TRIPOS>BOND
     1    23    22    2
     2    21    20    1
     3    22    20   am
     4    22    24    1
     5    20    19    1
     6    24    29    2
     7    24    25    1
     8    29    28    1
     9    25    26    2
    10    28    27    2
    11    19    18    1
    12    33    30    1
    13    26    27    1
    14    27    30    1
    15    30    31    1
    16    30    32    1
    17    18    10    1
    18    10     9    2
    19    10    11    1
    20     9     8    2
    21    17     6    1
    22    11    12    1
    23     8    12    1
    24     8     7    1
    25     6     7   ar
    26     6     5   ar
    27     4     5    2
    28     4     3    1
    29     7    13   ar
    30     5    15   ar
    31     3     2    2
    32    13    15   ar
    33    13    14    1
    34    15    16    2
    35     2    16    1
    36     2     1    1
