@<TRIPOS>MOLECULE
30537_out_ligand_01.pdbqt
 29 32 0 0 0
SMALL
GASTEIGER

@<TRIPOS>ATOM
      1  C         23.3490  -22.7940   -9.3020 C.2     1  UNL1       -0.0400
      2  C         23.0190  -21.7620   -8.4020 C.2     1  UNL1        0.0110
      3  C         21.7860  -21.7480   -7.7400 C.2     1  UNL1        0.0310
      4  C         20.8890  -22.7710   -7.9880 C.2     1  UNL1        0.0430
      5  C         21.2040  -23.7930   -8.8840 C.2     1  UNL1       -0.0290
      6  C         22.4220  -23.8200   -9.5480 C.2     1  UNL1        0.0180
      7  C         20.0740  -24.7610   -9.0290 C.2     1  UNL1        0.0610
      8  C         19.0830  -24.2530   -7.9760 C.2     1  UNL1        0.1370
      9  N         19.6090  -22.9820   -7.4420 N.am    1  UNL1       -0.3130
     10  C         18.9650  -22.1320   -6.5590 C.2     1  UNL1        0.2580
     11  O         19.3690  -21.0420   -6.1630 O.2     1  UNL1       -0.2670
     12  C         24.6710  -22.7890  -10.0260 C.3     1  UNL1        0.1610
     13  N         24.4680  -22.4830  -11.4240 N.am    1  UNL1       -0.3510
     14  C         25.2190  -21.5340  -12.0860 C.2     1  UNL1        0.2750
     15  O         26.0680  -20.8650  -11.4980 O.2     1  UNL1       -0.2650
     16  H         23.7990  -23.0440  -11.9270 H       1  UNL1        0.1630
     17  C         24.9310  -21.4030  -13.5040 C.2     1  UNL1        0.1440
     18  C         24.7160  -20.3140  -14.3360 C.2     1  UNL1        0.0460
     19  C         24.4770  -20.8270  -15.6350 C.2     1  UNL1        0.0480
     20  C         24.5590  -22.1950  -15.5260 C.2     1  UNL1        0.1220
     21 BR         24.3270  -23.4250  -16.9590 Br      1  UNL1       -0.0230
     22  O         24.8320  -22.5520  -14.2450 O.2     1  UNL1       -0.2980
     23  C         17.6500  -22.5720   -6.0510 C.2     1  UNL1        0.0320
     24  C         17.5940  -23.3000   -4.8570 C.2     1  UNL1        0.0200
     25  C         16.3590  -23.7370   -4.3790 C.2     1  UNL1        0.0430
     26  C         15.2030  -23.4550   -5.1030 C.2     1  UNL1        0.1160
     27  F         14.0190  -23.8790   -4.6420 F       1  UNL1       -0.2060
     28  C         15.2580  -22.7520   -6.3030 C.2     1  UNL1        0.0430
     29  C         16.4890  -22.3100   -6.7860 C.2     1  UNL1        0.0200
@<TRIPOS>BOND
     1    21    20    1
     2    19    20    2
     3    19    18    1
     4    20    22    1
     5    18    17    2
     6    22    17    1
     7    17    14    1
     8    14    15    2
     9    14    13   am
    10    16    13    1
    11    13    12    1
    12    12     1    1
    13     6     1    2
    14     6     5    1
    15     1     2    1
    16     7     5    1
    17     7     8    2
    18     5     4    2
    19     2     3    2
    20     4     3    1
    21     4     9    1
    22     8     9    1
    23     9    10   am
    24    29    28    1
    25    29    23    2
    26    10    11    2
    27    10    23    1
    28    28    26    2
    29    23    24    1
    30    26    27    1
    31    26    25    1
    32    24    25    2
