@<TRIPOS>MOLECULE
30539_out_ligand_01.pdbqt
 31 34 0 0 0
SMALL
GASTEIGER

@<TRIPOS>ATOM
      1  C         22.9020  -22.8940   -9.1740 C.2     1  UNL1       -0.0400
      2  C         22.6730  -21.7700   -8.3550 C.2     1  UNL1        0.0110
      3  C         21.4940  -21.6480   -7.6110 C.2     1  UNL1        0.0310
      4  C         20.5510  -22.6570   -7.6930 C.2     1  UNL1        0.0430
      5  C         20.7740  -23.7760   -8.4960 C.2     1  UNL1       -0.0290
      6  C         21.9410  -23.9130   -9.2330 C.2     1  UNL1        0.0180
      7  C         19.6470  -24.7520   -8.3940 C.2     1  UNL1        0.0610
      8  C         18.6360  -23.9840   -7.5330 C.2     1  UNL1        0.1370
      9  N         19.3000  -22.7560   -7.0570 N.am    1  UNL1       -0.3130
     10  C         18.8060  -21.8650   -6.1170 C.2     1  UNL1        0.2580
     11  O         19.4050  -20.9080   -5.6360 O.2     1  UNL1       -0.2670
     12  C         24.1930  -23.0270   -9.9380 C.3     1  UNL1        0.1620
     13  N         24.2270  -22.0910  -11.0400 N.am    1  UNL1       -0.3390
     14  C         24.8250  -22.4730  -12.2230 C.2     1  UNL1        0.3200
     15  O         25.3950  -23.5460  -12.3540 O.2     1  UNL1       -0.2470
     16  N         24.6960  -21.4810  -13.1710 N.am    1  UNL1       -0.3090
     17  H         24.3960  -20.5870  -12.8130 H       1  UNL1        0.1700
     18  H         23.4060  -21.5140  -11.1390 H       1  UNL1        0.1640
     19  C         25.1060  -21.5190  -14.5180 C.2     1  UNL1        0.0370
     20  C         26.2070  -20.7260  -14.8730 C.2     1  UNL1        0.0290
     21  C         26.6720  -20.7000  -16.1910 C.2     1  UNL1        0.0040
     22  C         26.0390  -21.4620  -17.1670 C.2     1  UNL1        0.0190
     23  C         24.9410  -22.2460  -16.8190 C.2     1  UNL1        0.0130
     24 BR         24.0760  -23.2770  -18.1500 Br      1  UNL1       -0.0510
     25  C         24.4710  -22.2770  -15.5050 C.2     1  UNL1        0.0480
     26  C         17.4350  -22.1100   -5.6200 C.2     1  UNL1        0.0320
     27  C         16.3530  -22.1110   -6.5060 C.2     1  UNL1        0.0170
     28  C         15.0660  -22.3340   -6.0160 C.2     1  UNL1        0.0010
     29  C         14.8650  -22.5410   -4.6500 C.2     1  UNL1        0.0000
     30  C         15.9460  -22.5170   -3.7660 C.2     1  UNL1        0.0010
     31  C         17.2350  -22.2930   -4.2500 C.2     1  UNL1        0.0170
@<TRIPOS>BOND
     1    24    23    1
     2    22    23    2
     3    22    21    1
     4    23    25    1
     5    21    20    2
     6    25    19    2
     7    20    19    1
     8    19    16    1
     9    16    17    1
    10    16    14   am
    11    15    14    2
    12    14    13   am
    13    18    13    1
    14    13    12    1
    15    12     1    1
    16     6     1    2
    17     6     5    1
    18     1     2    1
    19     5     7    1
    20     5     4    2
    21     7     8    2
    22     2     3    2
    23     4     3    1
    24     4     9    1
    25     8     9    1
    26     9    10   am
    27    27    28    1
    28    27    26    2
    29    10    11    2
    30    10    26    1
    31    28    29    2
    32    26    31    1
    33    29    30    1
    34    31    30    2
