@<TRIPOS>MOLECULE
30536_out_ligand_01.pdbqt
 39 43 0 0 0
SMALL
GASTEIGER

@<TRIPOS>ATOM
      1  C         20.7460  -21.3400  -12.5700 C.2     1  UNL1        0.0540
      2  C         22.0530  -21.6210  -12.4070 C.2     1  UNL1        0.1450
      3  O         22.4910  -22.3710  -11.3340 O.2     1  UNL1       -0.3030
      4  C         23.8310  -22.6110  -11.2080 C.2     1  UNL1        0.1030
      5  C         24.2040  -23.3640  -10.0890 C.2     1  UNL1        0.0390
      6  C         25.5430  -23.6610   -9.8610 C.2     1  UNL1        0.0030
      7  C         26.5070  -23.2030  -10.7530 C.2     1  UNL1        0.0020
      8  C         26.1290  -22.4490  -11.8710 C.2     1  UNL1        0.0330
      9  C         24.7820  -22.1450  -12.1180 C.2     1  UNL1        0.0710
     10  N         24.3520  -21.3880  -13.2440 N.am    1  UNL1       -0.3050
     11  C         23.0060  -21.1040  -13.4450 C.2     1  UNL1        0.2820
     12  O         22.5920  -20.4690  -14.4160 O.2     1  UNL1       -0.2650
     13  C         19.6640  -21.7580  -11.6670 C.2     1  UNL1       -0.0330
     14  C         18.3710  -21.2260  -11.7610 C.2     1  UNL1        0.0120
     15  C         17.3540  -21.6710  -10.9090 C.2     1  UNL1        0.0180
     16  C         17.6210  -22.6600   -9.9550 C.2     1  UNL1        0.0320
     17  C         18.9010  -23.2180   -9.8810 C.2     1  UNL1        0.0180
     18  C         19.9160  -22.7690  -10.7320 C.2     1  UNL1        0.0120
     19  C         16.5690  -23.1680   -9.0330 C.2     1  UNL1        0.2510
     20  O         15.3920  -22.8850   -9.2220 O.2     1  UNL1       -0.2680
     21  N         17.0030  -23.9860   -8.0070 N.am    1  UNL1       -0.3550
     22  H         17.9120  -24.4160   -8.1080 H       1  UNL1        0.1620
     23  C         16.0370  -24.6480   -7.1430 C.3     1  UNL1        0.1530
     24  C         15.7250  -23.8090   -5.8910 C.3     1  UNL1        0.2920
     25  N         16.8120  -22.9680   -5.3470 N.3     1  UNL1        0.0900
     26  C         16.5830  -22.6630   -3.9260 C.3     1  UNL1        0.2720
     27  C         17.8320  -22.2200   -3.1620 C.3     1  UNL1        0.0300
     28  C         18.5410  -20.9870   -3.7180 C.3     1  UNL1        0.0020
     29  C         19.2910  -21.2850   -5.0100 C.3     1  UNL1        0.0020
     30  C         18.4360  -21.3020   -6.2740 C.3     1  UNL1        0.0300
     31  C         16.9770  -21.7390   -6.1360 C.3     1  UNL1        0.2720
     32  C         25.3090  -20.8940  -14.2390 C.3     1  UNL1        0.1740
     33  C         25.1620  -21.5360  -15.5980 C.2     1  UNL1       -0.0010
     34  C         24.8260  -22.8910  -15.7370 C.2     1  UNL1        0.0120
     35  C         24.6730  -23.4620  -17.0040 C.2     1  UNL1        0.0010
     36  C         24.8450  -22.6860  -18.1490 C.2     1  UNL1        0.0030
     37  C         25.1620  -21.3340  -18.0260 C.2     1  UNL1        0.0430
     38  C         25.3130  -20.7720  -16.7610 C.2     1  UNL1        0.1240
     39  F         25.6160  -19.4700  -16.6710 F       1  UNL1       -0.2050
@<TRIPOS>BOND
     1    36    37    2
     2    36    35    1
     3    37    38    1
     4    35    34    2
     5    38    39    1
     6    38    33    2
     7    34    33    1
     8    33    32    1
     9    12    11    2
    10    32    10    1
    11    11    10   am
    12    11     2    1
    13    10     9    1
    14     1     2    2
    15     1    13    1
    16     2     3    1
    17     9     8    1
    18     9     4    2
    19     8     7    2
    20    14    13    2
    21    14    15    1
    22    13    18    1
    23     3     4    1
    24     4     5    1
    25    15    16    2
    26     7     6    1
    27    18    17    2
    28     5     6    2
    29    16    17    1
    30    16    19    1
    31    20    19    2
    32    19    21   am
    33    22    21    1
    34    21    23    1
    35    23    24    1
    36    30    31    1
    37    30    29    1
    38    31    25    1
    39    24    25    1
    40    25    26    1
    41    29    28    1
    42    26    27    1
    43    28    27    1
