@<TRIPOS>MOLECULE
30564_out_ligand_01.pdbqt
 34 37 0 0 0
SMALL
GASTEIGER

@<TRIPOS>ATOM
      1  C         20.9590  -22.1160  -10.8710 C.ar    1  UNL1        0.1960
      2  N         21.2050  -21.4320  -11.9680 N.ar    1  UNL1       -0.1220
      3  N         20.0090  -20.9240  -12.4210 N.ar    1  UNL1       -0.1290
      4  C         19.0660  -21.3010  -11.5820 C.ar    1  UNL1        0.1580
      5  C         17.6700  -21.0420  -11.5270 C.2     1  UNL1        0.0540
      6  C         16.9330  -21.5680  -10.5270 C.2     1  UNL1        0.0220
      7  C         17.5350  -22.4210   -9.5010 C.2     1  UNL1        0.0480
      8  C         18.8650  -22.6390   -9.5370 C.2     1  UNL1        0.1180
      9  N         19.6190  -22.0840  -10.5730 N.ar    1  UNL1       -0.2820
     10  S         22.1480  -22.9060   -9.8970 S.3     1  UNL1       -0.0810
     11  C         23.3180  -21.5360   -9.6490 C.3     1  UNL1        0.1850
     12  C         24.4680  -21.6400  -10.6440 C.2     1  UNL1        0.2310
     13  N         24.2970  -22.6590  -11.5700 N.am    1  UNL1       -0.3260
     14  H         23.3870  -23.1120  -11.5670 H       1  UNL1        0.1690
     15  O         25.4130  -20.8580  -10.5800 O.2     1  UNL1       -0.2720
     16  C         25.1760  -23.0540  -12.6130 C.2     1  UNL1        0.0410
     17  C         26.2520  -23.9180  -12.3820 C.2     1  UNL1        0.0300
     18  C         27.1210  -24.2780  -13.4110 C.2     1  UNL1        0.0030
     19  C         26.9280  -23.7740  -14.6900 C.2     1  UNL1        0.0070
     20  C         25.8590  -22.9100  -14.9660 C.2     1  UNL1       -0.0540
     21  C         25.7000  -22.4050  -16.3760 C.3     1  UNL1        0.0490
     22  C         24.9580  -22.5570  -13.9280 C.2     1  UNL1       -0.0290
     23  C         23.7880  -21.6470  -14.2160 C.3     1  UNL1        0.0510
     24  C         16.7630  -23.0040   -8.3550 C.2     1  UNL1        0.2570
     25  O         15.8890  -23.8380   -8.5700 O.2     1  UNL1       -0.2670
     26  N         17.1220  -22.4780   -7.1300 N.am    1  UNL1       -0.3230
     27  H         17.7940  -21.7220   -7.1320 H       1  UNL1        0.1690
     28  C         16.6150  -22.8410   -5.8640 C.2     1  UNL1        0.0370
     29  C         17.2430  -22.2800   -4.7430 C.2     1  UNL1        0.0290
     30  C         16.8170  -22.5980   -3.4520 C.2     1  UNL1        0.0050
     31  C         15.7540  -23.4790   -3.2690 C.2     1  UNL1        0.0420
     32  C         15.1300  -24.0290   -4.3790 C.2     1  UNL1        0.1180
     33  F         14.1020  -24.8730   -4.2010 F       1  UNL1       -0.2060
     34  C         15.5500  -23.7220   -5.6700 C.2     1  UNL1        0.0710
@<TRIPOS>BOND
     1    21    20    1
     2    20    19    2
     3    20    22    1
     4    19    18    1
     5    23    22    1
     6    22    16    2
     7    18    17    2
     8    16    17    1
     9    16    13    1
    10     3     2   ar
    11     3     4   ar
    12     2     1   ar
    13     4     5    1
    14     4     9   ar
    15    13    14    1
    16    13    12   am
    17     5     6    2
    18     1     9   ar
    19     1    10    1
    20    12    15    2
    21    12    11    1
    22     9     8    1
    23     6     7    1
    24    10    11    1
    25     8     7    2
    26     7    24    1
    27    25    24    2
    28    24    26   am
    29    27    26    1
    30    26    28    1
    31    28    34    2
    32    28    29    1
    33    34    32    1
    34    29    30    2
    35    32    33    1
    36    32    31    2
    37    30    31    1
