@<TRIPOS>MOLECULE
30568_out_ligand_01.pdbqt
 30 34 0 0 0
SMALL
GASTEIGER

@<TRIPOS>ATOM
      1  N         19.2890  -23.5280   -8.9680 N.pl3   1  UNL1       -0.2810
      2  C         19.1870  -22.6850   -9.9520 C.ar    1  UNL1        0.1620
      3  C         17.9150  -21.9620  -10.3010 C.ar    1  UNL1        0.0840
      4  C         16.7090  -22.0840   -9.7100 C.3     1  UNL1        0.0580
      5  C         17.9760  -20.9410  -11.4290 C.ar    1  UNL1        0.2830
      6  O         16.9840  -20.2870  -11.7350 O.2     1  UNL1       -0.2650
      7  N         19.1650  -20.7760  -12.1090 N.ar    1  UNL1       -0.1820
      8  C         20.1880  -21.4640  -11.7500 C.ar    1  UNL1        0.2010
      9  S         21.7240  -21.3010  -12.5610 S.2     1  UNL1       -0.0260
     10  C         22.3440  -22.4980  -11.4350 C.ar    1  UNL1        0.1550
     11  N         21.5170  -22.9790  -10.5550 N.ar    1  UNL1       -0.1530
     12  N         20.2800  -22.3850  -10.7420 N.ar    1  UNL1       -0.1890
     13  H         20.2690  -23.8500   -8.9590 H       1  UNL1        0.1880
     14  C         16.3440  -22.9670   -8.6600 C.2     1  UNL1        0.0770
     15  C         15.9350  -24.2950   -8.6730 C.2     1  UNL1        0.0400
     16  C         15.6430  -24.6760   -7.3420 C.2     1  UNL1        0.0470
     17  C         15.8560  -23.5620   -6.5630 C.2     1  UNL1        0.1130
     18  O         16.2530  -22.5300   -7.3570 O.2     1  UNL1       -0.3040
     19  S         15.6630  -23.4160   -4.8380 S.3     1  UNL1       -0.0980
     20  C         17.3930  -23.5610   -4.2970 C.3     1  UNL1        0.1460
     21  C         18.1870  -22.3920   -4.7550 C.2     1  UNL1        0.0620
     22  C         18.3980  -21.1250   -4.2460 C.2     1  UNL1        0.0350
     23  C         19.2650  -20.4690   -5.1510 C.2     1  UNL1        0.0270
     24  C         19.5240  -21.3710   -6.1550 C.2     1  UNL1        0.1420
     25  O         18.8690  -22.5380   -5.9280 O.2     1  UNL1       -0.3260
     26  C         23.7230  -22.8820  -11.5430 C.2     1  UNL1        0.1120
     27  C         24.5140  -23.3150  -12.5940 C.2     1  UNL1        0.0420
     28  C         25.8100  -23.5440  -12.0700 C.2     1  UNL1        0.0270
     29  C         25.7420  -23.2340  -10.7350 C.2     1  UNL1        0.1420
     30  O         24.4890  -22.8360  -10.4050 O.2     1  UNL1       -0.3200
@<TRIPOS>BOND
     1    27    28    1
     2    27    26    2
     3     9     8   ar
     4     9    10   ar
     5     7     8   ar
     6     7     5   ar
     7    28    29    2
     8     8    12   ar
     9     6     5    2
    10    26    10    1
    11    26    30    1
    12    10    11   ar
    13     5     3   ar
    14    12    11   ar
    15    12     2   ar
    16    29    30    1
    17     3     2   ar
    18     3     4    1
    19     2     1    1
    20     4    14    1
    21     1    13    1
    22    15    14    2
    23    15    16    1
    24    14    18    1
    25    18    17    1
    26    16    17    2
    27    17    19    1
    28    24    25    1
    29    24    23    2
    30    25    21    1
    31    23    22    1
    32    19    20    1
    33    21    20    1
    34    21    22    2
