@<TRIPOS>MOLECULE
3057_out_ligand_01.pdbqt
 31 35 0 0 0
SMALL
GASTEIGER

@<TRIPOS>ATOM
      1  C         19.8990  -21.8120  -10.9640 C.2     1  UNL1        0.0080
      2  C         20.5480  -21.3640  -12.1190 C.2     1  UNL1        0.0240
      3  C         21.8880  -21.6870  -12.3730 C.2     1  UNL1        0.0090
      4  C         22.6100  -22.4880  -11.4820 C.2     1  UNL1       -0.0510
      5  C         21.9490  -22.9940  -10.3570 C.2     1  UNL1        0.0090
      6  C         20.6130  -22.6630  -10.1110 C.2     1  UNL1        0.0240
      7  N         18.5480  -21.5750  -10.6900 N.pl3   1  UNL1       -0.2870
      8  H         18.1780  -20.8240  -11.2690 H       1  UNL1        0.1280
      9  C         17.6150  -22.6980  -10.6150 C.3     1  UNL1        0.1570
     10  C         17.0560  -22.9050   -9.2480 C.2     1  UNL1        0.0670
     11  C         15.9550  -23.5810   -8.7720 C.2     1  UNL1        0.0370
     12  C         15.9620  -23.4080   -7.3660 C.2     1  UNL1        0.0420
     13  C         17.0680  -22.6330   -7.0520 C.2     1  UNL1        0.1030
     14  C         17.5270  -22.1740   -5.7820 C.2     1  UNL1        0.0850
     15  O         17.7300  -22.3310   -8.2130 O.2     1  UNL1       -0.3110
     16  C         18.6350  -21.4180   -5.4590 C.2     1  UNL1        0.0540
     17  N         16.9020  -22.4240   -4.5910 N.pl3   1  UNL1       -0.2760
     18  C         18.5820  -21.2740   -4.0610 C.2     1  UNL1        0.1410
     19  N         17.5240  -21.8870   -3.5260 N.2     1  UNL1       -0.1870
     20  H         16.0510  -22.9510   -4.4310 H       1  UNL1        0.1890
     21  C         24.0570  -22.8390  -11.7590 C.3     1  UNL1        0.1190
     22  C         24.9750  -21.6610  -11.7740 C.ar    1  UNL1        0.1340
     23  N         25.3490  -20.9710  -10.7170 N.ar    1  UNL1       -0.1350
     24  N         26.1560  -19.9490  -11.1370 N.ar    1  UNL1       -0.1350
     25  C         26.2700  -20.0200  -12.4460 C.ar    1  UNL1        0.1300
     26  N         25.5640  -21.1120  -12.8920 N.ar    1  UNL1       -0.3200
     27  C         27.0440  -19.0640  -13.2870 C.3     1  UNL1        0.0800
     28  C         25.4080  -21.5780  -14.2550 C.3     1  UNL1        0.1320
     29  C         26.5870  -21.2900  -15.1780 C.3     1  UNL1        0.0200
     30  C         26.6380  -19.8490  -15.6830 C.3     1  UNL1        0.0020
     31  C         26.3870  -18.7700  -14.6300 C.3     1  UNL1        0.0080
@<TRIPOS>BOND
     1    30    29    1
     2    30    31    1
     3    29    28    1
     4    31    27    1
     5    28    26    1
     6    27    25    1
     7    26    25   ar
     8    26    22   ar
     9    25    24   ar
    10     3     2    1
    11     3     4    2
    12     2     1    2
    13    22    21    1
    14    22    23   ar
    15    21     4    1
    16     4     5    1
    17     8     7    1
    18    24    23   ar
    19     1     7    1
    20     1     6    1
    21     7     9    1
    22     9    10    1
    23     5     6    2
    24    10    11    2
    25    10    15    1
    26    11    12    1
    27    15    13    1
    28    12    13    2
    29    13    14    1
    30    14    16    2
    31    14    17    1
    32    16    18    1
    33    17    20    1
    34    17    19    1
    35    18    19    2
