@<TRIPOS>MOLECULE
30588_out_ligand_01.pdbqt
 32 35 0 0 0
SMALL
GASTEIGER

@<TRIPOS>ATOM
      1  C         19.1390  -22.9460   -9.3140 C.2     1  UNL1       -0.0160
      2  C         17.8610  -22.5910   -9.7920 C.2     1  UNL1        0.0130
      3  C         17.7070  -21.7050  -10.8630 C.2     1  UNL1        0.0430
      4  C         18.8270  -21.1540  -11.4650 C.2     1  UNL1        0.1170
      5  F         18.6760  -20.3090  -12.4920 F       1  UNL1       -0.2060
      6  C         20.0990  -21.4490  -11.0050 C.2     1  UNL1        0.0680
      7  C         20.2580  -22.3240   -9.9190 C.2     1  UNL1        0.0900
      8  S         21.9170  -22.5680   -9.3010 S.O2    1  UNL1        0.2640
      9  O         22.0040  -22.0050   -7.9710 O.2     1  UNL1       -0.2000
     10  O         22.2500  -23.9480   -9.5700 O.2     1  UNL1       -0.2000
     11  N         22.8760  -21.6430  -10.3180 N.pl3   1  UNL1       -0.2770
     12  H         22.4030  -20.7930  -10.6350 H       1  UNL1        0.1790
     13  C         23.8450  -22.2090  -11.2090 C.2     1  UNL1        0.0840
     14  C         25.0520  -22.7670  -10.7910 C.2     1  UNL1        0.0750
     15  C         25.9650  -23.2200  -11.7430 C.2     1  UNL1        0.1180
     16  F         27.1190  -23.7640  -11.3360 F       1  UNL1       -0.2060
     17  C         25.7110  -23.1090  -13.1070 C.2     1  UNL1        0.0450
     18  C         24.5210  -22.5260  -13.5340 C.2     1  UNL1        0.0470
     19  C         23.6080  -22.0730  -12.5850 C.2     1  UNL1        0.1430
     20  F         22.4720  -21.4950  -13.0040 F       1  UNL1       -0.2040
     21  C         19.2920  -23.9340   -8.1660 C.3     1  UNL1        0.1760
     22  N         18.4920  -23.6320   -6.9940 N.am    1  UNL1       -0.2740
     23  C         17.4470  -24.4100   -6.5620 C.2     1  UNL1        0.2800
     24  C         16.9570  -23.7760   -5.3290 C.2     1  UNL1        0.1400
     25  O         17.0020  -25.4170   -7.0780 O.2     1  UNL1       -0.2650
     26  N         15.9300  -24.1940   -4.5680 N.2     1  UNL1       -0.2540
     27  C         17.7370  -22.6710   -5.0860 C.2     1  UNL1        0.0670
     28  C         15.6980  -23.4170   -3.4810 C.2     1  UNL1        0.1170
     29  C         16.4400  -22.2740   -3.1540 C.2     1  UNL1        0.0200
     30  C         17.4960  -21.8840   -3.9820 C.2     1  UNL1        0.0210
     31  C         18.7230  -22.5810   -6.1530 C.2     1  UNL1        0.2630
     32  O         19.5570  -21.7000   -6.2290 O.2     1  UNL1       -0.2670
@<TRIPOS>BOND
     1    18    17    2
     2    18    19    1
     3    17    15    1
     4    20    19    1
     5    19    13    2
     6     5     4    1
     7    15    16    1
     8    15    14    2
     9     4     6    2
    10     4     3    1
    11    13    14    1
    12    13    11    1
    13     6     7    1
    14     3     2    2
    15    12    11    1
    16    11     8    1
    17     7     1    2
    18     7     8    1
    19     2     1    1
    20    10     8    2
    21     1    21    1
    22     8     9    2
    23    21    22    1
    24    25    23    2
    25    22    23   am
    26    22    31   am
    27    23    24    1
    28    32    31    2
    29    31    27    1
    30    24    27    2
    31    24    26    1
    32    27    30    1
    33    26    28    2
    34    30    29    2
    35    28    29    1
