@<TRIPOS>MOLECULE
30595_out_ligand_01.pdbqt
 35 38 0 0 0
SMALL
GASTEIGER

@<TRIPOS>ATOM
      1  C         18.6370  -21.3720  -11.1770 C.2     1  UNL1        0.2510
      2  O         18.2490  -20.3520  -11.7320 O.2     1  UNL1       -0.2680
      3  N         17.8210  -22.2070  -10.4410 N.am    1  UNL1       -0.3560
      4  H         18.1770  -23.1060  -10.1450 H       1  UNL1        0.1620
      5  C         20.0550  -21.7990  -11.2990 C.2     1  UNL1        0.0340
      6  C         20.6450  -22.6250  -10.3360 C.2     1  UNL1        0.0170
      7  C         21.9800  -22.9980  -10.4740 C.2     1  UNL1        0.0030
      8  C         22.7200  -22.5450  -11.5680 C.2     1  UNL1        0.0290
      9  C         22.1400  -21.7120  -12.5360 C.2     1  UNL1        0.0360
     10  C         20.8050  -21.3330  -12.3890 C.2     1  UNL1        0.0460
     11  N         22.9650  -21.3080  -13.6020 N.am    1  UNL1       -0.3210
     12  C         24.3370  -21.0840  -13.6000 C.2     1  UNL1        0.2830
     13  O         25.0620  -21.1920  -12.6150 O.2     1  UNL1       -0.2650
     14  H         22.5140  -21.1420  -14.4980 H       1  UNL1        0.1690
     15  C         24.8260  -20.6850  -14.9130 C.ar    1  UNL1        0.1890
     16  N         24.3580  -21.1940  -16.0380 N.ar    1  UNL1       -0.1360
     17  N         24.9810  -20.6520  -17.1440 N.ar    1  UNL1       -0.1470
     18  C         25.8910  -19.7590  -16.8140 C.ar    1  UNL1        0.0950
     19  C         26.7300  -19.0000  -17.7760 C.3     1  UNL1        0.0810
     20  S         26.0540  -19.5120  -15.1200 S.2     1  UNL1       -0.0460
     21  C         16.3990  -21.9600  -10.2950 C.3     1  UNL1        0.1270
     22  C         15.7980  -22.6970   -9.0900 C.3     1  UNL1        0.0070
     23  C         16.0560  -21.9620   -7.7670 C.3     1  UNL1        0.0360
     24  C         15.5700  -22.7780   -6.5650 C.3     1  UNL1        0.2730
     25  N         16.0950  -24.1510   -6.5060 N.3     1  UNL1        0.0920
     26  C         15.8430  -24.8570   -7.7690 C.3     1  UNL1        0.2730
     27  C         16.3590  -24.1240   -9.0090 C.3     1  UNL1        0.0360
     28  C         17.5190  -24.2060   -6.1220 C.3     1  UNL1        0.3140
     29  C         18.0210  -22.9340   -5.4780 C.2     1  UNL1        0.0090
     30  C         17.6860  -22.6020   -4.1560 C.2     1  UNL1        0.0120
     31  C         18.1800  -21.4340   -3.5680 C.2     1  UNL1        0.0010
     32  C         19.0250  -20.5910   -4.2880 C.2     1  UNL1        0.0030
     33  C         19.3780  -20.9180   -5.5960 C.2     1  UNL1        0.0430
     34  C         18.8820  -22.0820   -6.1770 C.2     1  UNL1        0.1240
     35  F         19.2510  -22.3800   -7.4300 F       1  UNL1       -0.2050
@<TRIPOS>BOND
     1    19    18    1
     2    17    18   ar
     3    17    16   ar
     4    18    20   ar
     5    16    15   ar
     6    20    15   ar
     7    15    12    1
     8    14    11    1
     9    11    12   am
    10    11     9    1
    11    12    13    2
    12     9    10    1
    13     9     8    2
    14    10     5    2
    15     2     1    2
    16     8     7    1
    17     5     1    1
    18     5     6    1
    19     1     3   am
    20     7     6    2
    21     3    21    1
    22     3     4    1
    23    21    22    1
    24    22    27    1
    25    22    23    1
    26    27    26    1
    27    26    25    1
    28    23    24    1
    29    35    34    1
    30    24    25    1
    31    25    28    1
    32    34    33    1
    33    34    29    2
    34    28    29    1
    35    33    32    2
    36    29    30    1
    37    32    31    1
    38    30    31    2
