@<TRIPOS>MOLECULE
30600_out_ligand_01.pdbqt
 31 34 0 0 0
SMALL
GASTEIGER

@<TRIPOS>ATOM
      1  C         21.9130  -23.2570   -8.7190 C.ar    1  UNL1        0.1960
      2  N         21.7050  -24.4620   -9.2040 N.ar    1  UNL1       -0.1220
      3  N         20.5030  -24.9120   -8.7060 N.ar    1  UNL1       -0.1230
      4  C         20.0060  -23.9520   -7.9510 C.ar    1  UNL1        0.2270
      5  C         18.7590  -23.9580   -7.2120 C.2     1  UNL1        0.3000
      6  O         18.0350  -24.9500   -7.1850 O.2     1  UNL1       -0.2630
      7  N         18.4840  -22.7360   -6.4930 N.am    1  UNL1       -0.2850
      8  C         19.4130  -21.6790   -6.5180 C.2     1  UNL1        0.1180
      9  C         20.5630  -21.7420   -7.2050 C.2     1  UNL1        0.1190
     10  N         20.8600  -22.8800   -7.9270 N.ar    1  UNL1       -0.2770
     11  S         23.3060  -22.2710   -8.9950 S.3     1  UNL1       -0.0810
     12  C         23.7880  -22.8050  -10.6630 C.3     1  UNL1        0.1850
     13  C         22.8720  -22.1920  -11.7090 C.2     1  UNL1        0.2270
     14  O         23.2260  -22.0300  -12.8730 O.2     1  UNL1       -0.2730
     15  N         21.6270  -21.8420  -11.2420 N.am    1  UNL1       -0.3560
     16  H         21.3620  -22.0960  -10.2930 H       1  UNL1        0.1620
     17  C         20.6310  -21.2050  -12.0690 C.3     1  UNL1        0.1610
     18  C         19.2490  -21.4910  -11.5440 C.2     1  UNL1       -0.0400
     19  C         18.2550  -20.5020  -11.6020 C.2     1  UNL1        0.0100
     20  C         16.9790  -20.7490  -11.0920 C.2     1  UNL1        0.0240
     21  C         16.6920  -21.9850  -10.5150 C.2     1  UNL1        0.0340
     22 CL         15.1210  -22.2900   -9.8820 Cl      1  UNL1       -0.0840
     23  C         17.6710  -22.9730  -10.4420 C.2     1  UNL1        0.0240
     24  C         18.9480  -22.7260  -10.9500 C.2     1  UNL1        0.0100
     25  C         17.2560  -22.6110   -5.7350 C.2     1  UNL1        0.0450
     26  C         17.2520  -22.7830   -4.3360 C.2     1  UNL1        0.0300
     27  C         16.0790  -22.6470   -3.5840 C.2     1  UNL1        0.0050
     28  C         14.8830  -22.3320   -4.2160 C.2     1  UNL1        0.0420
     29  C         14.8730  -22.1570   -5.5920 C.2     1  UNL1        0.1180
     30  F         13.7240  -21.8370   -6.2030 F       1  UNL1       -0.2060
     31  C         16.0360  -22.2930   -6.3490 C.2     1  UNL1        0.0720
@<TRIPOS>BOND
     1    14    13    2
     2    17    18    1
     3    17    15    1
     4    13    15   am
     5    13    12    1
     6    19    18    2
     7    19    20    1
     8    18    24    1
     9    15    16    1
    10    20    21    2
    11    24    23    2
    12    12    11    1
    13    21    23    1
    14    21    22    1
    15     2     1   ar
    16     2     3   ar
    17    11     1    1
    18     1    10   ar
    19     3     4   ar
    20     4    10   ar
    21     4     5    1
    22    10     9    1
    23     5     6    2
    24     5     7   am
    25     9     8    2
    26     8     7    1
    27     7    25    1
    28    31    25    2
    29    31    29    1
    30    30    29    1
    31    25    26    1
    32    29    28    2
    33    26    27    2
    34    28    27    1
