@<TRIPOS>MOLECULE
30614_out_ligand_01.pdbqt
 24 28 0 0 0
SMALL
GASTEIGER

@<TRIPOS>ATOM
      1  C         24.5890  -21.8980  -12.1740 C.2     1  UNL1        0.1110
      2  N         24.4160  -21.4810  -13.4440 N.2     1  UNL1       -0.2340
      3  C         23.1680  -21.2400  -13.8590 C.2     1  UNL1        0.2350
      4  N         22.0430  -21.3650  -13.1530 N.2     1  UNL1       -0.2400
      5  C         22.2210  -21.7860  -11.8720 C.ar    1  UNL1        0.0910
      6  C         23.4820  -22.0630  -11.3460 C.ar    1  UNL1        0.0720
      7  S         23.3640  -22.5700   -9.7080 S.2     1  UNL1       -0.0640
      8  C         21.6710  -22.4280   -9.7040 C.ar    1  UNL1        0.1120
      9  N         20.9670  -22.7310   -8.5910 N.ar    1  UNL1       -0.2390
     10  C         19.6220  -22.6050   -8.6900 C.ar    1  UNL1        0.0750
     11  C         19.0060  -22.1550   -9.8470 C.ar    1  UNL1       -0.0210
     12  C         19.7730  -21.8450  -10.9790 C.ar    1  UNL1       -0.0340
     13  C         21.1660  -21.9920  -10.9210 C.ar    1  UNL1        0.0370
     14  C         18.8910  -21.4070  -12.1150 C.3     1  UNL1        0.0400
     15  C         17.6100  -21.0280  -11.3650 C.3     1  UNL1        0.0090
     16  C         17.5510  -21.9340  -10.1280 C.3     1  UNL1        0.0420
     17  C         18.8830  -22.9630   -7.4680 C.2     1  UNL1       -0.0070
     18  C         18.7790  -22.0820   -6.3780 C.2     1  UNL1        0.0140
     19  C         18.0760  -22.4380   -5.2240 C.2     1  UNL1        0.0010
     20  C         17.4550  -23.6820   -5.1430 C.2     1  UNL1        0.0000
     21  C         17.5290  -24.5650   -6.2160 C.2     1  UNL1        0.0010
     22  C         18.2330  -24.2060   -7.3690 C.2     1  UNL1        0.0140
     23  S         26.2430  -22.2090  -11.6450 S.3     1  UNL1       -0.1220
     24  H         26.8020  -21.4450  -12.5940 H       1  UNL1        0.1080
@<TRIPOS>BOND
     1     3     2    1
     2     3     4    2
     3     2     1    2
     4     4     5    1
     5    24    23    1
     6     1    23    1
     7     1     6    1
     8    14    15    1
     9    14    12    1
    10     5     6   ar
    11     5    13   ar
    12    15    16    1
    13     6     7   ar
    14    12    13   ar
    15    12    11   ar
    16    13     8   ar
    17    16    11    1
    18    11    10   ar
    19     7     8   ar
    20     8     9   ar
    21    10     9   ar
    22    10    17    1
    23    17    22    2
    24    17    18    1
    25    22    21    1
    26    18    19    2
    27    21    20    2
    28    19    20    1
