@<TRIPOS>MOLECULE
30613_out_ligand_01.pdbqt
 37 40 0 0 0
SMALL
GASTEIGER

@<TRIPOS>ATOM
      1  C         20.7950  -22.2480   -9.8880 C.2     1  UNL1        0.0860
      2  C         20.0440  -22.6740   -8.7790 C.2     1  UNL1        0.0390
      3  C         18.6530  -22.6130   -8.8160 C.2     1  UNL1       -0.0030
      4  C         17.9960  -22.1060   -9.9360 C.2     1  UNL1        0.0140
      5  C         18.7420  -21.7080  -11.0460 C.2     1  UNL1        0.0090
      6  C         20.1480  -21.7850  -11.0510 C.2     1  UNL1       -0.0390
      7  C         20.8680  -21.3590  -12.3010 C.3     1  UNL1        0.0500
      8  S         22.5700  -22.3360   -9.7020 S.O2    1  UNL1        0.2630
      9  O         23.0780  -21.0050   -9.9670 O.2     1  UNL1       -0.2000
     10  O         22.9160  -23.0360   -8.4830 O.2     1  UNL1       -0.2000
     11  N         23.0490  -23.2900  -11.0040 N.pl3   1  UNL1       -0.2810
     12  H         22.9090  -24.2840  -10.8290 H       1  UNL1        0.1790
     13  C         24.0600  -22.9020  -11.9280 C.2     1  UNL1        0.0430
     14  C         25.2950  -23.5610  -11.8410 C.2     1  UNL1        0.0330
     15  C         26.3190  -23.2700  -12.7420 C.2     1  UNL1        0.0400
     16  C         26.1170  -22.3150  -13.7420 C.2     1  UNL1        0.0840
     17  C         24.8720  -21.6860  -13.8680 C.2     1  UNL1        0.0670
     18  C         23.8440  -21.9900  -12.9630 C.2     1  UNL1        0.0500
     19  O         27.1070  -22.1120  -14.6640 O.2     1  UNL1       -0.3550
     20  C         27.1210  -23.1640  -15.6320 C.3     1  UNL1        0.2100
     21  C         24.6340  -20.6710  -14.9240 C.2     1  UNL1        0.2520
     22  N         25.2280  -19.4490  -14.7430 N.am    1  UNL1       -0.3660
     23  H         24.9570  -18.7200  -15.3910 H       1  UNL1        0.1590
     24  H         25.6020  -19.1620  -13.8490 H       1  UNL1        0.1590
     25  O         23.9530  -20.9000  -15.9160 O.2     1  UNL1       -0.2680
     26  C         17.8910  -23.0320   -7.6170 C.ar    1  UNL1        0.0980
     27  N         17.0090  -23.9740   -7.7870 N.ar    1  UNL1       -0.1700
     28  N         16.3120  -24.4070   -6.7040 N.ar    1  UNL1       -0.2420
     29  C         16.4670  -23.9660   -5.4130 C.ar    1  UNL1        0.2720
     30  H         15.6550  -25.1650   -6.8580 H       1  UNL1        0.1920
     31  O         15.8350  -24.4460   -4.4780 O.2     1  UNL1       -0.2660
     32  C         17.4330  -22.8720   -5.2110 C.ar    1  UNL1        0.0460
     33  C         17.6100  -22.3130   -3.9400 C.2     1  UNL1        0.0180
     34  C         18.1420  -22.3820   -6.3070 C.ar    1  UNL1        0.0110
     35  C         18.4930  -21.2490   -3.7670 C.2     1  UNL1        0.0010
     36  C         19.1880  -20.7390   -4.8630 C.2     1  UNL1        0.0010
     37  C         19.0130  -21.2990   -6.1330 C.2     1  UNL1        0.0150
@<TRIPOS>BOND
     1    25    21    2
     2    20    19    1
     3    23    22    1
     4    21    22   am
     5    21    17    1
     6    22    24    1
     7    19    16    1
     8    17    16    2
     9    17    18    1
    10    16    15    1
    11    18    13    2
    12    15    14    2
    13     7     6    1
    14    13    14    1
    15    13    11    1
    16     6     5    1
    17     6     1    2
    18     5     4    2
    19    11    12    1
    20    11     8    1
    21     9     8    2
    22     4     3    1
    23     1     8    1
    24     1     2    1
    25     8    10    2
    26     3     2    2
    27     3    26    1
    28    27    26   ar
    29    27    28   ar
    30    26    34   ar
    31    30    28    1
    32    28    29   ar
    33    34    37    1
    34    34    32   ar
    35    37    36    2
    36    29    32   ar
    37    29    31    2
    38    32    33    1
    39    36    35    1
    40    33    35    2
