@<TRIPOS>MOLECULE
30655_out_ligand_01.pdbqt
 28 32 0 0 0
SMALL
GASTEIGER

@<TRIPOS>ATOM
      1  C         24.6330  -21.9970  -11.9480 C.2     1  UNL1        0.1240
      2  N         24.4610  -21.5780  -13.2200 N.2     1  UNL1       -0.2290
      3  C         23.2220  -21.3190  -13.6580 C.2     1  UNL1        0.2350
      4  N         22.0800  -21.4280  -12.9770 N.2     1  UNL1       -0.2400
      5  C         22.2360  -21.8440  -11.6940 C.ar    1  UNL1        0.0920
      6  C         23.4860  -22.1340  -11.1530 C.ar    1  UNL1        0.0770
      7  S         23.3510  -22.6390   -9.5150 S.2     1  UNL1       -0.0640
      8  C         21.6600  -22.4760   -9.5280 C.ar    1  UNL1        0.1120
      9  N         20.9420  -22.7770   -8.4240 N.ar    1  UNL1       -0.2390
     10  C         19.6020  -22.6120   -8.5310 C.ar    1  UNL1        0.0750
     11  C         18.9990  -22.1690   -9.6970 C.ar    1  UNL1       -0.0210
     12  C         19.7790  -21.8790  -10.8240 C.ar    1  UNL1       -0.0340
     13  C         21.1710  -22.0350  -10.7500 C.ar    1  UNL1        0.0370
     14  C         18.9120  -21.4860  -11.9890 C.3     1  UNL1        0.0400
     15  C         17.6000  -21.1390  -11.2790 C.3     1  UNL1        0.0090
     16  C         17.5420  -22.0110  -10.0180 C.3     1  UNL1        0.0420
     17  N         25.9150  -22.2550  -11.4500 N.pl3   1  UNL1       -0.2740
     18  H         26.0040  -21.8750  -10.5090 H       1  UNL1        0.1290
     19  C         26.3420  -23.6530  -11.5360 C.3     1  UNL1        0.1200
     20  C         27.1110  -24.0380  -10.2680 C.3     1  UNL1        0.1780
     21  O         26.2720  -24.7440   -9.3540 O.3     1  UNL1       -0.4000
     22  H         26.1470  -25.6290   -9.7400 H       1  UNL1        0.2090
     23  C         18.8460  -22.9650   -7.3210 C.2     1  UNL1       -0.0070
     24  C         18.7390  -22.0520   -6.2570 C.2     1  UNL1        0.0140
     25  C         18.0260  -22.3730   -5.1000 C.2     1  UNL1        0.0010
     26  C         17.3990  -23.6110   -4.9910 C.2     1  UNL1        0.0000
     27  C         17.4780  -24.5250   -6.0390 C.2     1  UNL1        0.0010
     28  C         18.1920  -24.2020   -7.1950 C.2     1  UNL1        0.0140
@<TRIPOS>BOND
     1     3     2    1
     2     3     4    2
     3     2     1    2
     4     4     5    1
     5    14    15    1
     6    14    12    1
     7     1    17    1
     8     1     6    1
     9     5     6   ar
    10     5    13   ar
    11    19    17    1
    12    19    20    1
    13    17    18    1
    14    15    16    1
    15     6     7   ar
    16    12    13   ar
    17    12    11   ar
    18    13     8   ar
    19    20    21    1
    20    16    11    1
    21    22    21    1
    22    11    10   ar
    23     8     7   ar
    24     8     9   ar
    25    10     9   ar
    26    10    23    1
    27    23    28    2
    28    23    24    1
    29    28    27    1
    30    24    25    2
    31    27    26    2
    32    25    26    1
