@<TRIPOS>MOLECULE
30659_out_ligand_01.pdbqt
 28 30 0 0 0
SMALL
GASTEIGER

@<TRIPOS>ATOM
      1  N         19.4460  -22.5220   -9.4450 N.am    1  UNL1       -0.3260
      2  C         19.5840  -22.6620   -8.0690 C.2     1  UNL1        0.2350
      3  O         20.6420  -22.5810   -7.4490 O.2     1  UNL1       -0.2720
      4  H         18.4950  -22.4750   -9.7930 H       1  UNL1        0.1690
      5  C         20.4620  -22.3190  -10.3980 C.2     1  UNL1        0.0340
      6  C         20.1880  -21.4280  -11.4420 C.2     1  UNL1        0.0300
      7  C         21.1430  -21.1730  -12.4310 C.2     1  UNL1        0.0190
      8  C         22.3910  -21.8020  -12.3860 C.2     1  UNL1        0.0330
      9  C         22.6620  -22.7100  -11.3570 C.2     1  UNL1        0.0190
     10  C         21.7020  -22.9610  -10.3680 C.2     1  UNL1        0.0300
     11  C         23.3750  -21.5010  -13.4620 C.2     1  UNL1        0.2650
     12  N         22.9560  -20.6260  -14.4600 N.am    1  UNL1       -0.2900
     13  H         21.9720  -20.3850  -14.5560 H       1  UNL1        0.1830
     14  O         24.4820  -22.0350  -13.4650 O.2     1  UNL1       -0.2660
     15  N         23.8080  -20.3920  -15.5630 N.3     1  UNL1       -0.2470
     16  H         23.3810  -20.8660  -16.3710 H       1  UNL1        0.1430
     17  H         24.6610  -20.9390  -15.4050 H       1  UNL1        0.1430
     18  C         18.2330  -22.9350   -7.3530 C.3     1  UNL1        0.0680
     19  C         17.0990  -22.3650   -8.2400 C.3     1  UNL1        0.0240
     20  C         15.8610  -23.2220   -7.9680 C.3     1  UNL1        0.0020
     21  C         16.3560  -24.4750   -7.2550 C.3     1  UNL1        0.0020
     22  C         17.8740  -24.4390   -7.3820 C.3     1  UNL1        0.0240
     23  C         18.2870  -22.4290   -5.9010 C.2     1  UNL1       -0.0400
     24  C         17.8520  -23.1870   -4.8030 C.2     1  UNL1        0.0080
     25  C         17.9100  -22.6710   -3.5040 C.2     1  UNL1        0.0010
     26  C         18.4010  -21.3890   -3.2780 C.2     1  UNL1        0.0000
     27  C         18.8420  -20.6220   -4.3510 C.2     1  UNL1        0.0010
     28  C         18.7870  -21.1360   -5.6470 C.2     1  UNL1        0.0080
@<TRIPOS>BOND
     1    16    15    1
     2    15    17    1
     3    15    12    1
     4    13    12    1
     5    12    11   am
     6    14    11    2
     7    11     8    1
     8     7     8    2
     9     7     6    1
    10     8     9    1
    11     6     5    2
    12     9    10    2
    13     5    10    1
    14     5     1    1
    15     4     1    1
    16     1     2   am
    17    19    20    1
    18    19    18    1
    19     2     3    2
    20     2    18    1
    21    20    21    1
    22    22    18    1
    23    22    21    1
    24    18    23    1
    25    23    28    2
    26    23    24    1
    27    28    27    1
    28    24    25    2
    29    27    26    2
    30    25    26    1
