@<TRIPOS>MOLECULE
30663_out_ligand_01.pdbqt
 30 35 0 0 0
SMALL
GASTEIGER

@<TRIPOS>ATOM
      1  C         19.4900  -22.6500   -8.7600 C.ar    1  UNL1        0.0750
      2  N         20.8290  -22.8500   -8.7240 N.ar    1  UNL1       -0.2390
      3  C         21.5050  -22.4980   -9.8400 C.ar    1  UNL1        0.1120
      4  S         23.1910  -22.6980   -9.9130 S.2     1  UNL1       -0.0630
      5  C         23.2660  -22.0970  -11.5230 C.ar    1  UNL1        0.0820
      6  C         24.3790  -21.9370  -12.3590 C.2     1  UNL1        0.1440
      7  N         24.1610  -21.4490  -13.5970 N.2     1  UNL1       -0.2230
      8  C         22.9110  -21.1360  -13.9640 C.2     1  UNL1        0.2360
      9  N         21.7980  -21.2570  -13.2370 N.2     1  UNL1       -0.2400
     10  C         22.0010  -21.7490  -11.9880 C.ar    1  UNL1        0.0920
     11  C         20.9740  -21.9720  -11.0100 C.ar    1  UNL1        0.0370
     12  C         19.5840  -21.7830  -11.0120 C.ar    1  UNL1       -0.0340
     13  C         18.8470  -22.1230   -9.8700 C.ar    1  UNL1       -0.0210
     14  C         17.3830  -21.9140  -10.1140 C.3     1  UNL1        0.0420
     15  C         17.4070  -20.9680  -11.3220 C.3     1  UNL1        0.0090
     16  C         18.6760  -21.2990  -12.1100 C.3     1  UNL1        0.0400
     17  N         25.6650  -22.2570  -11.9450 N.pl3   1  UNL1       -0.3710
     18  H         25.7050  -22.9890  -11.2450 H       1  UNL1        0.1610
     19  C         26.7400  -22.2360  -12.9310 C.3     1  UNL1        0.1530
     20  C         27.0220  -23.6080  -13.5760 C.3     1  UNL1        0.1390
     21  C         27.1210  -23.5730  -15.0970 C.3     1  UNL1        0.0350
     22  C         25.7060  -23.8550  -15.5330 C.3     1  UNL1        0.0290
     23  C         25.2550  -24.8490  -14.4890 C.3     1  UNL1        0.1680
     24  O         25.9180  -24.4930  -13.2700 O.3     1  UNL1       -0.3840
     25  C         18.7800  -23.0580   -7.5400 C.2     1  UNL1       -0.0070
     26  C         18.6680  -22.1750   -6.4530 C.2     1  UNL1        0.0140
     27  C         17.9980  -22.5500   -5.2860 C.2     1  UNL1        0.0010
     28  C         17.4190  -23.8120   -5.1900 C.2     1  UNL1        0.0000
     29  C         17.5030  -24.6980   -6.2620 C.2     1  UNL1        0.0010
     30  C         18.1740  -24.3210   -7.4290 C.2     1  UNL1        0.0140
@<TRIPOS>BOND
     1    22    21    1
     2    22    23    1
     3    21    20    1
     4    23    24    1
     5     8     7    2
     6     8     9    1
     7     7     6    1
     8    20    24    1
     9    20    19    1
    10     9    10    2
    11    19    17    1
    12     6    17    1
    13     6     5    2
    14    16    15    1
    15    16    12    1
    16    10     5   ar
    17    10    11   ar
    18    17    18    1
    19     5     4   ar
    20    15    14    1
    21    12    11   ar
    22    12    13   ar
    23    11     3   ar
    24    14    13    1
    25     4     3   ar
    26    13     1   ar
    27     3     2   ar
    28     1     2   ar
    29     1    25    1
    30    25    30    2
    31    25    26    1
    32    30    29    1
    33    26    27    2
    34    29    28    2
    35    27    28    1
