@<TRIPOS>MOLECULE
30665_out_ligand_01.pdbqt
 31 35 0 0 0
SMALL
GASTEIGER

@<TRIPOS>ATOM
      1  C         22.1330  -21.7920  -12.2020 C.2     1  UNL1        0.0330
      2  C         20.9490  -21.2270  -12.7430 C.2     1  UNL1        0.0180
      3  C         19.7420  -21.2580  -12.0330 C.2     1  UNL1        0.0190
      4  C         19.7580  -21.8480  -10.7860 C.2     1  UNL1        0.0480
      5  C         20.9070  -22.3930  -10.2550 C.2     1  UNL1        0.0490
      6  C         22.1150  -22.3790  -10.9290 C.2     1  UNL1        0.0350
      7  C         20.5740  -22.9320   -8.9410 C.2     1  UNL1        0.2660
      8  O         21.4060  -23.5150   -8.2680 O.2     1  UNL1       -0.2670
      9  N         19.2480  -22.6350   -8.7070 N.am    1  UNL1       -0.2430
     10  C         18.6810  -22.0490   -9.8190 C.2     1  UNL1        0.2660
     11  O         17.5270  -21.7840  -10.0980 O.2     1  UNL1       -0.2670
     12  C         23.3770  -21.7110  -13.0160 C.2     1  UNL1        0.2510
     13  O         24.4660  -21.8720  -12.4780 O.2     1  UNL1       -0.2680
     14  N         23.2270  -21.4180  -14.3540 N.am    1  UNL1       -0.3540
     15  H         22.3280  -21.1370  -14.7200 H       1  UNL1        0.1620
     16  C         24.3770  -21.2900  -15.2330 C.3     1  UNL1        0.1550
     17  C         24.8210  -22.6060  -15.8950 C.3     1  UNL1        0.1390
     18  C         26.0520  -22.4650  -16.7840 C.3     1  UNL1        0.0350
     19  C         25.4570  -22.2060  -18.1450 C.3     1  UNL1        0.0290
     20  C         24.2220  -23.0760  -18.1100 C.3     1  UNL1        0.1680
     21  O         23.7540  -23.0600  -16.7560 O.3     1  UNL1       -0.3840
     22  C         18.5220  -23.0640   -7.5550 C.2     1  UNL1        0.0570
     23  C         17.7720  -24.2520   -7.6570 C.2     1  UNL1        0.0310
     24  C         16.9740  -24.6970   -6.6090 C.2     1  UNL1        0.0030
     25  C         16.9190  -23.9680   -5.4290 C.2     1  UNL1        0.0120
     26  C         17.6830  -22.8070   -5.2650 C.2     1  UNL1       -0.0240
     27  C         17.6310  -22.1250   -4.0360 C.2     1  UNL1        0.0120
     28  C         18.5160  -22.3390   -6.3190 C.2     1  UNL1        0.0020
     29  C         18.4130  -20.9990   -3.8030 C.2     1  UNL1        0.0010
     30  C         19.2720  -20.5480   -4.7930 C.2     1  UNL1        0.0010
     31  C         19.3280  -21.2130   -6.0220 C.2     1  UNL1        0.0140
@<TRIPOS>BOND
     1    19    20    1
     2    19    18    1
     3    20    21    1
     4    18    17    1
     5    21    17    1
     6    17    16    1
     7    16    14    1
     8    15    14    1
     9    14    12   am
    10    12    13    2
    11    12     1    1
    12     2     1    2
    13     2     3    1
    14     1     6    1
    15     3     4    2
    16     6     5    2
    17     4     5    1
    18     4    10    1
    19     5     7    1
    20    11    10    2
    21    10     9   am
    22     7     9   am
    23     7     8    2
    24     9    22    1
    25    23    22    2
    26    23    24    1
    27    22    28    1
    28    24    25    2
    29    28    31    1
    30    28    26    2
    31    31    30    2
    32    25    26    1
    33    26    27    1
    34    30    29    1
    35    27    29    2
