@<TRIPOS>MOLECULE
30673_out_ligand_01.pdbqt
 27 30 0 0 0
SMALL
GASTEIGER

@<TRIPOS>ATOM
      1  C         22.3160  -22.1810  -11.5700 C.2     1  UNL1        0.0430
      2  C         23.5670  -22.6240  -11.0980 C.2     1  UNL1        0.0180
      3  C         23.6750  -23.3360   -9.8930 C.2     1  UNL1        0.0020
      4  C         22.5360  -23.6190   -9.1450 C.2     1  UNL1        0.0150
      5  C         21.3210  -23.1500   -9.6230 C.2     1  UNL1        0.0070
      6  C         21.1760  -22.4150  -10.8110 C.2     1  UNL1        0.0030
      7  C         19.7770  -22.0390  -10.9480 C.3     1  UNL1       -0.0110
      8  C         19.1360  -21.2350  -11.8810 C.2     1  UNL1        0.0130
      9  C         17.7570  -21.0230  -11.7640 C.2     1  UNL1        0.0010
     10  C         17.0290  -21.5960  -10.7120 C.2     1  UNL1        0.0010
     11  C         17.6680  -22.3820   -9.7530 C.2     1  UNL1        0.0140
     12  C         19.0320  -22.5890   -9.8820 C.2     1  UNL1        0.0060
     13  C         19.9860  -23.3210   -9.0110 C.2     1  UNL1        0.0930
     14  N         19.8280  -24.0050   -7.9220 N.pl3   1  UNL1       -0.1950
     15  N         18.5640  -24.1210   -7.4360 N.pl3   1  UNL1       -0.1820
     16  H         18.3070  -25.0930   -7.2500 H       1  UNL1        0.1550
     17  C         18.2550  -23.3660   -6.2680 C.2     1  UNL1        0.0290
     18  C         17.5750  -23.9170   -5.1740 C.2     1  UNL1        0.0250
     19  C         17.3640  -23.1720   -4.0100 C.2     1  UNL1        0.0020
     20  C         17.8540  -21.8720   -3.9160 C.2     1  UNL1        0.0000
     21  C         18.5630  -21.3210   -4.9800 C.2     1  UNL1        0.0020
     22  C         18.7730  -22.0680   -6.1430 C.2     1  UNL1        0.0250
     23  C         22.3030  -21.5260  -12.8900 C.2     1  UNL1        0.2500
     24  N         23.3420  -21.8360  -13.7210 N.am    1  UNL1       -0.3660
     25  H         23.4190  -21.3190  -14.5870 H       1  UNL1        0.1590
     26  H         24.1190  -22.4150  -13.4330 H       1  UNL1        0.1590
     27  O         21.4520  -20.7020  -13.1880 O.2     1  UNL1       -0.2680
@<TRIPOS>BOND
     1    25    24    1
     2    24    26    1
     3    24    23   am
     4    27    23    2
     5    23     1    1
     6     8     9    2
     7     8     7    1
     8     9    10    1
     9     1     2    2
    10     1     6    1
    11     2     3    1
    12     7     6    1
    13     7    12    1
    14     6     5    2
    15    10    11    2
    16     3     4    2
    17    12    11    1
    18    12    13    2
    19     5     4    1
    20     5    13    1
    21    13    14    1
    22    14    15    1
    23    15    16    1
    24    15    17    1
    25    17    22    2
    26    17    18    1
    27    22    21    1
    28    18    19    2
    29    21    20    2
    30    19    20    1
