@<TRIPOS>MOLECULE
30677_out_ligand_01.pdbqt
 27 31 0 0 0
SMALL
GASTEIGER

@<TRIPOS>ATOM
      1  C         24.7140  -22.5170  -12.3170 C.2     1  UNL1        0.1370
      2  N         24.5880  -21.9100  -13.5180 N.2     1  UNL1       -0.2270
      3  C         23.3970  -21.4080  -13.8690 C.2     1  UNL1        0.2350
      4  N         22.2710  -21.4280  -13.1600 N.2     1  UNL1       -0.2400
      5  C         22.3850  -22.0200  -11.9420 C.ar    1  UNL1        0.0920
      6  C         23.5830  -22.5700  -11.4870 C.ar    1  UNL1        0.0780
      7  S         23.3890  -23.2150   -9.9040 S.2     1  UNL1       -0.0640
      8  C         21.7480  -22.7880   -9.8400 C.ar    1  UNL1        0.1120
      9  N         21.0160  -23.0720   -8.7410 N.ar    1  UNL1       -0.2390
     10  C         19.7230  -22.6690   -8.7730 C.ar    1  UNL1        0.0750
     11  C         19.1730  -22.0430   -9.8810 C.ar    1  UNL1       -0.0210
     12  C         19.9640  -21.7750  -11.0050 C.ar    1  UNL1       -0.0340
     13  C         21.3150  -22.1520  -10.9950 C.ar    1  UNL1        0.0370
     14  C         19.1630  -21.0690  -12.0650 C.3     1  UNL1        0.0400
     15  C         17.7350  -21.4080  -11.6280 C.3     1  UNL1        0.0090
     16  C         17.7730  -21.5540  -10.1010 C.3     1  UNL1        0.0420
     17  C         18.9570  -22.9700   -7.5520 C.2     1  UNL1       -0.0070
     18  C         18.2920  -24.2010   -7.4150 C.2     1  UNL1        0.0140
     19  C         17.5580  -24.5020   -6.2650 C.2     1  UNL1        0.0010
     20  C         17.4820  -23.5780   -5.2260 C.2     1  UNL1        0.0000
     21  C         18.1450  -22.3590   -5.3320 C.2     1  UNL1        0.0010
     22  C         18.8800  -22.0600   -6.4840 C.2     1  UNL1        0.0140
     23  N         25.9980  -23.0200  -12.0120 N.pl3   1  UNL1       -0.2110
     24  H         26.6680  -22.4240  -12.5070 H       1  UNL1        0.1480
     25  N         26.2500  -24.4060  -12.0890 N.3     1  UNL1       -0.2650
     26  H         25.5300  -24.9270  -11.5810 H       1  UNL1        0.1370
     27  H         26.2110  -24.7340  -13.0580 H       1  UNL1        0.1370
@<TRIPOS>BOND
     1     3     2    1
     2     3     4    2
     3     2     1    2
     4     4     5    1
     5    27    25    1
     6    24    23    1
     7     1    23    1
     8     1     6    1
     9    25    23    1
    10    25    26    1
    11    14    15    1
    12    14    12    1
    13     5     6   ar
    14     5    13   ar
    15    15    16    1
    16     6     7   ar
    17    12    13   ar
    18    12    11   ar
    19    13     8   ar
    20    16    11    1
    21     7     8   ar
    22    11    10   ar
    23     8     9   ar
    24    10     9   ar
    25    10    17    1
    26    17    18    2
    27    17    22    1
    28    18    19    1
    29    22    21    2
    30    19    20    2
    31    21    20    1
