@<TRIPOS>MOLECULE
30685_out_ligand_01.pdbqt
 30 35 0 0 0
SMALL
GASTEIGER

@<TRIPOS>ATOM
      1  C         19.4510  -22.6130   -8.6380 C.ar    1  UNL1        0.0750
      2  N         20.7960  -22.7350   -8.5430 N.ar    1  UNL1       -0.2390
      3  C         21.4960  -22.4240   -9.6570 C.ar    1  UNL1        0.1120
      4  S         23.1910  -22.5590   -9.6630 S.2     1  UNL1       -0.0640
      5  C         23.2980  -22.0440  -11.3000 C.ar    1  UNL1        0.0770
      6  C         24.4330  -21.8850  -12.1080 C.2     1  UNL1        0.1240
      7  N         24.2400  -21.4610  -13.3760 N.2     1  UNL1       -0.2290
      8  C         22.9910  -21.2160  -13.7970 C.2     1  UNL1        0.2350
      9  N         21.8600  -21.3460  -13.1020 N.2     1  UNL1       -0.2400
     10  C         22.0380  -21.7700  -11.8240 C.ar    1  UNL1        0.0920
     11  C         20.9870  -21.9860  -10.8710 C.ar    1  UNL1        0.0370
     12  C         19.5930  -21.8430  -10.9240 C.ar    1  UNL1       -0.0340
     13  C         18.8300  -22.1610   -9.7920 C.ar    1  UNL1       -0.0210
     14  C         17.3730  -21.9440  -10.0690 C.3     1  UNL1        0.0420
     15  C         17.4260  -21.0330  -11.3020 C.3     1  UNL1        0.0090
     16  C         18.7060  -21.4040  -12.0570 C.3     1  UNL1        0.0400
     17  N         25.7230  -22.1260  -11.6310 N.pl3   1  UNL1       -0.2700
     18  H         25.8120  -21.8400  -10.6590 H       1  UNL1        0.1290
     19  C         26.2280  -23.4770  -11.8460 C.3     1  UNL1        0.1590
     20  C         26.2330  -23.9160  -13.2730 C.2     1  UNL1        0.0650
     21  C         27.0350  -23.6150  -14.3540 C.2     1  UNL1        0.0360
     22  C         26.5120  -24.3390  -15.4510 C.2     1  UNL1        0.0270
     23  C         25.4240  -25.0310  -14.9720 C.2     1  UNL1        0.1420
     24  O         25.2450  -24.7800  -13.6490 O.2     1  UNL1       -0.3260
     25  C         18.7150  -22.9800   -7.4170 C.2     1  UNL1       -0.0070
     26  C         18.6440  -22.0850   -6.3340 C.2     1  UNL1        0.0140
     27  C         17.9470  -22.4130   -5.1680 C.2     1  UNL1        0.0010
     28  C         17.3150  -23.6490   -5.0600 C.2     1  UNL1        0.0000
     29  C         17.3840  -24.5580   -6.1130 C.2     1  UNL1        0.0010
     30  C         18.0820  -24.2270   -7.2780 C.2     1  UNL1        0.0140
@<TRIPOS>BOND
     1    22    23    2
     2    22    21    1
     3    23    24    1
     4    21    20    2
     5     8     7    2
     6     8     9    1
     7    24    20    1
     8     7     6    1
     9    20    19    1
    10     9    10    2
    11     6    17    1
    12     6     5    2
    13    16    15    1
    14    16    12    1
    15    19    17    1
    16    10     5   ar
    17    10    11   ar
    18    17    18    1
    19    15    14    1
    20     5     4   ar
    21    12    11   ar
    22    12    13   ar
    23    11     3   ar
    24    14    13    1
    25    13     1   ar
    26     4     3   ar
    27     3     2   ar
    28     1     2   ar
    29     1    25    1
    30    25    30    2
    31    25    26    1
    32    30    29    1
    33    26    27    2
    34    29    28    2
    35    27    28    1
