@<TRIPOS>MOLECULE
30726_out_ligand_01.pdbqt
 33 36 0 0 0
SMALL
GASTEIGER

@<TRIPOS>ATOM
      1  C         18.2540  -24.7830   -7.2780 C.3     1  UNL1        0.0500
      2  C         19.0220  -24.0050   -8.3100 C.2     1  UNL1       -0.0390
      3  C         20.3980  -24.2700   -8.4430 C.2     1  UNL1        0.0090
      4  C         21.1830  -23.5920   -9.3790 C.2     1  UNL1        0.0170
      5  C         20.6060  -22.6270  -10.2080 C.2     1  UNL1        0.0330
      6  C         19.2330  -22.3750  -10.1150 C.2     1  UNL1        0.0420
      7  C         18.4430  -23.0490   -9.1660 C.2     1  UNL1        0.0860
      8  C         21.4030  -21.8720  -11.2160 C.2     1  UNL1        0.2560
      9  O         20.8820  -20.9050  -11.7560 O.2     1  UNL1       -0.2670
     10  N         22.6950  -22.3290  -11.4030 N.am    1  UNL1       -0.3230
     11  H         23.0210  -23.0570  -10.7820 H       1  UNL1        0.1690
     12  C         23.6560  -21.8300  -12.3080 C.2     1  UNL1        0.0370
     13  C         24.9410  -21.3940  -11.9240 C.2     1  UNL1        0.0320
     14  C         25.8500  -20.9050  -12.8710 C.2     1  UNL1        0.0420
     15  C         25.4480  -20.8580  -14.1850 C.2     1  UNL1        0.1050
     16  C         24.1970  -21.2770  -14.5670 C.2     1  UNL1        0.1070
     17  O         26.1920  -20.4150  -15.2320 O.2     1  UNL1       -0.3230
     18  C         23.2820  -21.7640  -13.6580 C.2     1  UNL1        0.0690
     19  O         23.9960  -21.1520  -15.9060 O.2     1  UNL1       -0.3230
     20  C         25.2580  -20.5850  -16.3190 C.3     1  UNL1        0.3520
     21  S         16.7000  -22.6390   -9.1510 S.O2    1  UNL1        0.2630
     22  O         16.4510  -21.7930  -10.3010 O.2     1  UNL1       -0.2000
     23  O         15.9070  -23.8290   -8.9450 O.2     1  UNL1       -0.2000
     24  N         16.5860  -21.6320   -7.8140 N.pl3   1  UNL1       -0.2800
     25  H         16.2850  -20.6790   -8.0160 H       1  UNL1        0.1790
     26  C         16.3720  -22.1640   -6.5160 C.2     1  UNL1        0.0490
     27  C         15.1250  -22.7160   -6.2110 C.2     1  UNL1        0.0310
     28  C         14.8760  -23.2180   -4.9380 C.2     1  UNL1        0.0030
     29  C         15.8720  -23.1600   -3.9640 C.2     1  UNL1        0.0070
     30  C         17.1240  -22.5890   -4.2470 C.2     1  UNL1       -0.0540
     31  C         18.1600  -22.5440   -3.1530 C.3     1  UNL1        0.0490
     32  C         17.3720  -22.0480   -5.5310 C.2     1  UNL1       -0.0290
     33  C         18.7060  -21.4150   -5.8390 C.3     1  UNL1        0.0510
@<TRIPOS>BOND
     1    20    19    1
     2    20    17    1
     3    19    16    1
     4    17    15    1
     5    16    15    2
     6    16    18    1
     7    15    14    1
     8    18    12    2
     9    14    13    2
    10    12    13    1
    11    12    10    1
    12     9     8    2
    13    10     8   am
    14    10    11    1
    15     8     5    1
    16    22    21    2
    17     5     6    2
    18     5     4    1
    19     6     7    1
    20     4     3    2
    21     7    21    1
    22     7     2    2
    23    21    23    2
    24    21    24    1
    25     3     2    1
    26     2     1    1
    27    25    24    1
    28    24    26    1
    29    26    27    2
    30    26    32    1
    31    27    28    1
    32    33    32    1
    33    32    30    2
    34    28    29    2
    35    30    29    1
    36    30    31    1
