@<TRIPOS>MOLECULE
30729_out_ligand_01.pdbqt
 32 35 0 0 0
SMALL
GASTEIGER

@<TRIPOS>ATOM
      1  C         23.6840  -21.8500  -13.1390 C.2     1  UNL1        0.0540
      2  C         24.7630  -21.6600  -14.0170 C.2     1  UNL1        0.0190
      3  C         25.9130  -22.4440  -13.8920 C.2     1  UNL1        0.0010
      4  C         25.9880  -23.4230  -12.9030 C.2     1  UNL1        0.0020
      5  C         24.9130  -23.6290  -12.0370 C.2     1  UNL1        0.0250
      6  C         23.7550  -22.8550  -12.1570 C.2     1  UNL1        0.0380
      7  N         22.7010  -23.0450  -11.2000 N.pl3   1  UNL1       -0.1800
      8  H         21.8350  -22.5360  -11.4380 H       1  UNL1        0.1460
      9  S         23.0850  -22.6920   -9.5830 S.O2    1  UNL1        0.2450
     10  O         24.1440  -23.5770   -9.1400 O.2     1  UNL1       -0.2060
     11  O         23.2110  -21.2540   -9.4800 O.2     1  UNL1       -0.2060
     12  C         21.5840  -23.1340   -8.7420 C.2     1  UNL1        0.0750
     13  C         21.0740  -24.4240   -8.9010 C.2     1  UNL1        0.0260
     14  C         19.9040  -24.7850   -8.2310 C.2     1  UNL1        0.0140
     15  C         19.2380  -23.8630   -7.4040 C.2     1  UNL1       -0.0260
     16  C         18.0630  -24.2160   -6.7210 C.2     1  UNL1        0.0120
     17  C         19.7560  -22.5530   -7.2580 C.2     1  UNL1       -0.0250
     18  C         17.4090  -23.2920   -5.9050 C.2     1  UNL1        0.0010
     19  C         17.9170  -22.0050   -5.7630 C.2     1  UNL1        0.0010
     20  C         19.0840  -21.6360   -6.4350 C.2     1  UNL1        0.0120
     21  C         20.9320  -22.1970   -7.9360 C.2     1  UNL1        0.0370
     22  C         22.4440  -21.0430  -13.2820 C.2     1  UNL1        0.2530
     23  O         22.3020  -20.3260  -14.2680 O.2     1  UNL1       -0.2680
     24  N         21.5110  -21.1650  -12.2790 N.am    1  UNL1       -0.3530
     25  H         21.6360  -21.8470  -11.5450 H       1  UNL1        0.1630
     26  C         20.2920  -20.3890  -12.2600 C.3     1  UNL1        0.1610
     27  C         19.1900  -21.1690  -11.5930 C.2     1  UNL1       -0.0410
     28  C         18.0110  -20.5160  -11.1990 C.2     1  UNL1        0.0090
     29  C         16.9800  -21.2240  -10.5810 C.2     1  UNL1        0.0010
     30  C         17.1190  -22.5900  -10.3420 C.2     1  UNL1        0.0000
     31  C         18.2880  -23.2470  -10.7220 C.2     1  UNL1        0.0010
     32  C         19.3220  -22.5410  -11.3440 C.2     1  UNL1        0.0090
@<TRIPOS>BOND
     1    23    22    2
     2     2     3    1
     3     2     1    2
     4     3     4    2
     5    22     1    1
     6    22    24   am
     7     1     6    1
     8     4     5    1
     9    24    26    1
    10    24    25    1
    11    26    27    1
    12     6     5    2
    13     6     7    1
    14    27    32    2
    15    27    28    1
    16     8     7    1
    17    32    31    1
    18     7     9    1
    19    28    29    2
    20    31    30    2
    21    29    30    1
    22     9    11    2
    23     9    10    2
    24     9    12    1
    25    13    12    2
    26    13    14    1
    27    12    21    1
    28    14    15    2
    29    21    17    2
    30    15    17    1
    31    15    16    1
    32    17    20    1
    33    16    18    2
    34    20    19    2
    35    18    19    1
