@<TRIPOS>MOLECULE
30725_out_ligand_01.pdbqt
 31 34 0 0 0
SMALL
GASTEIGER

@<TRIPOS>ATOM
      1  C         22.3820  -22.1070  -11.7060 C.2     1  UNL1        0.0320
      2  C         22.2810  -23.0500  -10.6760 C.2     1  UNL1        0.0170
      3  C         21.0530  -23.2620  -10.0450 C.2     1  UNL1        0.0100
      4  C         19.9080  -22.5480  -10.4460 C.2     1  UNL1       -0.0300
      5  C         20.0140  -21.6260  -11.4930 C.2     1  UNL1        0.0100
      6  C         21.2420  -21.4060  -12.1210 C.2     1  UNL1        0.0170
      7  C         23.7070  -21.8820  -12.3550 C.2     1  UNL1        0.2560
      8  O         24.6370  -21.4760  -11.6700 O.2     1  UNL1       -0.2670
      9  N         23.7230  -22.1390  -13.7130 N.am    1  UNL1       -0.3220
     10  H         22.8180  -22.3260  -14.1500 H       1  UNL1        0.1690
     11  C         24.8140  -22.0990  -14.6150 C.2     1  UNL1        0.0510
     12  C         25.1390  -20.9450  -15.3390 C.2     1  UNL1        0.0300
     13  C         26.2230  -20.9310  -16.2200 C.2     1  UNL1        0.0020
     14  C         27.0090  -22.0640  -16.3870 C.2     1  UNL1        0.0010
     15  C         26.7110  -23.2220  -15.6700 C.2     1  UNL1        0.0200
     16  C         25.6180  -23.2520  -14.7870 C.2     1  UNL1        0.0640
     17  C         25.3260  -24.4950  -14.0240 C.2     1  UNL1        0.1780
     18  O         24.8720  -25.5240  -14.4940 O.2     1  UNL1       -0.6460
     19  O         25.6100  -24.4050  -12.7140 O.3     1  UNL1       -0.7730
     20  H         26.1470  -23.5890  -12.6380 H       1  UNL1        0.1670
     21  C         18.5690  -22.7920   -9.7840 C.3     1  UNL1        0.3110
     22  N         18.6540  -23.2480   -8.3930 N.3     1  UNL1        0.0970
     23  C         17.3410  -23.7360   -7.9560 C.3     1  UNL1        0.2770
     24  C         17.4100  -24.2850   -6.5280 C.3     1  UNL1        0.0690
     25  C         17.7950  -23.1640   -5.6000 C.2     1  UNL1       -0.0490
     26  C         17.3290  -23.1180   -4.2820 C.2     1  UNL1        0.0070
     27  C         18.6470  -22.1570   -6.0860 C.2     1  UNL1       -0.0240
     28  C         17.6690  -22.0440   -3.4540 C.2     1  UNL1        0.0010
     29  C         18.4960  -21.0300   -3.9310 C.2     1  UNL1        0.0010
     30  C         18.9910  -21.0880   -5.2350 C.2     1  UNL1        0.0090
     31  C         19.2170  -22.2150   -7.5010 C.3     1  UNL1        0.3110
@<TRIPOS>BOND
     1    14    13    2
     2    14    15    1
     3    13    12    1
     4    15    16    2
     5    12    11    2
     6    16    11    1
     7    16    17    1
     8    11     9    1
     9    18    17    2
    10    10     9    1
    11    17    19    1
    12     9     7   am
    13    19    20    1
    14     7     1    1
    15     7     8    2
    16     6     1    2
    17     6     5    1
    18     1     2    1
    19     5     4    2
    20     2     3    2
    21     4     3    1
    22     4    21    1
    23    21    22    1
    24    22    23    1
    25    22    31    1
    26    23    24    1
    27    31    27    1
    28    24    25    1
    29    27    25    2
    30    27    30    1
    31    25    26    1
    32    30    29    2
    33    26    28    2
    34    29    28    1
