@<TRIPOS>MOLECULE
30723_out_ligand_01.pdbqt
 34 36 0 0 0
SMALL
GASTEIGER

@<TRIPOS>ATOM
      1  C         17.2730  -22.9570   -9.1800 C.2     1  UNL1        0.0860
      2  C         18.6550  -22.9390   -9.4410 C.2     1  UNL1        0.0420
      3  C         19.1760  -22.1300  -10.4520 C.2     1  UNL1        0.0330
      4  C         18.3190  -21.3340  -11.2120 C.2     1  UNL1        0.0170
      5  C         16.9420  -21.3690  -10.9710 C.2     1  UNL1        0.0090
      6  C         16.3940  -22.1800   -9.9590 C.2     1  UNL1       -0.0390
      7  C         14.9030  -22.1630   -9.7780 C.3     1  UNL1        0.0500
      8  C         20.6510  -22.0990  -10.6440 C.2     1  UNL1        0.2560
      9  O         21.3560  -22.1210   -9.6440 O.2     1  UNL1       -0.2670
     10  N         21.0630  -22.0780  -11.9640 N.am    1  UNL1       -0.3230
     11  H         20.3490  -22.2000  -12.6700 H       1  UNL1        0.1690
     12  C         22.3880  -21.9980  -12.4410 C.2     1  UNL1        0.0350
     13  C         22.6200  -21.1800  -13.5540 C.2     1  UNL1        0.0300
     14  C         23.9080  -21.0430  -14.0840 C.2     1  UNL1        0.0180
     15  C         24.9900  -21.7240  -13.5130 C.2     1  UNL1        0.0480
     16  C         24.7560  -22.5310  -12.3920 C.2     1  UNL1        0.0180
     17  C         23.4670  -22.6680  -11.8630 C.2     1  UNL1        0.0300
     18  C         26.3840  -21.5600  -14.0680 C.3     1  UNL1        0.4170
     19  F         27.1140  -20.6110  -13.4170 F       1  UNL1       -0.1660
     20  F         27.1210  -22.7050  -14.0010 F       1  UNL1       -0.1660
     21  F         26.3800  -21.1970  -15.3800 F       1  UNL1       -0.1660
     22  S         16.7540  -24.0340   -7.8480 S.O2    1  UNL1        0.2630
     23  O         15.7180  -24.9300   -8.3090 O.2     1  UNL1       -0.2000
     24  O         17.9640  -24.5620   -7.2490 O.2     1  UNL1       -0.2000
     25  N         16.1070  -22.9620   -6.7170 N.pl3   1  UNL1       -0.2800
     26  H         15.1210  -23.1310   -6.5360 H       1  UNL1        0.1790
     27  C         16.9160  -22.4270   -5.6730 C.2     1  UNL1        0.0490
     28  C         16.6240  -22.7020   -4.3260 C.2     1  UNL1       -0.0350
     29  C         17.4780  -22.1890   -3.3350 C.2     1  UNL1        0.0090
     30  C         15.4690  -23.5640   -3.8970 C.3     1  UNL1        0.0500
     31  C         18.5730  -21.3900   -3.6700 C.2     1  UNL1        0.0070
     32  C         18.8330  -21.0760   -5.0050 C.2     1  UNL1       -0.0600
     33  C         20.0170  -20.2320   -5.3760 C.3     1  UNL1        0.0480
     34  C         18.0020  -21.6060   -6.0000 C.2     1  UNL1        0.0370
@<TRIPOS>BOND
     1    21    18    1
     2    14    13    1
     3    14    15    2
     4    18    20    1
     5    18    15    1
     6    18    19    1
     7    13    12    2
     8    15    16    1
     9    11    10    1
    10    12    10    1
    11    12    17    1
    12    16    17    2
    13    10     8   am
    14     4     5    2
    15     4     3    1
    16     5     6    1
    17     8     3    1
    18     8     9    2
    19     3     2    2
    20     6     7    1
    21     6     1    2
    22     2     1    1
    23     1    22    1
    24    23    22    2
    25    22    24    2
    26    22    25    1
    27    25    26    1
    28    25    27    1
    29    34    27    2
    30    34    32    1
    31    27    28    1
    32    33    32    1
    33    32    31    2
    34    28    30    1
    35    28    29    2
    36    31    29    1
