@<TRIPOS>MOLECULE
30733_out_ligand_01.pdbqt
 31 34 0 0 0
SMALL
GASTEIGER

@<TRIPOS>ATOM
      1  C         20.7320  -22.5120   -7.6870 C.2     1  UNL1        0.0320
      2  C         20.8810  -23.6910   -8.4250 C.2     1  UNL1        0.0170
      3  C         22.0450  -23.9170   -9.1650 C.2     1  UNL1        0.0100
      4  C         23.0800  -22.9710   -9.1740 C.2     1  UNL1       -0.0300
      5  C         22.9340  -21.8030   -8.4100 C.2     1  UNL1        0.0100
      6  C         21.7700  -21.5730   -7.6700 C.2     1  UNL1        0.0170
      7  C         19.4740  -22.3170   -6.9160 C.2     1  UNL1        0.2510
      8  N         18.4480  -23.2020   -7.1810 N.am    1  UNL1       -0.3530
      9  H         18.5880  -23.9500   -7.8450 H       1  UNL1        0.1630
     10  O         19.3970  -21.4220   -6.0810 O.2     1  UNL1       -0.2680
     11  C         17.1460  -23.0940   -6.5230 C.3     1  UNL1        0.0810
     12  C         16.8010  -24.4460   -5.9020 C.3     1  UNL1        0.0320
     13  C         16.0940  -22.6050   -7.5390 C.3     1  UNL1        0.0290
     14  C         16.1960  -23.2500   -8.9270 C.3     1  UNL1        0.0400
     15  C         17.0320  -22.5030   -9.9360 C.2     1  UNL1       -0.0580
     16  C         18.2860  -22.9880  -10.3300 C.2     1  UNL1        0.0070
     17  C         19.0590  -22.2860  -11.2580 C.2     1  UNL1        0.0010
     18  C         18.5900  -21.0890  -11.7930 C.2     1  UNL1        0.0000
     19  C         17.3520  -20.5890  -11.3970 C.2     1  UNL1        0.0010
     20  C         16.5780  -21.2890  -10.4700 C.2     1  UNL1        0.0070
     21  C         24.3410  -23.2180   -9.9780 C.3     1  UNL1        0.3110
     22  N         24.5810  -22.3400  -11.1280 N.3     1  UNL1        0.0970
     23  C         24.5930  -23.0300  -12.4200 C.3     1  UNL1        0.2770
     24  C         24.4780  -22.0150  -13.5670 C.3     1  UNL1        0.0690
     25  C         25.4260  -20.8510  -13.4150 C.2     1  UNL1       -0.0490
     26  C         25.6800  -20.0040  -14.5010 C.2     1  UNL1        0.0070
     27  C         26.0070  -20.5780  -12.1630 C.2     1  UNL1       -0.0240
     28  C         26.5270  -18.9060  -14.3540 C.2     1  UNL1        0.0010
     29  C         27.1200  -18.6430  -13.1210 C.2     1  UNL1        0.0010
     30  C         26.8640  -19.4760  -12.0310 C.2     1  UNL1        0.0090
     31  C         25.7770  -21.5000  -10.9820 C.3     1  UNL1        0.3110
@<TRIPOS>BOND
     1    26    28    1
     2    26    25    2
     3    28    29    2
     4    24    25    1
     5    24    23    1
     6    25    27    1
     7    29    30    1
     8    23    22    1
     9    27    30    2
    10    27    31    1
    11    18    19    2
    12    18    17    1
    13    19    20    1
    14    17    16    2
    15    22    31    1
    16    22    21    1
    17    20    15    2
    18    16    15    1
    19    21     4    1
    20    15    14    1
    21     4     3    2
    22     4     5    1
    23     3     2    1
    24    14    13    1
    25     2     1    2
    26     5     6    2
    27     9     8    1
    28     1     6    1
    29     1     7    1
    30    13    11    1
    31     8     7   am
    32     8    11    1
    33     7    10    2
    34    11    12    1
