@<TRIPOS>MOLECULE
30735_out_ligand_01.pdbqt
 38 42 0 0 0
SMALL
GASTEIGER

@<TRIPOS>ATOM
      1  N         21.6480  -23.0590  -10.2180 N.ar    1  UNL1       -0.2870
      2  C         22.9920  -22.9210  -10.5900 C.ar    1  UNL1        0.3330
      3  O         23.8820  -23.4090   -9.8900 O.2     1  UNL1       -0.2460
      4  N         23.2850  -22.1720  -11.7360 N.ar    1  UNL1       -0.2550
      5  C         22.3440  -21.5020  -12.5220 C.ar    1  UNL1        0.2880
      6  O         22.6390  -20.9520  -13.5820 O.2     1  UNL1       -0.2650
      7  C         21.0280  -21.5820  -11.9840 C.ar    1  UNL1        0.1720
      8  O         19.9730  -20.9290  -12.5210 O.2     1  UNL1       -0.3020
      9  C         18.9020  -21.2420  -11.7380 C.ar    1  UNL1        0.0890
     10  C         17.6090  -20.7590  -11.9380 C.2     1  UNL1        0.0380
     11  C         16.6370  -21.1780  -11.0270 C.2     1  UNL1        0.0030
     12  C         16.9620  -22.0380   -9.9770 C.2     1  UNL1        0.0010
     13  C         18.2720  -22.5130   -9.8010 C.2     1  UNL1        0.0170
     14  C         19.2750  -22.1090  -10.7050 C.ar    1  UNL1        0.0280
     15  C         20.6720  -22.3200  -10.8870 C.ar    1  UNL1        0.0920
     16  C         21.3400  -23.9170   -9.0740 C.3     1  UNL1        0.2370
     17  C         20.7590  -23.1150   -7.9080 C.2     1  UNL1        0.2400
     18  N         19.5020  -23.5520   -7.5200 N.am    1  UNL1       -0.3260
     19  H         19.0460  -24.2220   -8.1410 H       1  UNL1        0.1690
     20  O         21.3690  -22.1480   -7.4510 O.2     1  UNL1       -0.2710
     21  C         18.7530  -23.1390   -6.4000 C.2     1  UNL1        0.0370
     22  C         18.9970  -21.8490   -5.9130 C.2     1  UNL1        0.0290
     23  C         18.2740  -21.3560   -4.8260 C.2     1  UNL1        0.0050
     24  C         17.2950  -22.1450   -4.2290 C.2     1  UNL1        0.0370
     25  C         17.0370  -23.4310   -4.7080 C.2     1  UNL1        0.0700
     26  C         17.7670  -23.9240   -5.7950 C.2     1  UNL1        0.0660
     27  O         16.0370  -24.0930   -4.0500 O.2     1  UNL1       -0.3560
     28  C         14.7360  -24.0090   -4.6270 C.3     1  UNL1        0.2100
     29  C         24.6760  -22.1390  -12.1850 C.3     1  UNL1        0.2400
     30  C         24.8530  -23.0200  -13.4270 C.2     1  UNL1        0.2360
     31  O         24.9110  -24.2420  -13.3560 O.2     1  UNL1       -0.2720
     32  N         25.0120  -22.3150  -14.6110 N.am    1  UNL1       -0.3550
     33  H         25.3890  -21.3760  -14.5120 H       1  UNL1        0.1620
     34  C         25.3250  -22.9880  -15.8570 C.3     1  UNL1        0.0840
     35  C         24.1050  -23.0720  -16.7650 C.3     1  UNL1        0.0250
     36  C         24.7140  -23.2970  -18.1380 C.3     1  UNL1        0.0020
     37  C         25.9290  -22.3790  -18.1530 C.3     1  UNL1        0.0020
     38  C         26.3580  -22.2210  -16.6940 C.3     1  UNL1        0.0250
@<TRIPOS>BOND
     1    37    36    1
     2    37    38    1
     3    36    35    1
     4    35    34    1
     5    38    34    1
     6    34    32    1
     7    32    33    1
     8    32    30   am
     9     6     5    2
    10    30    31    2
    11    30    29    1
    12     5     7   ar
    13     5     4   ar
    14     8     7   ar
    15     8     9   ar
    16    29     4    1
    17     7    15   ar
    18    10     9    2
    19    10    11    1
    20     9    14   ar
    21     4     2   ar
    22    11    12    2
    23    15    14   ar
    24    15     1   ar
    25    14    13    2
    26     2     1   ar
    27     2     3    2
    28     1    16    1
    29    12    13    1
    30    16    17    1
    31    19    18    1
    32    17    18   am
    33    17    20    2
    34    18    21    1
    35    21    22    2
    36    21    26    1
    37    22    23    1
    38    26    25    2
    39    23    24    2
    40    25    24    1
    41    25    27    1
    42    28    27    1
