@<TRIPOS>MOLECULE
30739_out_ligand_01.pdbqt
 28 30 0 0 0
SMALL
GASTEIGER

@<TRIPOS>ATOM
      1  N         23.2930  -23.3610  -11.1900 N.pl3   1  UNL1       -0.1800
      2  H         23.1740  -24.3860  -11.1590 H       1  UNL1        0.1460
      3  C         24.2880  -22.9360  -12.1380 C.2     1  UNL1        0.0380
      4  C         25.5590  -23.5140  -12.0720 C.2     1  UNL1        0.0250
      5  C         26.5320  -23.1840  -13.0200 C.2     1  UNL1        0.0020
      6  C         26.2400  -22.2750  -14.0380 C.2     1  UNL1        0.0010
      7  C         24.9740  -21.6890  -14.1090 C.2     1  UNL1        0.0190
      8  C         23.9850  -22.0250  -13.1710 C.2     1  UNL1        0.0540
      9  C         22.6360  -21.3920  -13.2280 C.2     1  UNL1        0.2530
     10  N         21.7850  -21.6550  -12.1740 N.am    1  UNL1       -0.3530
     11  H         22.1810  -22.0340  -11.3250 H       1  UNL1        0.1630
     12  O         22.3500  -20.6620  -14.1740 O.2     1  UNL1       -0.2680
     13  C         20.5320  -20.9540  -12.0510 C.3     1  UNL1        0.1490
     14  C         19.5530  -21.8870  -11.4080 C.2     1  UNL1       -0.0180
     15  C         18.4410  -21.4910  -10.7660 C.2     1  UNL1        0.0080
     16  S         23.4910  -22.8210   -9.5920 S.O2    1  UNL1        0.2450
     17  O         24.4400  -23.7150   -8.9570 O.2     1  UNL1       -0.2060
     18  O         23.6930  -21.3820   -9.5840 O.2     1  UNL1       -0.2060
     19  C         21.9030  -23.1730   -8.8780 C.2     1  UNL1        0.0750
     20  C         21.2480  -24.3590   -9.2240 C.2     1  UNL1        0.0260
     21  C         20.0030  -24.6370   -8.6640 C.2     1  UNL1        0.0140
     22  C         19.4050  -23.7390   -7.7570 C.2     1  UNL1       -0.0260
     23  C         18.1490  -24.0030   -7.1910 C.2     1  UNL1        0.0120
     24  C         20.0810  -22.5480   -7.4030 C.2     1  UNL1       -0.0250
     25  C         17.5620  -23.1030   -6.2960 C.2     1  UNL1        0.0010
     26  C         18.2260  -21.9310   -5.9520 C.2     1  UNL1        0.0010
     27  C         19.4790  -21.6560   -6.4990 C.2     1  UNL1        0.0120
     28  C         21.3370  -22.2780   -7.9630 C.2     1  UNL1        0.0370
@<TRIPOS>BOND
     1    12     9    2
     2     7     6    2
     3     7     8    1
     4     6     5    1
     5     9     8    1
     6     9    10   am
     7     8     3    2
     8     5     4    2
     9    10    13    1
    10    10    11    1
    11     3     4    1
    12     3     1    1
    13    13    14    1
    14    14    15    2
    15     1     2    1
    16     1    16    1
    17    16    18    2
    18    16    17    2
    19    16    19    1
    20    20    19    2
    21    20    21    1
    22    19    28    1
    23    21    22    2
    24    28    24    2
    25    22    24    1
    26    22    23    1
    27    24    27    1
    28    23    25    2
    29    27    26    2
    30    25    26    1
