@<TRIPOS>MOLECULE
30737_out_ligand_01.pdbqt
 31 33 0 0 0
SMALL
GASTEIGER

@<TRIPOS>ATOM
      1  C         18.6500  -22.4860  -10.0220 C.2     1  UNL1        0.0810
      2  C         19.9900  -22.9020  -10.0060 C.2     1  UNL1        0.0420
      3  C         20.9100  -22.3380  -10.8950 C.2     1  UNL1        0.0330
      4  C         20.4920  -21.3660  -11.8070 C.2     1  UNL1        0.0170
      5  C         19.1550  -20.9560  -11.8250 C.2     1  UNL1        0.0090
      6  C         18.2130  -21.5100  -10.9410 C.2     1  UNL1       -0.0390
      7  C         16.7930  -21.0190  -11.0180 C.3     1  UNL1        0.0500
      8  S         17.5460  -23.2230   -8.8200 S.O2    1  UNL1        0.2460
      9  O         16.3440  -23.6280   -9.5180 O.2     1  UNL1       -0.2060
     10  O         18.3090  -24.1620   -8.0290 O.2     1  UNL1       -0.2060
     11  N         17.1390  -21.8470   -7.8960 N.pl3   1  UNL1       -0.1810
     12  H         16.3330  -21.4090   -8.3400 H       1  UNL1        0.1460
     13  C         16.8930  -22.1170   -6.5050 C.2     1  UNL1        0.0280
     14  C         15.6200  -22.5750   -6.1440 C.2     1  UNL1        0.0250
     15  C         15.3080  -22.8200   -4.8070 C.2     1  UNL1        0.0020
     16  C         16.2660  -22.6000   -3.8230 C.2     1  UNL1        0.0010
     17  C         17.5350  -22.1340   -4.1750 C.2     1  UNL1        0.0080
     18  C         17.8690  -21.8880   -5.5190 C.2     1  UNL1       -0.0400
     19  C         19.2390  -21.3580   -5.8360 C.3     1  UNL1        0.0500
     20  C         22.3140  -22.8210  -10.8660 C.2     1  UNL1        0.2520
     21  O         22.6910  -23.5430   -9.9510 O.2     1  UNL1       -0.2680
     22  N         23.1220  -22.3800  -11.8900 N.am    1  UNL1       -0.3490
     23  H         22.8060  -21.5990  -12.4500 H       1  UNL1        0.1630
     24  C         24.5460  -22.6790  -11.9180 C.3     1  UNL1        0.1140
     25  C         24.8800  -23.7410  -12.9720 C.3     1  UNL1        0.0370
     26  C         25.3280  -21.3960  -12.1360 C.2     1  UNL1       -0.0360
     27  C         25.3990  -20.8310  -13.4200 C.2     1  UNL1        0.0090
     28  C         26.1330  -19.6650  -13.6440 C.2     1  UNL1        0.0010
     29  C         26.8100  -19.0500  -12.5920 C.2     1  UNL1        0.0000
     30  C         26.7540  -19.6010  -11.3140 C.2     1  UNL1        0.0010
     31  C         26.0200  -20.7670  -11.0870 C.2     1  UNL1        0.0090
@<TRIPOS>BOND
     1    28    27    1
     2    28    29    2
     3    27    26    2
     4    25    24    1
     5    29    30    1
     6    23    22    1
     7    26    24    1
     8    26    31    1
     9    24    22    1
    10    22    20   am
    11     5     4    2
    12     5     6    1
    13     4     3    1
    14    30    31    2
    15     7     6    1
    16     6     1    2
    17     3    20    1
    18     3     2    2
    19    20    21    2
    20     1     2    1
    21     1     8    1
    22     9     8    2
    23     8    10    2
    24     8    11    1
    25    12    11    1
    26    11    13    1
    27    13    14    2
    28    13    18    1
    29    14    15    1
    30    19    18    1
    31    18    17    2
    32    15    16    2
    33    17    16    1
