@<TRIPOS>MOLECULE
30746_out_ligand_01.pdbqt
 31 34 0 0 0
SMALL
GASTEIGER

@<TRIPOS>ATOM
      1  C         22.4090  -21.6350  -12.6700 C.2     1  UNL1        0.0540
      2  C         22.8280  -20.9460  -13.8180 C.2     1  UNL1        0.0190
      3  C         24.0110  -21.3160  -14.4600 C.2     1  UNL1        0.0010
      4  C         24.7800  -22.3660  -13.9590 C.2     1  UNL1        0.0020
      5  C         24.3730  -23.0480  -12.8110 C.2     1  UNL1        0.0250
      6  C         23.1960  -22.6810  -12.1560 C.2     1  UNL1        0.0380
      7  N         22.7640  -23.4600  -11.0300 N.pl3   1  UNL1       -0.1800
      8  H         23.0850  -24.4400  -11.0650 H       1  UNL1        0.1460
      9  S         23.1660  -22.8390   -9.4980 S.O2    1  UNL1        0.2450
     10  O         23.4250  -21.4190   -9.6100 O.2     1  UNL1       -0.2060
     11  O         24.1410  -23.7380   -8.9200 O.2     1  UNL1       -0.2060
     12  C         21.6530  -23.0720   -8.5960 C.2     1  UNL1        0.0750
     13  C         20.9420  -24.2620   -8.7570 C.2     1  UNL1        0.0260
     14  C         19.7520  -24.4470   -8.0530 C.2     1  UNL1        0.0140
     15  C         19.2690  -23.4550   -7.1850 C.2     1  UNL1       -0.0260
     16  C         18.0710  -23.6270   -6.4740 C.2     1  UNL1        0.0120
     17  C         20.0030  -22.2550   -7.0180 C.2     1  UNL1       -0.0250
     18  C         17.6020  -22.6340   -5.6120 C.2     1  UNL1        0.0010
     19  C         18.3250  -21.4560   -5.4490 C.2     1  UNL1        0.0010
     20  C         19.5190  -21.2670   -6.1460 C.2     1  UNL1        0.0120
     21  C         21.2010  -22.0760   -7.7260 C.2     1  UNL1        0.0370
     22  C         21.1640  -21.2350  -11.9670 C.2     1  UNL1        0.2530
     23  O         21.0490  -20.0860  -11.5510 O.2     1  UNL1       -0.2680
     24  N         20.2180  -22.2230  -11.7930 N.am    1  UNL1       -0.3520
     25  H         20.5050  -23.1830  -11.9430 H       1  UNL1        0.1630
     26  C         19.0030  -21.9850  -11.0230 C.3     1  UNL1        0.0840
     27  C         18.3790  -23.3160  -10.5710 C.3     1  UNL1        0.0250
     28  C         16.8810  -23.2240  -10.2710 C.3     1  UNL1        0.0020
     29  C         16.4600  -21.8170   -9.8740 C.3     1  UNL1        0.0000
     30  C         16.7590  -20.8040  -10.9800 C.3     1  UNL1        0.0020
     31  C         17.9900  -21.1580  -11.8200 C.3     1  UNL1        0.0250
@<TRIPOS>BOND
     1     3     4    2
     2     3     2    1
     3     4     5    1
     4     2     1    2
     5     5     6    2
     6     1     6    1
     7     1    22    1
     8     6     7    1
     9    22    24   am
    10    22    23    2
    11    25    24    1
    12    31    26    1
    13    31    30    1
    14    24    26    1
    15     8     7    1
    16     7     9    1
    17    26    27    1
    18    30    29    1
    19    27    28    1
    20    28    29    1
    21    10     9    2
    22     9    11    2
    23     9    12    1
    24    13    12    2
    25    13    14    1
    26    12    21    1
    27    14    15    2
    28    21    17    2
    29    15    17    1
    30    15    16    1
    31    17    20    1
    32    16    18    2
    33    20    19    2
    34    18    19    1
