@<TRIPOS>MOLECULE
3076_out_ligand_01.pdbqt
 38 41 0 0 0
SMALL
GASTEIGER

@<TRIPOS>ATOM
      1  N         19.1530  -20.5440  -12.1300 N.1     1  UNL1       -0.1910
      2  C         19.9170  -21.3170  -11.7130 C.1     1  UNL1        0.1030
      3  C         20.8820  -22.2390  -11.2040 C.2     1  UNL1        0.0950
      4  C         20.5900  -23.1870  -10.2900 C.2     1  UNL1        0.1140
      5  C         22.2210  -22.1550  -11.6840 C.2     1  UNL1        0.1200
      6  N         22.6280  -21.4770  -12.7400 N.2     1  UNL1       -0.2390
      7  C         23.9870  -21.6380  -12.9350 C.2     1  UNL1        0.0750
      8  C         24.6210  -22.4200  -11.9900 C.2     1  UNL1        0.0840
      9  S         23.4870  -22.9900  -10.8430 S.3     1  UNL1       -0.0780
     10  C         24.6750  -21.0480  -14.0780 C.2     1  UNL1        0.0040
     11  C         25.3350  -19.8200  -13.8840 C.2     1  UNL1        0.0140
     12  C         26.0240  -19.2120  -14.9260 C.2     1  UNL1        0.0020
     13  C         26.0650  -19.8230  -16.1780 C.2     1  UNL1        0.0120
     14  C         25.4200  -21.0490  -16.4040 C.2     1  UNL1       -0.0250
     15  C         25.4810  -21.6430  -17.6760 C.2     1  UNL1        0.0120
     16  C         24.7100  -21.6850  -15.3540 C.2     1  UNL1       -0.0130
     17  C         24.8410  -22.8570  -17.9360 C.2     1  UNL1        0.0010
     18  C         24.1360  -23.4930  -16.9230 C.2     1  UNL1        0.0010
     19  C         24.0720  -22.9150  -15.6510 C.2     1  UNL1        0.0130
     20  N         19.4000  -23.5190   -9.6670 N.pl3   1  UNL1       -0.3640
     21  H         19.0070  -24.4160   -9.9570 H       1  UNL1        0.1650
     22  C         19.0810  -23.2470   -8.3180 C.2     1  UNL1        0.0320
     23  C         18.3040  -24.1790   -7.6140 C.2     1  UNL1        0.0310
     24  C         17.9440  -23.9460   -6.2850 C.2     1  UNL1        0.0270
     25  C         18.3820  -22.7850   -5.6480 C.2     1  UNL1        0.0800
     26  C         19.2120  -21.8790   -6.3120 C.2     1  UNL1        0.0270
     27  C         19.5610  -22.1160   -7.6420 C.2     1  UNL1        0.0310
     28  S         17.8740  -22.4480   -3.9780 S.O2    1  UNL1        0.2650
     29  O         18.6900  -21.3650   -3.4730 O.2     1  UNL1       -0.2000
     30  O         17.7570  -23.7110   -3.2800 O.2     1  UNL1       -0.2000
     31  N         16.3530  -21.8300   -4.2350 N.pl3   1  UNL1       -0.2550
     32  C         15.1830  -22.5250   -4.4160 C.cat   1  UNL1        0.1790
     33  N         15.0210  -23.7590   -4.1300 N.pl3   1  UNL1       -0.2730
     34  N         14.1990  -21.7790   -4.9410 N.pl3   1  UNL1       -0.2720
     35  H         15.8750  -24.1180   -3.6750 H       1  UNL1        0.1890
     36  H         13.4350  -22.3750   -5.2420 H       1  UNL1        0.1270
     37  H         14.4940  -21.1650   -5.6890 H       1  UNL1        0.1270
     38  H         16.3340  -20.8160   -4.2650 H       1  UNL1        0.1810
@<TRIPOS>BOND
     1    17    15    2
     2    17    18    1
     3    15    14    1
     4    18    19    2
     5    14    13    2
     6    14    16    1
     7    13    12    1
     8    19    16    1
     9    16    10    2
    10    12    11    2
    11    10    11    1
    12    10     7    1
    13     7     6    1
    14     7     8    2
    15     6     5    2
    16     1     2    3
    17     8     9    1
    18     2     3    1
    19     5     3    1
    20     5     9    1
    21     3     4    2
    22     4    20    1
    23    21    20    1
    24    20    22    1
    25    22    27    2
    26    22    23    1
    27    27    26    1
    28    23    24    2
    29    26    25    2
    30    24    25    1
    31    37    34    1
    32    25    28    1
    33    36    34    1
    34    34    32    1
    35    32    31    1
    36    32    33    2
    37    38    31    1
    38    31    28    1
    39    33    35    1
    40    28    29    2
    41    28    30    2
