@<TRIPOS>MOLECULE
30768_out_ligand_01.pdbqt
 34 37 0 0 0
SMALL
GASTEIGER

@<TRIPOS>ATOM
      1  C         19.6490  -22.5620   -7.4230 C.2     1  UNL1        0.1020
      2  C         20.9340  -22.0850   -7.7020 C.2     1  UNL1        0.0510
      3  C         21.8210  -22.8610   -8.4480 C.2     1  UNL1       -0.0320
      4  C         21.3980  -24.0990   -8.9400 C.2     1  UNL1        0.0140
      5  C         20.1010  -24.5640   -8.6830 C.2     1  UNL1        0.0400
      6  C         19.2100  -23.7970   -7.9280 C.2     1  UNL1        0.1020
      7  C         23.1690  -22.3860   -8.7600 C.3     1  UNL1        0.0330
      8  C         23.8460  -22.6420   -9.8860 C.3     1  UNL1        0.0890
      9  C         23.4560  -22.0950  -11.2100 C.2     1  UNL1        0.2830
     10  O         22.4990  -21.3670  -11.4100 O.2     1  UNL1       -0.2650
     11  N         24.4350  -22.6250  -12.0720 N.am    1  UNL1       -0.1950
     12  N         25.3740  -23.4400  -11.4280 N.2     1  UNL1       -0.1380
     13  C         25.0170  -23.4380  -10.1830 C.2     1  UNL1        0.1980
     14  C         24.5570  -22.4290  -13.4710 C.2     1  UNL1        0.0620
     15  C         25.0260  -23.4680  -14.2910 C.2     1  UNL1        0.0320
     16  C         25.1580  -23.2970  -15.6730 C.2     1  UNL1        0.0020
     17  C         24.8200  -22.0820  -16.2580 C.2     1  UNL1        0.0000
     18  C         24.3510  -21.0410  -15.4630 C.2     1  UNL1        0.0020
     19  C         24.2220  -21.2130  -14.0800 C.2     1  UNL1        0.0320
     20  O         25.6720  -24.1200   -9.2540 O.2     1  UNL1       -0.3430
     21  H         25.0280  -24.6200   -8.7270 H       1  UNL1        0.2190
     22  O         18.8380  -21.7260   -6.6960 O.2     1  UNL1       -0.3490
     23  C         19.5970  -20.9460   -5.7640 C.3     1  UNL1        0.1710
     24  C         18.7890  -20.8340   -4.4850 C.3     1  UNL1        0.0340
     25  O         17.9170  -24.1440   -7.6520 O.2     1  UNL1       -0.3440
     26  C         17.6400  -24.7520   -6.3940 C.3     1  UNL1        0.2190
     27  C         16.6290  -23.8930   -5.6840 C.2     1  UNL1        0.0260
     28  C         15.5940  -23.3020   -6.4170 C.2     1  UNL1        0.1260
     29  F         15.4890  -23.5360   -7.7340 F       1  UNL1       -0.2050
     30  C         14.6490  -22.4710   -5.8190 C.2     1  UNL1        0.0430
     31  C         14.7240  -22.2110   -4.4550 C.2     1  UNL1        0.0050
     32  C         15.7470  -22.7860   -3.7010 C.2     1  UNL1        0.0240
     33  C         16.6940  -23.6190   -4.3110 C.2     1  UNL1        0.0450
     34 CL         17.9290  -24.2930   -3.3050 Cl      1  UNL1       -0.0840
@<TRIPOS>BOND
     1    17    16    2
     2    17    18    1
     3    16    15    1
     4    18    19    2
     5    15    14    2
     6    19    14    1
     7    14    11    1
     8    11    12    1
     9    11     9   am
    10    12    13    2
    11    10     9    2
    12     9     8    1
    13    13     8    1
    14    13    20    1
    15     8     7    1
    16    20    21    1
    17     4     5    2
    18     4     3    1
    19     7     3    1
    20     5     6    1
    21     3     2    2
    22     6    25    1
    23     6     1    2
    24    29    28    1
    25     2     1    1
    26    25    26    1
    27     1    22    1
    28    22    23    1
    29    28    30    1
    30    28    27    2
    31    26    27    1
    32    30    31    2
    33    23    24    1
    34    27    33    1
    35    31    32    1
    36    33    32    2
    37    33    34    1
