@<TRIPOS>MOLECULE
30776_out_ligand_01.pdbqt
 31 34 0 0 0
SMALL
GASTEIGER

@<TRIPOS>ATOM
      1  C         18.0630  -22.5130  -10.3020 C.2     1  UNL1        0.0320
      2  C         19.2420  -23.1790   -9.9530 C.2     1  UNL1        0.0170
      3  C         20.4600  -22.7890  -10.5110 C.2     1  UNL1        0.0100
      4  C         20.5190  -21.7150  -11.4110 C.2     1  UNL1       -0.0300
      5  C         19.3330  -21.0490  -11.7540 C.2     1  UNL1        0.0100
      6  C         18.1110  -21.4430  -11.2030 C.2     1  UNL1        0.0170
      7  C         16.7910  -22.9420   -9.6600 C.2     1  UNL1        0.2510
      8  O         15.7310  -22.4200   -9.9830 O.2     1  UNL1       -0.2680
      9  N         16.8990  -23.9090   -8.6820 N.am    1  UNL1       -0.3570
     10  H         17.8160  -24.1570   -8.3360 H       1  UNL1        0.1620
     11  C         15.7410  -24.3770   -7.9440 C.3     1  UNL1        0.1230
     12  C         15.8560  -24.0740   -6.4510 C.3     1  UNL1        0.0240
     13  C         17.2790  -24.2500   -5.9130 C.3     1  UNL1        0.0400
     14  C         18.0520  -22.9700   -5.7030 C.2     1  UNL1       -0.0580
     15  C         19.0390  -22.5890   -6.6250 C.2     1  UNL1        0.0100
     16  C         19.7440  -21.3970   -6.4550 C.2     1  UNL1        0.0430
     17  C         19.4580  -20.5820   -5.3680 C.2     1  UNL1        0.1160
     18  F         20.1310  -19.4330   -5.2130 F       1  UNL1       -0.2060
     19  C         18.4820  -20.9350   -4.4480 C.2     1  UNL1        0.0430
     20  C         17.7760  -22.1280   -4.6160 C.2     1  UNL1        0.0100
     21  C         21.8530  -21.2470  -11.9590 C.3     1  UNL1        0.3110
     22  N         22.7560  -22.3610  -12.2890 N.3     1  UNL1        0.0970
     23  C         23.5020  -22.8360  -11.1120 C.3     1  UNL1        0.2770
     24  C         24.4980  -21.8260  -10.5190 C.3     1  UNL1        0.0690
     25  C         25.2500  -21.0480  -11.5750 C.2     1  UNL1       -0.0490
     26  C         26.3170  -20.2190  -11.2060 C.2     1  UNL1        0.0070
     27  C         24.8390  -21.0980  -12.9220 C.2     1  UNL1       -0.0240
     28  C         26.9800  -19.4560  -12.1660 C.2     1  UNL1        0.0010
     29  C         26.5790  -19.5090  -13.5010 C.2     1  UNL1        0.0010
     30  C         25.5170  -20.3300  -13.8790 C.2     1  UNL1        0.0090
     31  C         23.7210  -22.0230  -13.3530 C.3     1  UNL1        0.3110
@<TRIPOS>BOND
     1    30    29    2
     2    30    27    1
     3    29    28    1
     4    31    27    1
     5    31    22    1
     6    27    25    2
     7    22    21    1
     8    22    23    1
     9    28    26    2
    10    21     4    1
    11     5     4    2
    12     5     6    1
    13    25    26    1
    14    25    24    1
    15     4     3    1
    16     6     1    2
    17    23    24    1
    18     3     2    2
    19     1     2    1
    20     1     7    1
    21     8     7    2
    22     7     9   am
    23     9    10    1
    24     9    11    1
    25    11    12    1
    26    15    16    1
    27    15    14    2
    28    16    17    2
    29    12    13    1
    30    13    14    1
    31    14    20    1
    32    17    18    1
    33    17    19    1
    34    20    19    2
