@<TRIPOS>MOLECULE
30787_out_ligand_01.pdbqt
 30 32 0 0 0
SMALL
GASTEIGER

@<TRIPOS>ATOM
      1  C         17.5710  -23.4480   -8.7140 C.2     1  UNL1        0.0860
      2  C         18.9640  -23.6100   -8.7930 C.2     1  UNL1        0.0420
      3  C         19.6820  -22.9990   -9.8250 C.2     1  UNL1        0.0330
      4  C         19.0160  -22.2150  -10.7700 C.2     1  UNL1        0.0170
      5  C         17.6300  -22.0570  -10.6910 C.2     1  UNL1        0.0090
      6  C         16.8860  -22.6620   -9.6630 C.2     1  UNL1       -0.0390
      7  C         15.3960  -22.4520   -9.6460 C.3     1  UNL1        0.0500
      8  S         16.7240  -24.2950   -7.3890 S.O2    1  UNL1        0.2630
      9  O         15.5850  -24.9850   -7.9590 O.2     1  UNL1       -0.2000
     10  O         17.6930  -25.0270   -6.6030 O.2     1  UNL1       -0.2000
     11  N         16.0980  -23.0220   -6.4650 N.pl3   1  UNL1       -0.2810
     12  H         15.1370  -23.2250   -6.1910 H       1  UNL1        0.1790
     13  C         16.9430  -22.4510   -5.4740 C.2     1  UNL1        0.0430
     14  C         16.6730  -22.6710   -4.1250 C.2     1  UNL1        0.0300
     15  C         17.4760  -22.0750   -3.1530 C.2     1  UNL1        0.0030
     16  C         18.5390  -21.2540   -3.5310 C.2     1  UNL1        0.0070
     17  C         18.8020  -21.0100   -4.8850 C.2     1  UNL1       -0.0600
     18  C         19.9520  -20.1380   -5.2900 C.3     1  UNL1        0.0480
     19  C         18.0000  -21.6230   -5.8560 C.2     1  UNL1        0.0370
     20  C         21.1590  -23.1690   -9.8670 C.2     1  UNL1        0.2560
     21  O         21.6790  -23.8980   -9.0320 O.2     1  UNL1       -0.2670
     22  N         21.7860  -22.4840  -10.8910 N.am    1  UNL1       -0.3230
     23  H         21.1900  -22.0260  -11.5670 H       1  UNL1        0.1690
     24  C         23.1710  -22.4240  -11.1540 C.2     1  UNL1        0.0360
     25  C         23.9320  -21.5450  -10.3690 C.2     1  UNL1        0.0290
     26  C         25.3110  -21.4260  -10.5590 C.2     1  UNL1        0.0040
     27  C         25.9450  -22.1890  -11.5350 C.2     1  UNL1        0.0190
     28  C         25.1940  -23.0660  -12.3160 C.2     1  UNL1        0.0130
     29 BR         26.0590  -24.1060  -13.6390 Br      1  UNL1       -0.0510
     30  C         23.8150  -23.1880  -12.1310 C.2     1  UNL1        0.0480
@<TRIPOS>BOND
     1    29    28    1
     2    28    30    1
     3    28    27    2
     4    30    24    2
     5    23    22    1
     6    27    26    1
     7    24    22    1
     8    24    25    1
     9    22    20   am
    10     4     5    2
    11     4     3    1
    12     5     6    1
    13    26    25    2
    14    20     3    1
    15    20    21    2
    16     3     2    2
    17     6     7    1
    18     6     1    2
    19     2     1    1
    20     1     8    1
    21     9     8    2
    22     8    10    2
    23     8    11    1
    24    11    12    1
    25    11    13    1
    26    19    13    2
    27    19    17    1
    28    13    14    1
    29    18    17    1
    30    17    16    2
    31    14    15    2
    32    16    15    1
