@<TRIPOS>MOLECULE
30788_out_ligand_01.pdbqt
 35 39 0 0 0
SMALL
GASTEIGER

@<TRIPOS>ATOM
      1  O         19.2880  -20.8450  -11.5670 O.2     1  UNL1       -0.2670
      2  C         19.6410  -21.8500  -10.9620 C.2     1  UNL1        0.2560
      3  N         20.8560  -22.5010  -11.0740 N.am    1  UNL1       -0.3230
      4  H         20.9430  -23.3880  -10.5940 H       1  UNL1        0.1690
      5  C         18.6750  -22.4850  -10.0210 C.2     1  UNL1        0.0320
      6  C         19.1770  -23.1620   -8.9040 C.2     1  UNL1        0.0170
      7  C         18.3020  -23.7690   -8.0010 C.2     1  UNL1        0.0100
      8  C         16.9150  -23.7200   -8.2090 C.2     1  UNL1       -0.0300
      9  C         16.4200  -23.0560   -9.3400 C.2     1  UNL1        0.0100
     10  C         17.2930  -22.4460  -10.2460 C.2     1  UNL1        0.0170
     11  C         15.9680  -24.3850   -7.2270 C.3     1  UNL1        0.3110
     12  N         15.1030  -23.4230   -6.5280 N.3     1  UNL1        0.0970
     13  C         14.6460  -23.9350   -5.2260 C.3     1  UNL1        0.2770
     14  C         15.7640  -24.1440   -4.1940 C.3     1  UNL1        0.0690
     15  C         16.7670  -23.0180   -4.1800 C.2     1  UNL1       -0.0490
     16  C         17.7160  -22.9410   -3.1530 C.2     1  UNL1        0.0070
     17  C         16.7930  -22.0790   -5.2290 C.2     1  UNL1       -0.0240
     18  C         18.6740  -21.9280   -3.1540 C.2     1  UNL1        0.0010
     19  C         18.6950  -20.9880   -4.1830 C.2     1  UNL1        0.0010
     20  C         17.7570  -21.0600   -5.2130 C.2     1  UNL1        0.0090
     21  C         15.7520  -22.1130   -6.3290 C.3     1  UNL1        0.3110
     22  C         21.9670  -22.1160  -11.8540 C.2     1  UNL1        0.0350
     23  C         23.2370  -22.4680  -11.3740 C.2     1  UNL1        0.0310
     24  C         24.3910  -22.1150  -12.0790 C.2     1  UNL1        0.0270
     25  C         24.2780  -21.3920  -13.2690 C.2     1  UNL1        0.0790
     26  C         23.0200  -21.0640  -13.7740 C.2     1  UNL1        0.0270
     27  C         21.8690  -21.4150  -13.0580 C.2     1  UNL1        0.0310
     28  S         25.7450  -20.9690  -14.1900 S.O2    1  UNL1        0.2600
     29  O         26.8860  -21.3960  -13.4100 O.2     1  UNL1       -0.2000
     30  O         25.5990  -19.5940  -14.6200 O.2     1  UNL1       -0.2000
     31  N         25.6520  -21.9450  -15.5580 N.3     1  UNL1       -0.3070
     32  C         25.3350  -23.3810  -15.4200 C.3     1  UNL1        0.1350
     33  C         24.3610  -23.6700  -16.5560 C.3     1  UNL1        0.0220
     34  C         24.7600  -22.6620  -17.6170 C.3     1  UNL1        0.0220
     35  C         25.0460  -21.4140  -16.7930 C.3     1  UNL1        0.1350
@<TRIPOS>BOND
     1    34    35    1
     2    34    33    1
     3    35    31    1
     4    33    32    1
     5    31    32    1
     6    31    28    1
     7    30    28    2
     8    28    29    2
     9    28    25    1
    10    26    25    2
    11    26    27    1
    12    25    24    1
    13    27    22    2
    14    24    23    2
    15    22    23    1
    16    22     3    1
    17     1     2    2
    18     3     2   am
    19     3     4    1
    20     2     5    1
    21    10     5    2
    22    10     9    1
    23     5     6    1
    24     9     8    2
    25     6     7    2
    26     8     7    1
    27     8    11    1
    28    11    12    1
    29    12    21    1
    30    12    13    1
    31    21    17    1
    32    17    20    1
    33    17    15    2
    34    13    14    1
    35    20    19    2
    36    14    15    1
    37    19    18    1
    38    15    16    1
    39    18    16    2
