@<TRIPOS>MOLECULE
30780_out_ligand_01.pdbqt
 33 36 0 0 0
SMALL
GASTEIGER

@<TRIPOS>ATOM
      1  C         17.6960  -22.1680  -10.3010 C.2     1  UNL1        0.0540
      2  C         17.3690  -20.9220  -10.8530 C.2     1  UNL1        0.0190
      3  C         18.2840  -20.2600  -11.6740 C.2     1  UNL1        0.0010
      4  C         19.5260  -20.8350  -11.9410 C.2     1  UNL1        0.0020
      5  C         19.8620  -22.0710  -11.3870 C.2     1  UNL1        0.0250
      6  C         18.9560  -22.7370  -10.5570 C.2     1  UNL1        0.0380
      7  N         19.3030  -24.0460  -10.0760 N.pl3   1  UNL1       -0.1800
      8  H         19.6990  -24.6550  -10.8090 H       1  UNL1        0.1460
      9  S         20.3620  -24.0930   -8.7460 S.O2    1  UNL1        0.2450
     10  O         20.7450  -25.4660   -8.4870 O.2     1  UNL1       -0.2060
     11  O         19.7760  -23.2700   -7.7100 O.2     1  UNL1       -0.2060
     12  C         21.7750  -23.2140   -9.3650 C.2     1  UNL1        0.0750
     13  C         22.2670  -22.1240   -8.6450 C.2     1  UNL1        0.0260
     14  C         23.3740  -21.4280   -9.1290 C.2     1  UNL1        0.0140
     15  C         23.9990  -21.8150  -10.3260 C.2     1  UNL1       -0.0260
     16  C         25.1120  -21.1220  -10.8270 C.2     1  UNL1        0.0120
     17  C         23.5010  -22.9310  -11.0440 C.2     1  UNL1       -0.0250
     18  C         25.7260  -21.5180  -12.0160 C.2     1  UNL1        0.0010
     19  C         25.2370  -22.6150  -12.7200 C.2     1  UNL1        0.0010
     20  C         24.1310  -23.3170  -12.2380 C.2     1  UNL1        0.0120
     21  C         22.3900  -23.6280  -10.5500 C.2     1  UNL1        0.0370
     22  C         16.7360  -22.8730   -9.4120 C.2     1  UNL1        0.2540
     23  N         17.0020  -22.8110   -8.0620 N.am    1  UNL1       -0.3490
     24  H         17.6400  -22.0920   -7.7450 H       1  UNL1        0.1630
     25  O         15.7580  -23.4300   -9.8990 O.2     1  UNL1       -0.2680
     26  C         16.0390  -23.2920   -7.0820 C.3     1  UNL1        0.1140
     27  C         15.8590  -24.8120   -7.1620 C.3     1  UNL1        0.0370
     28  C         16.4630  -22.8270   -5.6980 C.2     1  UNL1       -0.0360
     29  C         15.6870  -23.0870   -4.5560 C.2     1  UNL1        0.0090
     30  C         16.1160  -22.6720   -3.2940 C.2     1  UNL1        0.0010
     31  C         17.3300  -22.0030   -3.1530 C.2     1  UNL1        0.0000
     32  C         18.1170  -21.7510   -4.2730 C.2     1  UNL1        0.0010
     33  C         17.6900  -22.1640   -5.5370 C.2     1  UNL1        0.0090
@<TRIPOS>BOND
     1    19    20    2
     2    19    18    1
     3    20    17    1
     4    18    16    2
     5     4     3    2
     6     4     5    1
     7     3     2    1
     8     5     6    2
     9    17    21    1
    10    17    15    2
    11     2     1    2
    12    16    15    1
    13     8     7    1
    14     6     1    1
    15     6     7    1
    16    21    12    2
    17    15    14    1
    18     1    22    1
    19     7     9    1
    20    25    22    2
    21    22    23   am
    22    12     9    1
    23    12    13    1
    24    14    13    2
    25     9    10    2
    26     9    11    2
    27    23    24    1
    28    23    26    1
    29    27    26    1
    30    26    28    1
    31    28    33    2
    32    28    29    1
    33    33    32    1
    34    29    30    2
    35    32    31    2
    36    30    31    1
