@<TRIPOS>MOLECULE
30799_out_ligand_01.pdbqt
 31 33 0 0 0
SMALL
GASTEIGER

@<TRIPOS>ATOM
      1  C         16.7120  -21.0090  -11.0590 C.3     1  UNL1        0.0500
      2  C         18.1090  -21.5400  -10.8980 C.2     1  UNL1       -0.0390
      3  C         19.1060  -21.0440  -11.7570 C.2     1  UNL1        0.0090
      4  C         20.4270  -21.4950  -11.6720 C.2     1  UNL1        0.0170
      5  C         20.7730  -22.4610  -10.7240 C.2     1  UNL1        0.0330
      6  C         19.7910  -22.9970   -9.8880 C.2     1  UNL1        0.0420
      7  C         18.4680  -22.5290   -9.9600 C.2     1  UNL1        0.0860
      8  S         17.2890  -23.2600   -8.8270 S.O2    1  UNL1        0.2630
      9  O         16.1230  -23.6770   -9.5790 O.2     1  UNL1       -0.2000
     10  O         17.9930  -24.2070   -7.9910 O.2     1  UNL1       -0.2000
     11  N         16.8000  -21.9460   -7.8860 N.pl3   1  UNL1       -0.2800
     12  H         17.1250  -21.0540   -8.2470 H       1  UNL1        0.1790
     13  C         16.6000  -22.1080   -6.4830 C.2     1  UNL1        0.0490
     14  C         15.3500  -22.5470   -6.0370 C.2     1  UNL1        0.0310
     15  C         15.1250  -22.7870   -4.6860 C.2     1  UNL1        0.0030
     16  C         16.1540  -22.5970   -3.7710 C.2     1  UNL1        0.0070
     17  C         17.4190  -22.1550   -4.1930 C.2     1  UNL1       -0.0540
     18  C         18.4940  -21.9690   -3.1530 C.3     1  UNL1        0.0490
     19  C         17.6450  -21.8760   -5.5630 C.2     1  UNL1       -0.0290
     20  C         19.0060  -21.4050   -6.0100 C.3     1  UNL1        0.0510
     21  C         22.1710  -22.9590  -10.5950 C.2     1  UNL1        0.2560
     22  O         22.4500  -23.6550   -9.6270 O.2     1  UNL1       -0.2670
     23  N         23.0280  -22.5320  -11.5930 N.am    1  UNL1       -0.3230
     24  H         22.6640  -21.8530  -12.2480 H       1  UNL1        0.1690
     25  C         24.3920  -22.8600  -11.7460 C.2     1  UNL1        0.0360
     26  C         25.3760  -22.5670  -10.7980 C.2     1  UNL1        0.0290
     27  C         26.7090  -22.9290  -11.0200 C.2     1  UNL1        0.0040
     28  C         27.0710  -23.5870  -12.1920 C.2     1  UNL1        0.0190
     29  C         26.0950  -23.8830  -13.1380 C.2     1  UNL1        0.0130
     30 BR         26.5750  -24.7810  -14.7320 Br      1  UNL1       -0.0510
     31  C         24.7620  -23.5270  -12.9210 C.2     1  UNL1        0.0480
@<TRIPOS>BOND
     1    30    29    1
     2    29    31    1
     3    29    28    2
     4    31    25    2
     5    24    23    1
     6    28    27    1
     7     3     4    1
     8     3     2    2
     9    25    23    1
    10    25    26    1
    11     4     5    2
    12    23    21   am
    13     1     2    1
    14    27    26    2
    15     2     7    1
    16     5    21    1
    17     5     6    1
    18    21    22    2
    19     7     6    2
    20     7     8    1
    21     9     8    2
    22     8    10    2
    23     8    11    1
    24    12    11    1
    25    11    13    1
    26    13    14    2
    27    13    19    1
    28    14    15    1
    29    20    19    1
    30    19    17    2
    31    15    16    2
    32    17    16    1
    33    17    18    1
