@<TRIPOS>MOLECULE
30805_out_ligand_01.pdbqt
 29 32 0 0 0
SMALL
GASTEIGER

@<TRIPOS>ATOM
      1  C         20.3860  -21.9890  -11.3910 C.2     1  UNL1        0.0320
      2  C         19.2980  -21.1940  -11.7700 C.2     1  UNL1        0.0170
      3  C         18.0430  -21.4090  -11.1920 C.2     1  UNL1        0.0100
      4  C         17.8570  -22.4200  -10.2350 C.2     1  UNL1       -0.0300
      5  C         18.9510  -23.2240   -9.8810 C.2     1  UNL1        0.0100
      6  C         20.2050  -23.0140  -10.4580 C.2     1  UNL1        0.0170
      7  C         21.7400  -21.7930  -11.9800 C.2     1  UNL1        0.2560
      8  N         22.7600  -22.4470  -11.3150 N.am    1  UNL1       -0.3230
      9  H         22.4920  -23.0610  -10.5570 H       1  UNL1        0.1690
     10  O         21.8370  -21.1120  -12.9940 O.2     1  UNL1       -0.2670
     11  C         24.1390  -22.4230  -11.6190 C.2     1  UNL1        0.0360
     12  C         24.9430  -21.5630  -10.8610 C.2     1  UNL1        0.0290
     13  C         26.3150  -21.4800  -11.0980 C.2     1  UNL1        0.0040
     14  C         26.8950  -22.2540  -12.1010 C.2     1  UNL1        0.0180
     15  C         26.1070  -23.1080  -12.8790 C.2     1  UNL1        0.0020
     16  C         24.7320  -23.1970  -12.6220 C.2     1  UNL1        0.0480
     17  S         26.9160  -24.0820  -14.1410 S.3     1  UNL1       -0.1340
     18  C         25.4890  -24.8600  -14.9460 C.3     1  UNL1        0.0950
     19  C         16.4950  -22.6490   -9.6120 C.3     1  UNL1        0.3110
     20  N         16.4180  -22.6140   -8.1470 N.3     1  UNL1        0.0970
     21  C         15.9300  -23.8560   -7.5410 C.3     1  UNL1        0.2770
     22  C         15.5280  -23.6090   -6.0790 C.3     1  UNL1        0.0690
     23  C         16.5770  -22.8500   -5.3050 C.2     1  UNL1       -0.0490
     24  C         16.5290  -22.8120   -3.9050 C.2     1  UNL1        0.0070
     25  C         17.5670  -22.1240   -5.9920 C.2     1  UNL1       -0.0240
     26  C         17.4750  -22.0790   -3.1880 C.2     1  UNL1        0.0010
     27  C         18.4700  -21.3760   -3.8630 C.2     1  UNL1        0.0010
     28  C         18.5190  -21.3990   -5.2570 C.2     1  UNL1        0.0090
     29  C         17.6630  -22.1780   -7.5030 C.3     1  UNL1        0.3110
@<TRIPOS>BOND
     1    18    17    1
     2    17    15    1
     3    10     7    2
     4    15    16    1
     5    15    14    2
     6    16    11    2
     7    14    13    1
     8     7     1    1
     9     7     8   am
    10     2     1    2
    11     2     3    1
    12    11     8    1
    13    11    12    1
    14     1     6    1
    15     8     9    1
    16     3     4    2
    17    13    12    2
    18     6     5    2
    19     4     5    1
    20     4    19    1
    21    19    20    1
    22    20    21    1
    23    20    29    1
    24    21    22    1
    25    29    25    1
    26    22    23    1
    27    25    23    2
    28    25    28    1
    29    23    24    1
    30    28    27    2
    31    24    26    2
    32    27    26    1
