@<TRIPOS>MOLECULE
30801_out_ligand_01.pdbqt
 29 31 0 0 0
SMALL
GASTEIGER

@<TRIPOS>ATOM
      1  N         23.2150  -23.3170  -11.1900 N.pl3   1  UNL1       -0.1800
      2  H         22.2790  -22.9760  -11.4590 H       1  UNL1        0.1460
      3  C         24.2460  -22.9300  -12.1110 C.2     1  UNL1        0.0380
      4  C         25.5090  -23.5140  -11.9850 C.2     1  UNL1        0.0250
      5  C         26.5590  -23.1000  -12.8070 C.2     1  UNL1        0.0020
      6  C         26.3540  -22.0980  -13.7550 C.2     1  UNL1        0.0010
      7  C         25.0980  -21.5020  -13.8840 C.2     1  UNL1        0.0190
      8  C         24.0420  -21.9080  -13.0550 C.2     1  UNL1        0.0540
      9  C         22.6980  -21.2940  -13.1990 C.2     1  UNL1        0.2530
     10  N         21.8550  -21.4150  -12.1120 N.am    1  UNL1       -0.3570
     11  H         22.0690  -22.1570  -11.4570 H       1  UNL1        0.1620
     12  O         22.3880  -20.7540  -14.2560 O.2     1  UNL1       -0.2680
     13  C         20.4650  -21.0220  -12.2250 C.3     1  UNL1        0.1230
     14  C         19.5740  -21.7680  -11.2350 C.3     1  UNL1        0.0190
     15  C         18.1150  -21.3110  -11.3050 C.3     1  UNL1       -0.0030
     16  C         17.2630  -22.0160  -10.2610 C.3     1  UNL1        0.0050
     17  S         23.4710  -22.8830   -9.5650 S.O2    1  UNL1        0.2450
     18  O         24.4360  -23.7890   -8.9750 O.2     1  UNL1       -0.2060
     19  O         23.6670  -21.4500   -9.5330 O.2     1  UNL1       -0.2060
     20  C         21.8800  -23.2000   -8.8420 C.2     1  UNL1        0.0750
     21  C         21.1970  -24.3680   -9.1860 C.2     1  UNL1        0.0260
     22  C         19.9490  -24.6250   -8.6180 C.2     1  UNL1        0.0140
     23  C         19.3740  -23.7190   -7.7110 C.2     1  UNL1       -0.0260
     24  C         18.1200  -23.9660   -7.1300 C.2     1  UNL1        0.0120
     25  C         20.0680  -22.5300   -7.3760 C.2     1  UNL1       -0.0250
     26  C         17.5580  -23.0570   -6.2320 C.2     1  UNL1        0.0010
     27  C         18.2400  -21.8890   -5.9040 C.2     1  UNL1        0.0010
     28  C         19.4870  -21.6260   -6.4730 C.2     1  UNL1        0.0120
     29  C         21.3210  -22.2780   -7.9530 C.2     1  UNL1        0.0370
@<TRIPOS>BOND
     1    12     9    2
     2     7     6    2
     3     7     8    1
     4     6     5    1
     5     9     8    1
     6     9    10   am
     7     8     3    2
     8     5     4    2
     9    13    10    1
    10    13    14    1
    11    10    11    1
    12     3     4    1
    13     3     1    1
    14     2     1    1
    15    15    14    1
    16    15    16    1
    17     1    17    1
    18    17    19    2
    19    17    18    2
    20    17    20    1
    21    21    20    2
    22    21    22    1
    23    20    29    1
    24    22    23    2
    25    29    25    2
    26    23    25    1
    27    23    24    1
    28    25    28    1
    29    24    26    2
    30    28    27    2
    31    26    27    1
