@<TRIPOS>MOLECULE
30808_out_ligand_01.pdbqt
 29 32 0 0 0
SMALL
GASTEIGER

@<TRIPOS>ATOM
      1  C         22.5710  -22.2690   -9.7770 C.2     1  UNL1        0.0320
      2  C         22.6380  -21.7940   -8.4620 C.2     1  UNL1        0.0170
      3  C         21.5740  -22.0230   -7.5840 C.2     1  UNL1        0.0100
      4  C         20.4300  -22.7150   -8.0120 C.2     1  UNL1       -0.0300
      5  C         20.3660  -23.1730   -9.3360 C.2     1  UNL1        0.0100
      6  C         21.4270  -22.9460  -10.2150 C.2     1  UNL1        0.0170
      7  C         23.6820  -22.0480  -10.7460 C.2     1  UNL1        0.2560
      8  N         23.6050  -22.8150  -11.8950 N.am    1  UNL1       -0.3220
      9  H         22.7560  -23.3490  -12.0110 H       1  UNL1        0.1690
     10  O         24.5260  -21.2040  -10.4730 O.2     1  UNL1       -0.2670
     11  C         24.5240  -22.8730  -12.9720 C.2     1  UNL1        0.0410
     12  C         25.6150  -23.7480  -12.9630 C.2     1  UNL1        0.0300
     13  C         26.5050  -23.7970  -14.0330 C.2     1  UNL1        0.0030
     14  C         26.3150  -22.9730  -15.1350 C.2     1  UNL1        0.0070
     15  C         25.2300  -22.0860  -15.1860 C.2     1  UNL1       -0.0540
     16  C         25.0810  -21.2200  -16.4100 C.3     1  UNL1        0.0490
     17  C         24.3210  -22.0290  -14.0990 C.2     1  UNL1       -0.0290
     18  C         23.1460  -21.0800  -14.1340 C.3     1  UNL1        0.0510
     19  C         19.2770  -22.9600   -7.0560 C.3     1  UNL1        0.3110
     20  N         18.4340  -21.7700   -6.8600 N.3     1  UNL1        0.0970
     21  C         18.6810  -21.1260   -5.5600 C.3     1  UNL1        0.2770
     22  C         18.3000  -21.9810   -4.3410 C.3     1  UNL1        0.0690
     23  C         16.9850  -22.6980   -4.5170 C.2     1  UNL1       -0.0490
     24  C         16.3840  -23.3350   -3.4230 C.2     1  UNL1        0.0070
     25  C         16.3900  -22.7840   -5.7890 C.2     1  UNL1       -0.0240
     26  C         15.1900  -24.0380   -3.5850 C.2     1  UNL1        0.0010
     27  C         14.5900  -24.1110   -4.8400 C.2     1  UNL1        0.0010
     28  C         15.1830  -23.4850   -5.9370 C.2     1  UNL1        0.0090
     29  C         16.9940  -22.0720   -6.9810 C.3     1  UNL1        0.3110
@<TRIPOS>BOND
     1    16    15    1
     2    15    14    2
     3    15    17    1
     4    14    13    1
     5    18    17    1
     6    17    11    2
     7    13    12    2
     8    11    12    1
     9    11     8    1
    10     9     8    1
    11     8     7   am
    12     7    10    2
    13     7     1    1
    14     6     1    2
    15     6     5    1
    16     1     2    1
    17     5     4    2
    18     2     3    2
    19     4     3    1
    20     4    19    1
    21    19    20    1
    22    29    20    1
    23    29    25    1
    24    20    21    1
    25    28    25    1
    26    28    27    2
    27    25    23    2
    28    21    22    1
    29    27    26    1
    30    23    22    1
    31    23    24    1
    32    26    24    2
