@<TRIPOS>MOLECULE
30807_out_ligand_01.pdbqt
 31 33 0 0 0
SMALL
GASTEIGER

@<TRIPOS>ATOM
      1  C         17.6020  -22.9840   -9.1000 C.2     1  UNL1        0.0860
      2  C         18.9970  -22.8920   -9.2460 C.2     1  UNL1        0.0420
      3  C         19.5540  -22.1850  -10.3140 C.2     1  UNL1        0.0330
      4  C         18.7180  -21.5640  -11.2420 C.2     1  UNL1        0.0170
      5  C         17.3320  -21.6290  -11.0810 C.2     1  UNL1        0.0090
      6  C         16.7480  -22.3310  -10.0080 C.2     1  UNL1       -0.0390
      7  C         15.2480  -22.3320   -9.9060 C.3     1  UNL1        0.0500
      8  S         17.0350  -23.9450   -7.6990 S.O2    1  UNL1        0.2630
      9  O         18.1570  -24.5800   -7.0450 O.2     1  UNL1       -0.2000
     10  O         15.9170  -24.7380   -8.1680 O.2     1  UNL1       -0.2000
     11  N         16.3790  -22.7800   -6.6700 N.pl3   1  UNL1       -0.2800
     12  H         15.7520  -22.1410   -7.1550 H       1  UNL1        0.1790
     13  C         17.1110  -22.2970   -5.5450 C.2     1  UNL1        0.0480
     14  C         18.2160  -21.4620   -5.7360 C.2     1  UNL1        0.0300
     15  C         18.9360  -20.9750   -4.6450 C.2     1  UNL1        0.0020
     16  C         18.5630  -21.3320   -3.3540 C.2     1  UNL1        0.0010
     17  C         17.4790  -22.1870   -3.1540 C.2     1  UNL1        0.0090
     18  C         16.7450  -22.6860   -4.2430 C.2     1  UNL1       -0.0350
     19  C         15.6060  -23.6310   -3.9750 C.3     1  UNL1        0.0500
     20  C         21.0360  -22.1670  -10.4530 C.2     1  UNL1        0.2560
     21  O         21.7060  -22.1230   -9.4290 O.2     1  UNL1       -0.2670
     22  N         21.4990  -22.1700  -11.7560 N.am    1  UNL1       -0.3230
     23  H         20.8050  -22.0770  -12.4870 H       1  UNL1        0.1690
     24  C         22.8450  -22.1930  -12.1820 C.2     1  UNL1        0.0380
     25  C         23.1520  -21.5050  -13.3620 C.2     1  UNL1        0.0530
     26  C         24.4610  -21.4870  -13.8490 C.2     1  UNL1        0.0370
     27 CL         24.8150  -20.6360  -15.3020 Cl      1  UNL1       -0.0840
     28  C         25.4790  -22.1500  -13.1740 C.2     1  UNL1        0.0480
     29  C         25.1740  -22.8360  -12.0020 C.2     1  UNL1        0.0370
     30 CL         26.4240  -23.6670  -11.1590 Cl      1  UNL1       -0.0840
     31  C         23.8670  -22.8620  -11.5050 C.2     1  UNL1        0.0530
@<TRIPOS>BOND
     1    27    26    1
     2    26    25    1
     3    26    28    2
     4    25    24    2
     5    28    29    1
     6    23    22    1
     7    24    22    1
     8    24    31    1
     9    29    31    2
    10    29    30    1
    11    22    20   am
    12     4     5    2
    13     4     3    1
    14     5     6    1
    15    20     3    1
    16    20    21    2
    17     3     2    2
    18     6     7    1
    19     6     1    2
    20     2     1    1
    21     1     8    1
    22    10     8    2
    23     8     9    2
    24     8    11    1
    25    12    11    1
    26    11    13    1
    27    14    13    2
    28    14    15    1
    29    13    18    1
    30    15    16    2
    31    18    19    1
    32    18    17    2
    33    16    17    1
