@<TRIPOS>MOLECULE
30804_out_ligand_01.pdbqt
 32 35 0 0 0
SMALL
GASTEIGER

@<TRIPOS>ATOM
      1  C         18.5500  -22.5990   -9.9930 C.2     1  UNL1        0.0320
      2  C         17.1690  -22.5030  -10.2050 C.2     1  UNL1        0.0170
      3  C         16.2800  -23.1010   -9.3070 C.2     1  UNL1        0.0100
      4  C         16.7530  -23.7920   -8.1820 C.2     1  UNL1       -0.0300
      5  C         18.1360  -23.8730   -7.9670 C.2     1  UNL1        0.0100
      6  C         19.0270  -23.2760   -8.8630 C.2     1  UNL1        0.0170
      7  C         19.5460  -21.9740  -10.9150 C.2     1  UNL1        0.2560
      8  N         20.8440  -22.4220  -10.7730 N.am    1  UNL1       -0.3220
      9  H         21.0340  -23.0710  -10.0080 H       1  UNL1        0.1690
     10  O         19.1580  -21.1050  -11.6880 O.2     1  UNL1       -0.2670
     11  C         21.9860  -22.0800  -11.5410 C.2     1  UNL1        0.0500
     12  C         21.8940  -21.7020  -12.8860 C.2     1  UNL1        0.0300
     13  C         23.0400  -21.3970  -13.6270 C.2     1  UNL1        0.0020
     14  C         24.2980  -21.4740  -13.0410 C.2     1  UNL1        0.0010
     15  C         24.4140  -21.8460  -11.7030 C.2     1  UNL1        0.0190
     16  C         23.2670  -22.1340  -10.9410 C.2     1  UNL1        0.0580
     17  C         23.4160  -22.5110   -9.5030 C.2     1  UNL1        0.2510
     18  N         24.0840  -23.6700   -9.2090 N.am    1  UNL1       -0.3660
     19  H         24.2850  -23.8270   -8.2290 H       1  UNL1        0.1590
     20  H         24.6950  -24.1180   -9.8770 H       1  UNL1        0.1590
     21  O         23.0010  -21.7930   -8.5980 O.2     1  UNL1       -0.2680
     22  C         15.7840  -24.4400   -7.2120 C.3     1  UNL1        0.3110
     23  N         14.9430  -23.4630   -6.5030 N.3     1  UNL1        0.0970
     24  C         14.4880  -23.9700   -5.1990 C.3     1  UNL1        0.2770
     25  C         15.6120  -24.2060   -4.1790 C.3     1  UNL1        0.0690
     26  C         16.6380  -23.1010   -4.1700 C.2     1  UNL1       -0.0490
     27  C         17.6000  -23.0470   -3.1530 C.2     1  UNL1        0.0070
     28  C         16.6740  -22.1600   -5.2150 C.2     1  UNL1       -0.0240
     29  C         18.5790  -22.0540   -3.1600 C.2     1  UNL1        0.0010
     30  C         18.6060  -21.1100   -4.1840 C.2     1  UNL1        0.0010
     31  C         17.6570  -21.1600   -5.2050 C.2     1  UNL1        0.0090
     32  C         15.6230  -22.1680   -6.3060 C.3     1  UNL1        0.3110
@<TRIPOS>BOND
     1    13    14    2
     2    13    12    1
     3    14    15    1
     4    12    11    2
     5    15    16    2
     6    10     7    2
     7    11    16    1
     8    11     8    1
     9    16    17    1
    10     7     8   am
    11     7     1    1
    12     8     9    1
    13     2     1    2
    14     2     3    1
    15     1     6    1
    16    20    18    1
    17    17    18   am
    18    17    21    2
    19     3     4    2
    20    18    19    1
    21     6     5    2
    22     4     5    1
    23     4    22    1
    24    22    23    1
    25    23    32    1
    26    23    24    1
    27    32    28    1
    28    28    31    1
    29    28    26    2
    30    31    30    2
    31    24    25    1
    32    30    29    1
    33    25    26    1
    34    26    27    1
    35    29    27    2
