@<TRIPOS>MOLECULE
30820_out_ligand_01.pdbqt
 32 34 0 0 0
SMALL
GASTEIGER

@<TRIPOS>ATOM
      1  C         20.4620  -22.7010  -10.0450 C.2     1  UNL1        0.0330
      2  C         21.0950  -23.5820   -9.1670 C.2     1  UNL1        0.0170
      3  C         20.3390  -24.2980   -8.2370 C.2     1  UNL1        0.0090
      4  C         18.9420  -24.1390   -8.1470 C.2     1  UNL1       -0.0390
      5  C         18.2080  -24.9550   -7.1210 C.3     1  UNL1        0.0500
      6  C         18.3190  -23.2260   -9.0190 C.2     1  UNL1        0.0860
      7  C         19.0780  -22.5260   -9.9740 C.2     1  UNL1        0.0420
      8  S         16.5620  -22.8830   -9.0260 S.O2    1  UNL1        0.2630
      9  O         15.8210  -24.0810   -8.7010 O.2     1  UNL1       -0.2000
     10  O         16.2840  -22.1620  -10.2530 O.2     1  UNL1       -0.2000
     11  N         16.3820  -21.7630   -7.7780 N.pl3   1  UNL1       -0.2800
     12  H         16.8460  -20.8770   -7.9640 H       1  UNL1        0.1790
     13  C         16.2420  -22.2060   -6.4310 C.2     1  UNL1        0.0490
     14  C         15.0260  -22.7840   -6.0520 C.2     1  UNL1        0.0310
     15  C         14.8430  -23.2650   -4.7610 C.2     1  UNL1        0.0030
     16  C         15.8800  -23.1780   -3.8380 C.2     1  UNL1        0.0070
     17  C         17.1090  -22.6000   -4.1940 C.2     1  UNL1       -0.0540
     18  C         18.1970  -22.5260   -3.1540 C.3     1  UNL1        0.0490
     19  C         17.2960  -22.0880   -5.5030 C.2     1  UNL1       -0.0290
     20  C         18.6210  -21.4610   -5.8590 C.3     1  UNL1        0.0510
     21  C         21.2290  -21.8850  -11.0240 C.2     1  UNL1        0.2560
     22  N         22.3890  -22.4760  -11.4870 N.am    1  UNL1       -0.3230
     23  H         22.5620  -23.4320  -11.2060 H       1  UNL1        0.1690
     24  O         20.7650  -20.7970  -11.3420 O.2     1  UNL1       -0.2670
     25  C         23.3270  -21.9280  -12.3870 C.2     1  UNL1        0.0350
     26  C         23.0400  -21.6000  -13.7080 C.2     1  UNL1        0.0300
     27  C         24.0290  -21.0600  -14.5350 C.2     1  UNL1        0.0090
     28  C         25.3270  -20.8350  -14.0570 C.2     1  UNL1       -0.0560
     29  C         26.3620  -20.2520  -14.9810 C.3     1  UNL1        0.0490
     30  C         25.6260  -21.1490  -12.7190 C.2     1  UNL1       -0.0540
     31  C         24.6210  -21.6970  -11.9010 C.2     1  UNL1        0.0370
     32  C         27.0020  -20.9290  -12.1510 C.3     1  UNL1        0.0490
@<TRIPOS>BOND
     1    29    28    1
     2    27    28    2
     3    27    26    1
     4    28    30    1
     5    26    25    2
     6    30    32    1
     7    30    31    2
     8    25    31    1
     9    25    22    1
    10    22    23    1
    11    22    21   am
    12    24    21    2
    13    21     1    1
    14    10     8    2
    15     1     7    2
    16     1     2    1
    17     7     6    1
    18     2     3    2
    19     8     6    1
    20     8     9    2
    21     8    11    1
    22     6     4    2
    23     3     4    1
    24     4     5    1
    25    12    11    1
    26    11    13    1
    27    13    14    2
    28    13    19    1
    29    14    15    1
    30    20    19    1
    31    19    17    2
    32    15    16    2
    33    17    16    1
    34    17    18    1
