@<TRIPOS>MOLECULE
30826_out_ligand_01.pdbqt
 36 41 0 0 0
SMALL
GASTEIGER

@<TRIPOS>ATOM
      1  C         17.6260  -22.5960   -9.9170 C.2     1  UNL1        0.0800
      2  C         17.5240  -21.6020  -10.8910 C.2     1  UNL1        0.0270
      3  C         18.6750  -21.1670  -11.5450 C.2     1  UNL1        0.0250
      4  C         19.9250  -21.7250  -11.2450 C.2     1  UNL1        0.0160
      5  C         20.0370  -22.6430  -10.1830 C.2     1  UNL1       -0.0270
      6  C         18.8750  -23.0920   -9.5330 C.2     1  UNL1        0.0350
      7  C         21.3930  -23.1740   -9.7580 C.3     1  UNL1        0.0490
      8  C         21.7320  -22.8050   -8.3380 C.3     1  UNL1       -0.0210
      9  C         22.6160  -21.8020   -8.2830 C.3     1  UNL1       -0.0290
     10  C         23.0200  -21.3570   -9.6520 C.3     1  UNL1        0.0340
     11  C         22.5800  -22.5470  -10.5320 C.3     1  UNL1        0.0230
     12  C         22.1480  -22.2500  -11.9800 C.3     1  UNL1        0.1000
     13  N         21.0630  -21.2650  -11.9400 N.pl3   1  UNL1       -0.2830
     14  H         20.8040  -20.9380  -12.8700 H       1  UNL1        0.1280
     15  S         16.1540  -23.2360   -9.1550 S.O2    1  UNL1        0.2630
     16  O         15.5410  -24.1750  -10.0690 O.2     1  UNL1       -0.2000
     17  O         15.4090  -22.1120   -8.6250 O.2     1  UNL1       -0.2000
     18  N         16.7460  -24.0720   -7.8070 N.pl3   1  UNL1       -0.2800
     19  H         16.7380  -25.0790   -7.9440 H       1  UNL1        0.1790
     20  C         16.4430  -23.5690   -6.5020 C.2     1  UNL1        0.0530
     21  C         15.3110  -24.0760   -5.8560 C.2     1  UNL1        0.0310
     22  C         15.0100  -23.6810   -4.5590 C.2     1  UNL1        0.0030
     23  C         15.8460  -22.7840   -3.8950 C.2     1  UNL1        0.0120
     24  C         16.9910  -22.2660   -4.5200 C.2     1  UNL1       -0.0240
     25  C         17.8290  -21.3760   -3.8280 C.2     1  UNL1        0.0120
     26  C         17.3060  -22.6490   -5.8480 C.2     1  UNL1        0.0010
     27  C         18.9760  -20.8560   -4.4270 C.2     1  UNL1        0.0010
     28  C         19.2990  -21.2160   -5.7280 C.2     1  UNL1        0.0010
     29  C         18.4740  -22.0990   -6.4310 C.2     1  UNL1        0.0140
     30  C         23.1980  -21.8290  -13.0070 C.2     1  UNL1       -0.0220
     31  C         22.9300  -20.8720  -14.0030 C.2     1  UNL1        0.0100
     32  C         23.8990  -20.4880  -14.9360 C.2     1  UNL1        0.0010
     33  C         25.1710  -21.0440  -14.8950 C.2     1  UNL1        0.0010
     34  C         25.4770  -21.9780  -13.9130 C.2     1  UNL1        0.0190
     35  C         24.5080  -22.3630  -12.9760 C.2     1  UNL1        0.0180
     36 BR         25.0790  -23.6250  -11.6630 Br      1  UNL1       -0.0510
@<TRIPOS>BOND
     1    32    33    2
     2    32    31    1
     3    33    34    1
     4    31    30    2
     5    34    35    2
     6    30    35    1
     7    30    12    1
     8    35    36    1
     9    14    13    1
    10    12    13    1
    11    12    11    1
    12    13     4    1
    13     3     4    2
    14     3     2    1
    15     4     5    1
    16     2     1    2
    17    11     7    1
    18    11    10    1
    19     5     7    1
    20     5     6    2
    21    16    15    2
    22     1     6    1
    23     1    15    1
    24     7     8    1
    25    10     9    1
    26    15    17    2
    27    15    18    1
    28     8     9    1
    29    19    18    1
    30    18    20    1
    31    20    21    2
    32    20    26    1
    33    29    26    1
    34    29    28    2
    35    21    22    1
    36    26    24    2
    37    28    27    1
    38    22    23    2
    39    24    23    1
    40    24    25    1
    41    27    25    2
