@<TRIPOS>MOLECULE
30825_out_ligand_01.pdbqt
 34 36 0 0 0
SMALL
GASTEIGER

@<TRIPOS>ATOM
      1  C         17.5960  -23.3920   -8.8320 C.2     1  UNL1        0.0860
      2  C         18.9950  -23.5200   -8.8910 C.2     1  UNL1        0.0420
      3  C         19.7230  -22.8930   -9.9040 C.2     1  UNL1        0.0330
      4  C         19.0570  -22.1300  -10.8640 C.2     1  UNL1        0.0170
      5  C         17.6690  -21.9830  -10.7940 C.2     1  UNL1        0.0090
      6  C         16.9150  -22.6040   -9.7800 C.2     1  UNL1       -0.0390
      7  C         15.4280  -22.3850   -9.7780 C.3     1  UNL1        0.0500
      8  C         21.1920  -23.1140   -9.9570 C.2     1  UNL1        0.2560
      9  O         21.6750  -23.9210   -9.1730 O.2     1  UNL1       -0.2670
     10  N         21.8630  -22.3460  -10.8890 N.am    1  UNL1       -0.3230
     11  H         21.3230  -21.6420  -11.3780 H       1  UNL1        0.1690
     12  C         23.2440  -22.3620  -11.1750 C.2     1  UNL1        0.0350
     13  C         24.0680  -21.5320  -10.4040 C.2     1  UNL1        0.0290
     14  C         25.4450  -21.4890  -10.6240 C.2     1  UNL1        0.0030
     15  C         26.0170  -22.2760  -11.6210 C.2     1  UNL1        0.0160
     16  C         25.2130  -23.1100  -12.4090 C.2     1  UNL1        0.0500
     17  C         23.8250  -23.1450  -12.1750 C.2     1  UNL1        0.0450
     18  C         25.8090  -23.9750  -13.4930 C.3     1  UNL1        0.4170
     19  F         26.2360  -23.2510  -14.5650 F       1  UNL1       -0.1660
     20  F         24.9360  -24.8950  -13.9940 F       1  UNL1       -0.1660
     21  F         26.8880  -24.6860  -13.0640 F       1  UNL1       -0.1660
     22  S         16.7980  -24.2610   -7.4860 S.O2    1  UNL1        0.2630
     23  O         17.7740  -25.0180   -6.7340 O.2     1  UNL1       -0.2000
     24  O         15.6390  -24.9230   -8.0510 O.2     1  UNL1       -0.2000
     25  N         16.1980  -23.0120   -6.5260 N.pl3   1  UNL1       -0.2800
     26  H         15.5320  -22.4190   -7.0150 H       1  UNL1        0.1790
     27  C         16.9950  -22.4490   -5.4880 C.2     1  UNL1        0.0490
     28  C         16.7350  -22.7330   -4.1380 C.2     1  UNL1       -0.0350
     29  C         17.5360  -22.1220   -3.1580 C.2     1  UNL1        0.0090
     30  C         15.6080  -23.6120   -3.6700 C.3     1  UNL1        0.0500
     31  C         18.5820  -21.2690   -3.5100 C.2     1  UNL1        0.0070
     32  C         18.8450  -20.9940   -4.8540 C.2     1  UNL1       -0.0600
     33  C         19.9920  -20.1090   -5.2400 C.3     1  UNL1        0.0480
     34  C         18.0540  -21.6010   -5.8360 C.2     1  UNL1        0.0370
@<TRIPOS>BOND
     1    19    18    1
     2    20    18    1
     3    18    21    1
     4    18    16    1
     5    16    17    1
     6    16    15    2
     7    17    12    2
     8    15    14    1
     9    11    10    1
    10    12    10    1
    11    12    13    1
    12    10     8   am
    13     4     5    2
    14     4     3    1
    15     5     6    1
    16    14    13    2
    17     8     3    1
    18     8     9    2
    19     3     2    2
    20     6     7    1
    21     6     1    2
    22     2     1    1
    23     1    22    1
    24    24    22    2
    25    22    23    2
    26    22    25    1
    27    26    25    1
    28    25    27    1
    29    34    27    2
    30    34    32    1
    31    27    28    1
    32    33    32    1
    33    32    31    2
    34    28    30    1
    35    28    29    2
    36    31    29    1
