@<TRIPOS>MOLECULE
30821_out_ligand_01.pdbqt
 34 38 0 0 0
SMALL
GASTEIGER

@<TRIPOS>ATOM
      1  C         23.1890  -22.5150  -10.6580 C.2     1  UNL1        0.0750
      2  C         23.3380  -23.2600   -9.4860 C.2     1  UNL1        0.0270
      3  C         22.2050  -23.7090   -8.8070 C.2     1  UNL1        0.0310
      4  C         20.9200  -23.4040   -9.2740 C.2     1  UNL1        0.0350
      5  C         20.7840  -22.6700  -10.4770 C.2     1  UNL1       -0.0220
      6  C         21.9200  -22.2340  -11.1710 C.2     1  UNL1        0.0350
      7  C         19.3890  -22.4540  -10.9870 C.3     1  UNL1        0.0500
      8  C         19.0150  -21.2700  -11.8250 C.3     1  UNL1       -0.0210
      9  C         17.7820  -20.8460  -11.5040 C.3     1  UNL1       -0.0290
     10  C         17.2100  -21.6360  -10.3590 C.3     1  UNL1        0.0350
     11  C         18.4950  -22.2020   -9.7660 C.3     1  UNL1        0.0280
     12  C         18.4500  -23.4940   -8.9610 C.3     1  UNL1        0.1210
     13  N         19.8100  -23.9310   -8.5900 N.pl3   1  UNL1       -0.3800
     14  H         19.9660  -23.9910   -7.5860 H       1  UNL1        0.1600
     15  S         24.6420  -21.9640  -11.5200 S.O2    1  UNL1        0.2450
     16  O         25.2020  -20.8660  -10.7640 O.2     1  UNL1       -0.2060
     17  O         25.4210  -23.1310  -11.8770 O.2     1  UNL1       -0.2060
     18  N         23.9360  -21.3980  -12.9680 N.pl3   1  UNL1       -0.1810
     19  H         23.0210  -21.8420  -13.0460 H       1  UNL1        0.1460
     20  C         24.7330  -21.6070  -14.1440 C.2     1  UNL1        0.0290
     21  C         24.4410  -22.7320  -14.9270 C.2     1  UNL1        0.0260
     22  C         25.1460  -22.9750  -16.1050 C.2     1  UNL1        0.0260
     23  C         26.1350  -22.0820  -16.5080 C.2     1  UNL1        0.0340
     24  C         26.4230  -20.9500  -15.7410 C.2     1  UNL1        0.0320
     25 CL         27.0060  -22.3710  -17.9640 Cl      1  UNL1       -0.0840
     26  C         25.7270  -20.6970  -14.5450 C.2     1  UNL1       -0.0380
     27  C         26.0470  -19.4450  -13.7760 C.3     1  UNL1        0.0500
     28  C         17.5270  -23.4400   -7.7520 C.2     1  UNL1       -0.0180
     29  C         16.3380  -24.1990   -7.8170 C.2     1  UNL1        0.0110
     30  C         15.4100  -24.2030   -6.7740 C.2     1  UNL1        0.0010
     31  C         15.6450  -23.4430   -5.6360 C.2     1  UNL1        0.0010
     32  C         16.8100  -22.6840   -5.5420 C.2     1  UNL1        0.0190
     33  C         17.7460  -22.6780   -6.5880 C.2     1  UNL1        0.0190
     34 BR         19.2950  -21.6140   -6.2970 Br      1  UNL1       -0.0500
@<TRIPOS>BOND
     1    25    23    1
     2    23    22    2
     3    23    24    1
     4    22    21    1
     5    24    26    2
     6    21    20    2
     7    26    20    1
     8    26    27    1
     9    20    18    1
    10    19    18    1
    11    18    15    1
    12    17    15    2
    13     8     9    1
    14     8     7    1
    15    15    16    2
    16    15     1    1
    17     9    10    1
    18     6     1    2
    19     6     5    1
    20     7     5    1
    21     7    11    1
    22     1     2    1
    23     5     4    2
    24    10    11    1
    25    11    12    1
    26     2     3    2
    27     4     3    1
    28     4    13    1
    29    12    13    1
    30    12    28    1
    31    13    14    1
    32    29    28    2
    33    29    30    1
    34    28    33    1
    35    30    31    2
    36    33    34    1
    37    33    32    2
    38    31    32    1
