@<TRIPOS>MOLECULE
30823_out_ligand_01.pdbqt
 34 38 0 0 0
SMALL
GASTEIGER

@<TRIPOS>ATOM
      1  C         17.7490  -22.5430   -9.7170 C.2     1  UNL1        0.0800
      2  C         17.5670  -22.0920  -11.0230 C.2     1  UNL1        0.0270
      3  C         18.6820  -21.7650  -11.7950 C.2     1  UNL1        0.0250
      4  C         19.9810  -21.9030  -11.2840 C.2     1  UNL1        0.0160
      5  C         20.1540  -22.2890   -9.9440 C.2     1  UNL1       -0.0270
      6  C         19.0290  -22.6120   -9.1630 C.2     1  UNL1        0.0350
      7  C         21.5280  -22.3220   -9.3200 C.3     1  UNL1        0.0490
      8  C         21.9950  -23.6970   -8.9200 C.3     1  UNL1       -0.0210
      9  C         23.3040  -23.8580   -9.1490 C.3     1  UNL1       -0.0290
     10  C         23.9070  -22.6300   -9.7490 C.3     1  UNL1        0.0340
     11  C         22.6750  -21.8460  -10.2400 C.3     1  UNL1        0.0230
     12  C         22.3400  -22.1480  -11.7160 C.3     1  UNL1        0.0980
     13  N         21.0690  -21.5140  -12.0770 N.pl3   1  UNL1       -0.2830
     14  H         20.8690  -21.6050  -13.0700 H       1  UNL1        0.1280
     15  S         16.3410  -22.9960   -8.7310 S.O2    1  UNL1        0.2630
     16  O         15.7930  -21.7820   -8.1650 O.2     1  UNL1       -0.2000
     17  O         15.5220  -23.9010   -9.5070 O.2     1  UNL1       -0.2000
     18  N         17.0370  -23.8480   -7.4410 N.pl3   1  UNL1       -0.2790
     19  H         16.9800  -24.8560   -7.6050 H       1  UNL1        0.1790
     20  C         16.7500  -23.4160   -6.1030 C.2     1  UNL1        0.0660
     21  C         15.5890  -23.8710   -5.4720 C.2     1  UNL1        0.0320
     22  C         15.3170  -23.5080   -4.1530 C.2     1  UNL1        0.0040
     23  C         16.2070  -22.6910   -3.4580 C.2     1  UNL1        0.0260
     24  C         17.3670  -22.2220   -4.0820 C.2     1  UNL1        0.0580
     25 CL         18.4240  -21.2170   -3.1530 Cl      1  UNL1       -0.0820
     26  C         17.6430  -22.5760   -5.4100 C.2     1  UNL1        0.0830
     27 CL         19.0650  -22.0000   -6.2220 Cl      1  UNL1       -0.0800
     28  C         23.4020  -21.6330  -12.6820 C.2     1  UNL1       -0.0400
     29  C         23.0290  -21.1660  -13.9530 C.2     1  UNL1        0.0100
     30  C         23.9910  -20.6910  -14.8470 C.2     1  UNL1        0.0190
     31  C         25.3340  -20.6740  -14.4760 C.2     1  UNL1        0.0110
     32 BR         26.6340  -20.0280  -15.6860 Br      1  UNL1       -0.0510
     33  C         25.7230  -21.1250  -13.2180 C.2     1  UNL1        0.0190
     34  C         24.7610  -21.6020  -12.3250 C.2     1  UNL1        0.0100
@<TRIPOS>BOND
     1    32    31    1
     2    30    31    2
     3    30    29    1
     4    31    33    1
     5    29    28    2
     6    33    34    2
     7    14    13    1
     8    28    34    1
     9    28    12    1
    10    13    12    1
    11    13     4    1
    12     3     4    2
    13     3     2    1
    14    12    11    1
    15     4     5    1
    16     2     1    2
    17    11    10    1
    18    11     7    1
    19     5     7    1
    20     5     6    2
    21    10     9    1
    22     1     6    1
    23     1    15    1
    24    17    15    2
    25     7     8    1
    26     9     8    1
    27    15    16    2
    28    15    18    1
    29    19    18    1
    30    18    20    1
    31    27    26    1
    32    20    21    2
    33    20    26    1
    34    21    22    1
    35    26    24    2
    36    22    23    2
    37    24    23    1
    38    24    25    1
