@<TRIPOS>MOLECULE
30833_out_ligand_01.pdbqt
 29 32 0 0 0
SMALL
GASTEIGER

@<TRIPOS>ATOM
      1  C         18.1990  -22.3650  -10.2660 C.2     1  UNL1        0.0320
      2  C         18.0660  -21.3330  -11.2010 C.2     1  UNL1        0.0170
      3  C         19.1760  -20.9130  -11.9420 C.2     1  UNL1        0.0100
      4  C         20.4290  -21.5180  -11.7640 C.2     1  UNL1       -0.0300
      5  C         20.5460  -22.5690  -10.8420 C.2     1  UNL1        0.0100
      6  C         19.4390  -22.9910  -10.1010 C.2     1  UNL1        0.0170
      7  C         17.0510  -22.8520   -9.4520 C.2     1  UNL1        0.2520
      8  O         15.9290  -22.8940   -9.9400 O.2     1  UNL1       -0.2680
      9  N         17.3430  -23.2640   -8.1670 N.am    1  UNL1       -0.3520
     10  H         18.2990  -23.2440   -7.8400 H       1  UNL1        0.1630
     11  C         16.3020  -23.6950   -7.2350 C.3     1  UNL1        0.0840
     12  C         16.8910  -24.6660   -6.1990 C.3     1  UNL1        0.0250
     13  C         17.7660  -24.0500   -5.1030 C.3     1  UNL1        0.0020
     14  C         17.0280  -23.7010   -3.8050 C.3     1  UNL1        0.0000
     15  C         16.4380  -22.2930   -3.7590 C.3     1  UNL1        0.0000
     16  C         14.9800  -22.1670   -4.1970 C.3     1  UNL1        0.0000
     17  C         14.5950  -22.7800   -5.5430 C.3     1  UNL1        0.0020
     18  C         15.5710  -22.4640   -6.6740 C.3     1  UNL1        0.0250
     19  C         21.6300  -21.0580  -12.5660 C.3     1  UNL1        0.3110
     20  N         22.8130  -21.9240  -12.5530 N.3     1  UNL1        0.0970
     21  C         23.6630  -21.7600  -11.3710 C.3     1  UNL1        0.2770
     22  C         24.6470  -22.9350  -11.2570 C.3     1  UNL1        0.0690
     23  C         25.3500  -23.2360  -12.5560 C.2     1  UNL1       -0.0490
     24  C         26.4900  -24.0510  -12.5670 C.2     1  UNL1        0.0070
     25  C         24.8250  -22.7520  -13.7680 C.2     1  UNL1       -0.0240
     26  C         27.1210  -24.3620  -13.7720 C.2     1  UNL1        0.0010
     27  C         26.6150  -23.8680  -14.9710 C.2     1  UNL1        0.0010
     28  C         25.4750  -23.0640  -14.9710 C.2     1  UNL1        0.0090
     29  C         23.6150  -21.8380  -13.7800 C.3     1  UNL1        0.3110
@<TRIPOS>BOND
     1    28    27    2
     2    28    25    1
     3    27    26    1
     4    29    25    1
     5    29    20    1
     6    26    24    2
     7    25    23    2
     8    24    23    1
     9    19    20    1
    10    19     4    1
    11    23    22    1
    12    20    21    1
    13     3     4    2
    14     3     2    1
    15     4     5    1
    16    21    22    1
    17     2     1    2
    18     5     6    2
    19     1     6    1
    20     1     7    1
    21     8     7    2
    22     7     9   am
    23     9    10    1
    24     9    11    1
    25    11    18    1
    26    11    12    1
    27    18    17    1
    28    12    13    1
    29    17    16    1
    30    13    14    1
    31    16    15    1
    32    14    15    1
