@<TRIPOS>MOLECULE
30830_out_ligand_01.pdbqt
 32 34 0 0 0
SMALL
GASTEIGER

@<TRIPOS>ATOM
      1  C         19.7740  -22.9510   -9.8750 C.2     1  UNL1        0.0330
      2  C         19.1330  -22.1660  -10.8370 C.2     1  UNL1        0.0170
      3  C         17.7480  -21.9960  -10.7870 C.2     1  UNL1        0.0090
      4  C         16.9710  -22.6170   -9.7930 C.2     1  UNL1       -0.0390
      5  C         15.4880  -22.3680   -9.7990 C.3     1  UNL1        0.0500
      6  C         17.6270  -23.4170   -8.8360 C.2     1  UNL1        0.0860
      7  C         19.0220  -23.5780   -8.8790 C.2     1  UNL1        0.0420
      8  S         16.7570  -24.2360   -7.5010 S.O2    1  UNL1        0.2630
      9  O         17.7300  -24.9170   -6.6730 O.2     1  UNL1       -0.2000
     10  O         15.6530  -24.9750   -8.0730 O.2     1  UNL1       -0.2000
     11  N         16.1630  -22.9560   -6.5790 N.pl3   1  UNL1       -0.2800
     12  H         15.1550  -22.9940   -6.4540 H       1  UNL1        0.1790
     13  C         16.9610  -22.3750   -5.5480 C.2     1  UNL1        0.0490
     14  C         18.0460  -21.5570   -5.8840 C.2     1  UNL1        0.0370
     15  C         18.8790  -21.0210   -4.8950 C.2     1  UNL1       -0.0600
     16  C         20.0370  -20.1470   -5.2780 C.3     1  UNL1        0.0480
     17  C         18.5890  -21.2770   -3.5550 C.2     1  UNL1        0.0070
     18  C         17.4930  -22.0690   -3.2100 C.2     1  UNL1        0.0090
     19  C         16.6630  -22.6230   -4.1970 C.2     1  UNL1       -0.0350
     20  C         15.5050  -23.4790   -3.7730 C.3     1  UNL1        0.0500
     21  C         21.2480  -23.1640   -9.8990 C.2     1  UNL1        0.2560
     22  N         21.9280  -22.3770  -10.8090 N.am    1  UNL1       -0.3230
     23  H         21.3940  -21.6640  -11.2880 H       1  UNL1        0.1690
     24  O         21.7260  -23.9740   -9.1150 O.2     1  UNL1       -0.2670
     25  C         23.3140  -22.3850  -11.0840 C.2     1  UNL1        0.0370
     26  C         24.1020  -21.4470  -10.4060 C.2     1  UNL1        0.0290
     27  C         25.4780  -21.3850  -10.6260 C.2     1  UNL1        0.0050
     28  C         26.0740  -22.2620  -11.5280 C.2     1  UNL1        0.0370
     29  C         25.3040  -23.2020  -12.2140 C.2     1  UNL1        0.0700
     30  C         23.9240  -23.2580  -11.9910 C.2     1  UNL1        0.0660
     31  O         26.0130  -24.0010  -13.0700 O.2     1  UNL1       -0.3560
     32  C         25.3730  -24.3660  -14.2870 C.3     1  UNL1        0.2100
@<TRIPOS>BOND
     1    32    31    1
     2    31    29    1
     3    29    30    1
     4    29    28    2
     5    30    25    2
     6    28    27    1
     7    23    22    1
     8    25    22    1
     9    25    26    1
    10     2     3    1
    11     2     1    2
    12    22    21   am
    13     3     4    2
    14    27    26    2
    15    21     1    1
    16    21    24    2
    17     1     7    1
    18     5     4    1
    19     4     6    1
    20     7     6    2
    21     6     8    1
    22    10     8    2
    23     8     9    2
    24     8    11    1
    25    11    12    1
    26    11    13    1
    27    14    13    2
    28    14    15    1
    29    13    19    1
    30    16    15    1
    31    15    17    2
    32    19    20    1
    33    19    18    2
    34    17    18    1
