@<TRIPOS>MOLECULE
30836_out_ligand_01.pdbqt
 34 38 0 0 0
SMALL
GASTEIGER

@<TRIPOS>ATOM
      1  C         20.8980  -22.4650   -7.7430 C.2     1  UNL1        0.0320
      2  C         21.0140  -23.6570   -8.4680 C.2     1  UNL1        0.0170
      3  C         22.1400  -23.8850   -9.2660 C.2     1  UNL1        0.0100
      4  C         23.1780  -22.9420   -9.3310 C.2     1  UNL1       -0.0300
      5  C         23.0620  -21.7560   -8.5920 C.2     1  UNL1        0.0100
      6  C         21.9340  -21.5230   -7.8000 C.2     1  UNL1        0.0170
      7  C         19.7140  -22.1610   -6.8830 C.2     1  UNL1        0.2560
      8  O         19.7690  -21.1900   -6.1380 O.2     1  UNL1       -0.2670
      9  N         18.6330  -23.0060   -7.0500 N.am    1  UNL1       -0.3210
     10  H         18.6720  -23.6930   -7.7910 H       1  UNL1        0.1690
     11  C         17.4060  -22.9940   -6.3480 C.2     1  UNL1        0.0690
     12  C         17.2530  -22.5100   -5.0480 C.2     1  UNL1        0.0320
     13  C         16.0030  -22.5510   -4.4190 C.2     1  UNL1        0.0020
     14  C         14.8950  -23.0810   -5.0800 C.2     1  UNL1        0.0030
     15  C         15.0310  -23.5680   -6.3780 C.2     1  UNL1        0.0390
     16  C         16.2770  -23.5080   -7.0100 C.2     1  UNL1        0.1020
     17  O         16.4440  -24.0260   -8.2800 O.2     1  UNL1       -0.3090
     18  C         16.7710  -23.1380   -9.2810 C.2     1  UNL1        0.0760
     19  C         16.0180  -21.9970   -9.5760 C.2     1  UNL1        0.0370
     20  C         16.4390  -21.1300  -10.5860 C.2     1  UNL1        0.0030
     21  C         17.6160  -21.3940  -11.2890 C.2     1  UNL1        0.0000
     22  C         18.3780  -22.5210  -10.9780 C.2     1  UNL1        0.0030
     23  C         17.9590  -23.3900   -9.9690 C.2     1  UNL1        0.0370
     24  C         24.3870  -23.1800  -10.2130 C.3     1  UNL1        0.3110
     25  N         24.6610  -22.0830  -11.1560 N.3     1  UNL1        0.0970
     26  C         26.0300  -21.5790  -10.9670 C.3     1  UNL1        0.2770
     27  C         26.2620  -20.3100  -11.7980 C.3     1  UNL1        0.0690
     28  C         25.8250  -20.4720  -13.2320 C.2     1  UNL1       -0.0490
     29  C         26.2470  -19.5560  -14.2060 C.2     1  UNL1        0.0070
     30  C         24.9390  -21.5060  -13.5810 C.2     1  UNL1       -0.0240
     31  C         25.8140  -19.6820  -15.5250 C.2     1  UNL1        0.0010
     32  C         24.9520  -20.7180  -15.8800 C.2     1  UNL1        0.0010
     33  C         24.5180  -21.6270  -14.9140 C.2     1  UNL1        0.0090
     34  C         24.4890  -22.5290  -12.5550 C.3     1  UNL1        0.3110
@<TRIPOS>BOND
     1    32    31    2
     2    32    33    1
     3    31    29    1
     4    33    30    2
     5    29    28    2
     6    30    28    1
     7    30    34    1
     8    28    27    1
     9    34    25    1
    10    27    26    1
    11    21    22    2
    12    21    20    1
    13    25    26    1
    14    25    24    1
    15    22    23    1
    16    20    19    2
    17    24     4    1
    18    23    18    2
    19    19    18    1
    20     4     3    2
    21     4     5    1
    22    18    17    1
    23     3     2    1
    24     5     6    2
    25     2     1    2
    26    17    16    1
    27     6     1    1
    28    10     9    1
    29     1     7    1
    30     9     7   am
    31     9    11    1
    32    16    15    1
    33    16    11    2
    34     7     8    2
    35    15    14    2
    36    11    12    1
    37    14    13    1
    38    12    13    2
