@<TRIPOS>MOLECULE
30839_out_ligand_01.pdbqt
 28 31 0 0 0
SMALL
GASTEIGER

@<TRIPOS>ATOM
      1  C         20.5080  -22.6910   -7.6250 C.2     1  UNL1        0.0320
      2  C         21.5320  -21.7390   -7.6230 C.2     1  UNL1        0.0170
      3  C         22.6720  -21.9380   -8.4040 C.2     1  UNL1        0.0100
      4  C         22.8030  -23.0850   -9.2020 C.2     1  UNL1       -0.0300
      5  C         21.7610  -24.0250   -9.2140 C.2     1  UNL1        0.0100
      6  C         20.6190  -23.8300   -8.4340 C.2     1  UNL1        0.0170
      7  C         19.3050  -22.4440   -6.7780 C.2     1  UNL1        0.2560
      8  O         19.1530  -21.3300   -6.2920 O.2     1  UNL1       -0.2670
      9  N         18.4870  -23.5430   -6.6030 N.am    1  UNL1       -0.3220
     10  H         18.8170  -24.4320   -6.9590 H       1  UNL1        0.1690
     11  C         17.2650  -23.6150   -5.8930 C.2     1  UNL1        0.0520
     12  C         17.1950  -23.6470   -4.4970 C.2     1  UNL1        0.0310
     13  C         15.9570  -23.7140   -3.8470 C.2     1  UNL1        0.0020
     14  C         14.7750  -23.7480   -4.5820 C.2     1  UNL1        0.0020
     15  C         14.8260  -23.7130   -5.9730 C.2     1  UNL1        0.0210
     16  C         16.0620  -23.6470   -6.6230 C.2     1  UNL1        0.0370
     17 BR         16.0560  -23.5950   -8.5270 Br      1  UNL1       -0.0490
     18  C         24.0350  -23.2820  -10.0620 C.3     1  UNL1        0.3110
     19  N         24.1880  -22.2560  -11.1050 N.3     1  UNL1        0.0970
     20  C         24.0850  -22.8640  -12.4410 C.3     1  UNL1        0.2770
     21  C         24.0410  -21.7830  -13.5280 C.3     1  UNL1        0.0690
     22  C         25.1390  -20.7640  -13.3710 C.2     1  UNL1       -0.0490
     23  C         25.4660  -19.9100  -14.4330 C.2     1  UNL1        0.0070
     24  C         25.7930  -20.6270  -12.1350 C.2     1  UNL1       -0.0240
     25  C         26.4560  -18.9400  -14.2770 C.2     1  UNL1        0.0010
     26  C         27.1210  -18.8130  -13.0600 C.2     1  UNL1        0.0010
     27  C         26.7950  -19.6530  -11.9940 C.2     1  UNL1        0.0090
     28  C         25.4830  -21.5560  -10.9780 C.3     1  UNL1        0.3110
@<TRIPOS>BOND
     1    23    25    1
     2    23    22    2
     3    25    26    2
     4    21    22    1
     5    21    20    1
     6    22    24    1
     7    26    27    1
     8    20    19    1
     9    24    27    2
    10    24    28    1
    11    19    28    1
    12    19    18    1
    13    18     4    1
    14     5     4    2
    15     5     6    1
    16     4     3    1
    17    17    16    1
    18     6     1    2
    19     3     2    2
    20     1     2    1
    21     1     7    1
    22    10     9    1
    23     7     9   am
    24     7     8    2
    25    16    15    1
    26    16    11    2
    27     9    11    1
    28    15    14    2
    29    11    12    1
    30    14    13    1
    31    12    13    2
