@<TRIPOS>MOLECULE
30846_out_ligand_01.pdbqt
 34 38 0 0 0
SMALL
GASTEIGER

@<TRIPOS>ATOM
      1  C         21.3840  -22.3380  -10.0040 C.2     1  UNL1        0.0800
      2  C         20.5370  -21.9940  -11.0590 C.2     1  UNL1        0.0270
      3  C         21.0890  -21.6680  -12.2970 C.2     1  UNL1        0.0250
      4  C         22.4750  -21.7210  -12.4920 C.2     1  UNL1        0.0160
      5  C         23.3280  -22.0050  -11.4110 C.2     1  UNL1       -0.0270
      6  C         22.7720  -22.2900  -10.1570 C.2     1  UNL1        0.0350
      7  C         24.8160  -21.8740  -11.6330 C.3     1  UNL1        0.0490
      8  C         25.6950  -22.7440  -10.7770 C.3     1  UNL1       -0.0210
      9  C         26.3510  -23.6700  -11.4830 C.3     1  UNL1       -0.0290
     10  C         26.0030  -23.6060  -12.9290 C.3     1  UNL1        0.0340
     11  C         25.2660  -22.2570  -13.0630 C.3     1  UNL1        0.0230
     12  C         24.1250  -22.3250  -14.0960 C.3     1  UNL1        0.1000
     13  N         23.0290  -21.3990  -13.7500 N.pl3   1  UNL1       -0.2830
     14  H         22.3150  -21.3990  -14.4760 H       1  UNL1        0.1280
     15  S         20.6960  -22.8320   -8.4390 S.O2    1  UNL1        0.2630
     16  O         20.5780  -24.2750   -8.4370 O.2     1  UNL1       -0.2000
     17  O         21.4230  -22.1370   -7.3980 O.2     1  UNL1       -0.2000
     18  N         19.1500  -22.1390   -8.4670 N.pl3   1  UNL1       -0.2800
     19  H         18.9180  -21.7490   -9.3770 H       1  UNL1        0.1790
     20  C         18.1130  -22.7220   -7.6800 C.2     1  UNL1        0.0500
     21  C         17.2760  -23.6600   -8.3000 C.2     1  UNL1        0.0310
     22  C         16.1990  -24.2130   -7.6140 C.2     1  UNL1        0.0040
     23  C         15.9500  -23.8270   -6.3020 C.2     1  UNL1        0.0240
     24  C         16.7800  -22.8920   -5.6770 C.2     1  UNL1        0.0420
     25  C         17.8790  -22.3220   -6.3500 C.2     1  UNL1       -0.0130
     26 CL         16.3890  -22.4580   -4.0460 Cl      1  UNL1       -0.0840
     27  C         18.7430  -21.3100   -5.6440 C.3     1  UNL1        0.0520
     28  C         24.6230  -21.9970  -15.5000 C.2     1  UNL1       -0.0220
     29  C         24.3710  -22.9160  -16.5430 C.2     1  UNL1        0.0100
     30  C         24.7830  -22.6660  -17.8520 C.2     1  UNL1        0.0010
     31  C         25.4590  -21.4890  -18.1530 C.2     1  UNL1        0.0010
     32  C         25.7190  -20.5650  -17.1430 C.2     1  UNL1        0.0190
     33  C         25.3060  -20.8110  -15.8260 C.2     1  UNL1        0.0180
     34 BR         25.7270  -19.4660  -14.5500 Br      1  UNL1       -0.0510
@<TRIPOS>BOND
     1    31    30    2
     2    31    32    1
     3    30    29    1
     4    32    33    2
     5    29    28    2
     6    33    28    1
     7    33    34    1
     8    28    12    1
     9    14    13    1
    10    12    13    1
    11    12    11    1
    12    13     4    1
    13    11    10    1
    14    11     7    1
    15    10     9    1
    16     4     3    2
    17     4     5    1
    18     3     2    1
    19     7     5    1
    20     7     8    1
    21     9     8    1
    22     5     6    2
    23     2     1    2
    24     6     1    1
    25     1    15    1
    26    19    18    1
    27    18    15    1
    28    18    20    1
    29    15    16    2
    30    15    17    2
    31    21    20    2
    32    21    22    1
    33    20    25    1
    34    22    23    2
    35    25    24    2
    36    25    27    1
    37    23    24    1
    38    24    26    1
