@<TRIPOS>MOLECULE
30845_out_ligand_01.pdbqt
 34 37 0 0 0
SMALL
GASTEIGER

@<TRIPOS>ATOM
      1  C         22.0550  -22.9060   -9.1010 C.2     1  UNL1        0.0320
      2  C         21.5880  -24.2030   -9.3530 C.2     1  UNL1        0.0170
      3  C         20.4290  -24.6610   -8.7200 C.2     1  UNL1        0.0100
      4  C         19.7370  -23.8420   -7.8130 C.2     1  UNL1       -0.0390
      5  C         20.2020  -22.5340   -7.5930 C.2     1  UNL1        0.0100
      6  C         21.3520  -22.0660   -8.2380 C.2     1  UNL1        0.0170
      7  C         18.4720  -24.3090   -7.1200 C.3     1  UNL1        0.1820
      8  N         17.3730  -23.3150   -7.0600 N.pl3   1  UNL1       -0.2510
      9  C         16.8510  -23.1340   -5.7540 C.2     1  UNL1        0.1390
     10  C         17.4680  -22.2300   -4.8980 C.2     1  UNL1        0.0510
     11  C         17.0420  -22.1840   -3.5740 C.2     1  UNL1        0.0050
     12  C         16.0340  -23.0510   -3.1530 C.2     1  UNL1        0.0190
     13  C         15.4960  -23.9360   -4.0780 C.2     1  UNL1        0.1190
     14  N         15.8960  -24.0010   -5.3690 N.2     1  UNL1       -0.2430
     15  S         16.1950  -23.3550   -8.2850 S.O2    1  UNL1        0.2660
     16  O         15.9270  -24.7440   -8.6280 O.2     1  UNL1       -0.2000
     17  O         15.0870  -22.5030   -7.8840 O.2     1  UNL1       -0.2000
     18  C         16.9210  -22.5750   -9.7150 C.2     1  UNL1        0.0800
     19  C         17.9050  -23.2590  -10.4430 C.2     1  UNL1        0.0250
     20  C         18.5400  -22.6250  -11.5090 C.2     1  UNL1        0.0020
     21  C         18.2090  -21.3070  -11.8320 C.2     1  UNL1        0.0000
     22  C         17.2430  -20.6170  -11.0880 C.2     1  UNL1        0.0020
     23  C         16.6060  -21.2450  -10.0230 C.2     1  UNL1        0.0250
     24  C         23.2840  -22.4010   -9.7630 C.2     1  UNL1        0.2510
     25  O         23.6740  -21.2620   -9.5460 O.2     1  UNL1       -0.2680
     26  N         23.9110  -23.3060  -10.5910 N.am    1  UNL1       -0.3530
     27  H         23.6470  -24.2770  -10.5060 H       1  UNL1        0.1630
     28  C         25.1810  -23.0150  -11.2190 C.3     1  UNL1        0.1610
     29  C         25.0440  -22.8840  -12.7160 C.2     1  UNL1       -0.0410
     30  C         24.3710  -21.7920  -13.2800 C.2     1  UNL1        0.0090
     31  C         24.2060  -21.6920  -14.6670 C.2     1  UNL1        0.0010
     32  C         24.7200  -22.6800  -15.5030 C.2     1  UNL1        0.0000
     33  C         25.4070  -23.7650  -14.9540 C.2     1  UNL1        0.0010
     34  C         25.5630  -23.8720  -13.5690 C.2     1  UNL1        0.0090
@<TRIPOS>BOND
     1    32    33    2
     2    32    31    1
     3    33    34    1
     4    31    30    2
     5    34    29    2
     6    30    29    1
     7    29    28    1
     8    21    20    2
     9    21    22    1
    10    20    19    1
    11    28    26    1
    12    22    23    2
    13    26    27    1
    14    26    24   am
    15    19    18    2
    16    23    18    1
    17    24    25    2
    18    24     1    1
    19    18    15    1
    20     2     1    2
    21     2     3    1
    22     1     6    1
    23     3     4    2
    24    16    15    2
    25    15    17    2
    26    15     8    1
    27     6     5    2
    28     4     5    1
    29     4     7    1
    30     7     8    1
    31     8     9    1
    32     9    14    2
    33     9    10    1
    34    14    13    1
    35    10    11    2
    36    13    12    2
    37    11    12    1
