@<TRIPOS>MOLECULE
30847_out_ligand_01.pdbqt
 27 30 0 0 0
SMALL
GASTEIGER

@<TRIPOS>ATOM
      1  C         20.2110  -22.1210  -11.1270 C.2     1  UNL1        0.0320
      2  C         19.1080  -21.3520  -11.5050 C.2     1  UNL1        0.0170
      3  C         17.8530  -21.6140  -10.9520 C.2     1  UNL1        0.0100
      4  C         17.6850  -22.6600  -10.0380 C.2     1  UNL1       -0.0300
      5  C         18.8010  -23.4240   -9.6620 C.2     1  UNL1        0.0100
      6  C         20.0600  -23.1570  -10.2040 C.2     1  UNL1        0.0170
      7  C         16.3120  -22.9810   -9.4800 C.3     1  UNL1        0.3110
      8  N         16.1870  -22.7780   -8.0250 N.3     1  UNL1        0.0970
      9  C         16.0140  -24.0850   -7.3680 C.3     1  UNL1        0.2770
     10  C         15.6790  -23.9060   -5.8850 C.3     1  UNL1        0.0690
     11  C         16.7090  -23.0430   -5.1970 C.2     1  UNL1       -0.0490
     12  C         16.8530  -23.0840   -3.8000 C.2     1  UNL1        0.0070
     13  C         17.4930  -22.1540   -5.9530 C.2     1  UNL1       -0.0240
     14  C         17.7990  -22.2720   -3.1530 C.2     1  UNL1        0.0010
     15  C         18.6010  -21.4110   -3.8970 C.2     1  UNL1        0.0010
     16  C         18.4480  -21.3520   -5.2910 C.2     1  UNL1        0.0090
     17  C         17.3810  -22.0940   -7.4740 C.3     1  UNL1        0.3110
     18  C         21.5360  -21.8390  -11.7400 C.2     1  UNL1        0.2560
     19  O         21.5780  -21.1650  -12.7640 O.2     1  UNL1       -0.2670
     20  N         22.6040  -22.3760  -11.0430 N.am    1  UNL1       -0.3220
     21  H         22.3980  -22.7880  -10.1370 H       1  UNL1        0.1690
     22  C         23.9650  -22.3450  -11.4220 C.2     1  UNL1        0.0520
     23  C         24.5340  -23.1610  -12.4050 C.2     1  UNL1        0.0320
     24  C         25.8980  -23.0590  -12.6900 C.2     1  UNL1        0.0210
     25  C         26.6550  -22.1400  -11.9780 C.2     1  UNL1        0.1160
     26  N         26.1480  -21.3320  -11.0150 N.2     1  UNL1       -0.2710
     27  C         24.8200  -21.4560  -10.7630 C.2     1  UNL1        0.1450
@<TRIPOS>BOND
     1    19    18    2
     2    24    23    1
     3    24    25    2
     4    23    22    2
     5    25    26    1
     6    18     1    1
     7    18    20   am
     8     2     1    2
     9     2     3    1
    10    22    20    1
    11    22    27    1
    12     1     6    1
    13    20    21    1
    14    26    27    2
    15     3     4    2
    16     6     5    2
    17     4     5    1
    18     4     7    1
    19     7     8    1
    20     8    17    1
    21     8     9    1
    22    17    13    1
    23     9    10    1
    24    13    16    1
    25    13    11    2
    26    10    11    1
    27    16    15    2
    28    11    12    1
    29    15    14    1
    30    12    14    2
