@<TRIPOS>MOLECULE
30844_out_ligand_01.pdbqt
 31 36 0 0 0
SMALL
GASTEIGER

@<TRIPOS>ATOM
      1  C         20.0760  -22.1240  -11.1780 C.2     1  UNL1        0.0320
      2  C         20.0060  -23.1540  -10.2320 C.2     1  UNL1        0.0170
      3  C         18.7810  -23.4820   -9.6460 C.2     1  UNL1        0.0100
      4  C         17.6070  -22.8000  -10.0070 C.2     1  UNL1       -0.0300
      5  C         17.6840  -21.7780  -10.9640 C.2     1  UNL1        0.0100
      6  C         18.9090  -21.4470  -11.5500 C.2     1  UNL1        0.0170
      7  C         21.3590  -21.7370  -11.8300 C.2     1  UNL1        0.2520
      8  O         21.3890  -20.7650  -12.5750 O.2     1  UNL1       -0.2680
      9  N         22.4580  -22.5050  -11.5010 N.am    1  UNL1       -0.3480
     10  H         22.3630  -23.1180  -10.7020 H       1  UNL1        0.1630
     11  C         23.8250  -22.2380  -11.9620 C.3     1  UNL1        0.0340
     12  C         24.5550  -23.5970  -12.1360 C.3     1  UNL1        0.0350
     13  C         26.0020  -23.3910  -12.6120 C.3     1  UNL1       -0.0120
     14  C         26.7570  -22.5410  -11.5770 C.3     1  UNL1        0.0090
     15  C         25.9880  -22.6570  -13.9610 C.3     1  UNL1        0.0090
     16  C         26.0650  -21.1790  -11.4110 C.3     1  UNL1       -0.0120
     17  C         26.0460  -20.4530  -12.7670 C.3     1  UNL1        0.0090
     18  C         24.6190  -21.3970  -10.9310 C.3     1  UNL1        0.0350
     19  C         25.2920  -21.2960  -13.8100 C.3     1  UNL1       -0.0120
     20  C         23.8450  -21.5150  -13.3330 C.3     1  UNL1        0.0350
     21  C         16.2830  -23.1530   -9.3620 C.3     1  UNL1        0.3110
     22  N         16.2480  -22.8990   -7.9120 N.3     1  UNL1        0.0970
     23  C         16.0520  -24.1590   -7.1780 C.3     1  UNL1        0.2770
     24  C         15.8180  -23.8900   -5.6870 C.3     1  UNL1        0.0690
     25  C         16.8490  -22.9610   -5.1000 C.2     1  UNL1       -0.0490
     26  C         17.0010  -22.8620   -3.7110 C.2     1  UNL1        0.0070
     27  C         17.6170  -22.1450   -5.9490 C.2     1  UNL1       -0.0240
     28  C         17.9310  -21.9770   -3.1670 C.2     1  UNL1        0.0010
     29  C         18.7090  -21.1800   -4.0050 C.2     1  UNL1        0.0010
     30  C         18.5550  -21.2660   -5.3890 C.2     1  UNL1        0.0090
     31  C         17.4980  -22.2530   -7.4560 C.3     1  UNL1        0.3110
@<TRIPOS>BOND
     1    15    19    1
     2    15    13    1
     3    19    20    1
     4    19    17    1
     5    20    11    1
     6    17    16    1
     7    13    12    1
     8    13    14    1
     9     8     7    2
    10    12    11    1
    11    11     9    1
    12    11    18    1
    13     7     9   am
    14     7     1    1
    15    14    16    1
    16     6     1    2
    17     6     5    1
    18     9    10    1
    19    16    18    1
    20     1     2    1
    21     5     4    2
    22     2     3    2
    23     4     3    1
    24     4    21    1
    25    21    22    1
    26    22    31    1
    27    22    23    1
    28    31    27    1
    29    23    24    1
    30    27    30    1
    31    27    25    2
    32    24    25    1
    33    30    29    2
    34    25    26    1
    35    29    28    1
    36    26    28    2
