@<TRIPOS>MOLECULE
30851_out_ligand_01.pdbqt
 38 42 0 0 0
SMALL
GASTEIGER

@<TRIPOS>ATOM
      1  N         21.4600  -23.1850   -9.8690 N.ar    1  UNL1       -0.2870
      2  C         22.8350  -23.1730  -10.1470 C.ar    1  UNL1        0.3330
      3  O         23.6230  -23.7460   -9.3910 O.2     1  UNL1       -0.2460
      4  N         23.2700  -22.4640  -11.2740 N.ar    1  UNL1       -0.2550
      5  C         22.4400  -21.7750  -12.1650 C.ar    1  UNL1        0.2880
      6  O         22.8580  -21.2750  -13.2090 O.2     1  UNL1       -0.2650
      7  C         21.0790  -21.7610  -11.7430 C.ar    1  UNL1        0.1720
      8  O         20.1040  -21.1000  -12.4080 O.2     1  UNL1       -0.3020
      9  C         18.9580  -21.3080  -11.6990 C.ar    1  UNL1        0.0890
     10  C         17.7110  -20.7860  -12.0350 C.2     1  UNL1        0.0380
     11  C         16.6500  -21.0910  -11.1790 C.2     1  UNL1        0.0030
     12  C         16.8490  -21.8750  -10.0440 C.2     1  UNL1        0.0010
     13  C         18.1170  -22.3920   -9.7300 C.2     1  UNL1        0.0170
     14  C         19.2040  -22.1130  -10.5830 C.ar    1  UNL1        0.0280
     15  C         20.5940  -22.4170  -10.6430 C.ar    1  UNL1        0.0920
     16  C         21.0030  -24.0220   -8.7600 C.3     1  UNL1        0.2370
     17  C         20.3070  -23.1990   -7.6760 C.2     1  UNL1        0.2400
     18  O         20.8090  -22.1570   -7.2620 O.2     1  UNL1       -0.2710
     19  N         19.1010  -23.7490   -7.2720 N.am    1  UNL1       -0.3260
     20  H         18.8330  -24.6230   -7.7330 H       1  UNL1        0.1690
     21  C         18.2170  -23.2710   -6.2850 C.2     1  UNL1        0.0360
     22  C         18.5620  -22.3120   -5.3270 C.2     1  UNL1        0.0320
     23  C         17.6280  -21.8950   -4.3730 C.2     1  UNL1        0.0460
     24  C         16.3490  -22.4390   -4.3720 C.2     1  UNL1        0.1380
     25  F         15.4720  -22.0270   -3.4430 F       1  UNL1       -0.2040
     26  C         15.9920  -23.3950   -5.3170 C.2     1  UNL1        0.0740
     27 CL         14.4130  -24.0860   -5.3150 Cl      1  UNL1       -0.0810
     28  C         16.9210  -23.8100   -6.2740 C.2     1  UNL1        0.0560
     29  C         24.6980  -22.4990  -11.5800 C.3     1  UNL1        0.2400
     30  C         24.9390  -23.2060  -12.9130 C.2     1  UNL1        0.2360
     31  O         24.8450  -24.4250  -13.0320 O.2     1  UNL1       -0.2720
     32  N         25.3320  -22.3740  -13.9450 N.am    1  UNL1       -0.3550
     33  H         25.6840  -21.4520  -13.6890 H       1  UNL1        0.1620
     34  C         25.6930  -22.8990  -15.2460 C.3     1  UNL1        0.0840
     35  C         24.5050  -22.9890  -16.2080 C.3     1  UNL1        0.0250
     36  C         25.0800  -22.7660  -17.6080 C.3     1  UNL1        0.0020
     37  C         26.5610  -22.4580  -17.4200 C.3     1  UNL1        0.0020
     38  C         26.6750  -21.9910  -15.9790 C.3     1  UNL1        0.0250
@<TRIPOS>BOND
     1    36    37    1
     2    36    35    1
     3    37    38    1
     4    35    34    1
     5    38    34    1
     6    34    32    1
     7    32    33    1
     8    32    30   am
     9     6     5    2
    10    31    30    2
    11    30    29    1
    12     8     7   ar
    13     8     9   ar
    14     5     7   ar
    15     5     4   ar
    16    10     9    2
    17    10    11    1
    18     7    15   ar
    19     9    14   ar
    20    29     4    1
    21     4     2   ar
    22    11    12    2
    23    15    14   ar
    24    15     1   ar
    25    14    13    2
    26     2     1   ar
    27     2     3    2
    28    12    13    1
    29     1    16    1
    30    16    17    1
    31    20    19    1
    32    17    19   am
    33    17    18    2
    34    19    21    1
    35    21    28    2
    36    21    22    1
    37    28    26    1
    38    22    23    2
    39    26    27    1
    40    26    24    2
    41    23    24    1
    42    24    25    1
