@<TRIPOS>MOLECULE
30855_out_ligand_01.pdbqt
 31 33 0 0 0
SMALL
GASTEIGER

@<TRIPOS>ATOM
      1  C         17.6520  -23.6160   -8.5300 C.2     1  UNL1        0.0810
      2  C         19.0320  -23.8670   -8.4770 C.2     1  UNL1        0.0420
      3  C         19.8860  -23.3080   -9.4330 C.2     1  UNL1        0.0330
      4  C         19.3590  -22.5070  -10.4480 C.2     1  UNL1        0.0170
      5  C         17.9840  -22.2550  -10.4990 C.2     1  UNL1        0.0090
      6  C         17.1090  -22.8070   -9.5490 C.2     1  UNL1       -0.0390
      7  C         15.6430  -22.4840   -9.6570 C.3     1  UNL1        0.0500
      8  S         16.6280  -24.3480   -7.2570 S.O2    1  UNL1        0.2460
      9  O         17.4950  -25.0770   -6.3580 O.2     1  UNL1       -0.2060
     10  O         15.5070  -24.9920   -7.9100 O.2     1  UNL1       -0.2060
     11  N         16.0250  -22.9400   -6.5060 N.pl3   1  UNL1       -0.1810
     12  H         15.0860  -23.1400   -6.1620 H       1  UNL1        0.1460
     13  C         16.8730  -22.3980   -5.4800 C.2     1  UNL1        0.0290
     14  C         16.6450  -22.6700   -4.1220 C.2     1  UNL1       -0.0400
     15  C         17.5200  -22.1200   -3.1720 C.2     1  UNL1        0.0090
     16  C         15.5010  -23.5220   -3.6490 C.3     1  UNL1        0.0500
     17  C         18.6020  -21.3290   -3.5650 C.2     1  UNL1        0.0070
     18  C         18.8410  -21.0790   -4.9180 C.2     1  UNL1       -0.0600
     19  C         19.9890  -20.2120   -5.3440 C.3     1  UNL1        0.0480
     20  C         17.9620  -21.6090   -5.8690 C.2     1  UNL1        0.0310
     21  C         21.3380  -23.6180   -9.3540 C.2     1  UNL1        0.2510
     22  O         21.7140  -24.6770   -8.8630 O.2     1  UNL1       -0.2680
     23  N         22.1930  -22.6510   -9.8290 N.am    1  UNL1       -0.3530
     24  H         21.8450  -21.7150   -9.9840 H       1  UNL1        0.1630
     25  C         23.6220  -22.8060   -9.6810 C.3     1  UNL1        0.1610
     26  C         24.3350  -22.3200  -10.9150 C.2     1  UNL1       -0.0410
     27  C         24.0180  -22.8540  -12.1720 C.2     1  UNL1        0.0090
     28  C         24.6570  -22.3850  -13.3210 C.2     1  UNL1        0.0010
     29  C         25.6130  -21.3750  -13.2250 C.2     1  UNL1        0.0000
     30  C         25.9280  -20.8300  -11.9820 C.2     1  UNL1        0.0010
     31  C         25.2900  -21.2970  -10.8310 C.2     1  UNL1        0.0090
@<TRIPOS>BOND
     1    28    29    2
     2    28    27    1
     3    29    30    1
     4    27    26    2
     5    30    31    2
     6    26    31    1
     7    26    25    1
     8     5     4    2
     9     5     6    1
    10     4     3    1
    11    24    23    1
    12    23    25    1
    13    23    21   am
    14     7     6    1
    15     6     1    2
    16     3    21    1
    17     3     2    2
    18    21    22    2
    19     1     2    1
    20     1     8    1
    21    10     8    2
    22     8    11    1
    23     8     9    2
    24    11    12    1
    25    11    13    1
    26    20    13    2
    27    20    18    1
    28    13    14    1
    29    19    18    1
    30    18    17    2
    31    14    16    1
    32    14    15    2
    33    17    15    1
