@<TRIPOS>MOLECULE
30860_out_ligand_01.pdbqt
 31 33 0 0 0
SMALL
GASTEIGER

@<TRIPOS>ATOM
      1  C         18.5050  -22.5430   -9.9200 C.2     1  UNL1        0.1020
      2  C         19.8160  -23.0420   -9.8220 C.2     1  UNL1        0.0440
      3  C         20.8220  -22.5500  -10.6610 C.2     1  UNL1        0.0340
      4  C         20.5250  -21.5460  -11.5870 C.2     1  UNL1        0.0190
      5  C         19.2200  -21.0540  -11.6820 C.2     1  UNL1        0.0260
      6  C         18.2030  -21.5510  -10.8550 C.2     1  UNL1        0.0570
      7 CL         16.6450  -20.8330  -11.0440 Cl      1  UNL1       -0.0830
      8  S         17.2700  -23.2360   -8.8510 S.O2    1  UNL1        0.2650
      9  O         16.1350  -23.6230   -9.6600 O.2     1  UNL1       -0.2000
     10  O         17.9160  -24.2210   -8.0080 O.2     1  UNL1       -0.2000
     11  N         16.7840  -21.9310   -7.9010 N.pl3   1  UNL1       -0.2800
     12  H         17.1100  -21.0390   -8.2650 H       1  UNL1        0.1790
     13  C         16.5730  -22.0910   -6.4970 C.2     1  UNL1        0.0490
     14  C         15.3090  -22.4850   -6.0460 C.2     1  UNL1        0.0310
     15  C         15.0730  -22.7080   -4.6930 C.2     1  UNL1        0.0030
     16  C         16.1010  -22.5340   -3.7750 C.2     1  UNL1        0.0070
     17  C         17.3740  -22.1200   -4.1960 C.2     1  UNL1       -0.0540
     18  C         18.4470  -21.9400   -3.1530 C.3     1  UNL1        0.0490
     19  C         17.6130  -21.8600   -5.5700 C.2     1  UNL1       -0.0290
     20  C         18.9850  -21.4040   -6.0000 C.3     1  UNL1        0.0510
     21  C         22.2030  -23.0880  -10.5120 C.2     1  UNL1        0.2560
     22  O         22.4510  -23.7610   -9.5200 O.2     1  UNL1       -0.2670
     23  N         23.0600  -22.7810  -11.5520 N.am    1  UNL1       -0.3230
     24  H         22.6600  -22.3220  -12.3590 H       1  UNL1        0.1690
     25  C         24.4270  -23.1200  -11.6600 C.2     1  UNL1        0.0360
     26  C         25.3640  -22.9120  -10.6470 C.2     1  UNL1        0.0290
     27  C         26.7050  -23.2700  -10.8310 C.2     1  UNL1        0.0040
     28  C         27.1210  -23.8370  -12.0330 C.2     1  UNL1        0.0190
     29  C         26.1900  -24.0430  -13.0480 C.2     1  UNL1        0.0130
     30 BR         26.7440  -24.8110  -14.6840 Br      1  UNL1       -0.0510
     31  C         24.8520  -23.6890  -12.8680 C.2     1  UNL1        0.0480
@<TRIPOS>BOND
     1    30    29    1
     2    29    31    1
     3    29    28    2
     4    31    25    2
     5    24    23    1
     6    28    27    1
     7     5     4    2
     8     5     6    1
     9    25    23    1
    10    25    26    1
    11     4     3    1
    12    23    21   am
    13     7     6    1
    14     6     1    2
    15    27    26    2
    16     3    21    1
    17     3     2    2
    18    21    22    2
    19     1     2    1
    20     1     8    1
    21     9     8    2
    22     8    10    2
    23     8    11    1
    24    12    11    1
    25    11    13    1
    26    13    14    2
    27    13    19    1
    28    14    15    1
    29    20    19    1
    30    19    17    2
    31    15    16    2
    32    17    16    1
    33    17    18    1
