@<TRIPOS>MOLECULE
30861_out_ligand_01.pdbqt
 32 35 0 0 0
SMALL
GASTEIGER

@<TRIPOS>ATOM
      1  C         22.1540  -22.8120  -10.9540 C.2     1  UNL1        0.0460
      2  C         22.6750  -23.5290   -9.8730 C.2     1  UNL1        0.0300
      3  C         21.9080  -23.7660   -8.7440 C.2     1  UNL1        0.0030
      4  C         20.6040  -23.2900   -8.6760 C.2     1  UNL1        0.0140
      5  C         20.0040  -22.5560   -9.7290 C.2     1  UNL1        0.0030
      6  C         18.6540  -22.0570   -9.6690 C.2     1  UNL1        0.0460
      7  C         18.1340  -21.3400  -10.7490 C.2     1  UNL1        0.0300
      8  C         18.9000  -21.1030  -11.8790 C.2     1  UNL1        0.0030
      9  C         20.2050  -21.5790  -11.9470 C.2     1  UNL1        0.0140
     10  C         20.8040  -22.3140  -10.8930 C.2     1  UNL1        0.0030
     11  N         22.9480  -22.5710  -12.1130 N.am    1  UNL1       -0.3220
     12  C         24.1250  -21.8510  -12.2240 C.2     1  UNL1        0.2590
     13  O         24.7100  -21.2760  -11.3120 O.2     1  UNL1       -0.2670
     14  H         22.6070  -22.9790  -12.9700 H       1  UNL1        0.1690
     15  C         24.7350  -21.7720  -13.5910 C.2     1  UNL1        0.0700
     16  C         25.9250  -22.4760  -13.8320 C.2     1  UNL1        0.0200
     17  C         26.5370  -22.4370  -15.0890 C.2     1  UNL1        0.0010
     18  C         25.9650  -21.6950  -16.1210 C.2     1  UNL1        0.0030
     19  C         24.7840  -20.9930  -15.8960 C.2     1  UNL1        0.0430
     20  C         24.1790  -21.0350  -14.6400 C.2     1  UNL1        0.1320
     21  F         23.0410  -20.3420  -14.4720 F       1  UNL1       -0.2050
     22  N         17.8610  -22.2990   -8.5100 N.am    1  UNL1       -0.3220
     23  C         16.6940  -23.0350   -8.3940 C.2     1  UNL1        0.2590
     24  O         16.1220  -23.6290   -9.3030 O.2     1  UNL1       -0.2670
     25  H         18.1920  -21.8760   -7.6560 H       1  UNL1        0.1690
     26  C         16.0820  -23.1090   -7.0290 C.2     1  UNL1        0.0700
     27  C         15.0590  -22.2040   -6.7070 C.2     1  UNL1        0.0200
     28  C         14.4520  -22.2280   -5.4460 C.2     1  UNL1        0.0010
     29  C         14.8610  -23.1590   -4.4930 C.2     1  UNL1        0.0030
     30  C         15.8760  -24.0620   -4.7990 C.2     1  UNL1        0.0430
     31  C         16.4760  -24.0330   -6.0580 C.2     1  UNL1        0.1320
     32  F         17.4500  -24.9240   -6.3050 F       1  UNL1       -0.2050
@<TRIPOS>BOND
     1    18    19    2
     2    18    17    1
     3    19    20    1
     4    17    16    2
     5    20    21    1
     6    20    15    2
     7    16    15    1
     8    15    12    1
     9    14    11    1
    10    12    11   am
    11    12    13    2
    12    11     1    1
    13     9     8    2
    14     9    10    1
    15     8     7    1
    16     1    10    2
    17     1     2    1
    18    10     5    1
    19     7     6    2
    20     2     3    2
    21     5     6    1
    22     5     4    2
    23     6    22    1
    24    24    23    2
    25     3     4    1
    26    22    23   am
    27    22    25    1
    28    23    26    1
    29    26    27    2
    30    26    31    1
    31    27    28    1
    32    32    31    1
    33    31    30    2
    34    28    29    2
    35    30    29    1
