@<TRIPOS>MOLECULE
30863_out_ligand_01.pdbqt
 38 43 0 0 0
SMALL
GASTEIGER

@<TRIPOS>ATOM
      1  C         18.7100  -23.5430   -8.7300 C.2     1  UNL1        0.0800
      2  C         19.6020  -24.4420   -8.1410 C.2     1  UNL1        0.0270
      3  C         20.9470  -24.4220   -8.5110 C.2     1  UNL1        0.0310
      4  C         21.4230  -23.4910   -9.4430 C.2     1  UNL1        0.0350
      5  C         20.5050  -22.5910  -10.0430 C.2     1  UNL1       -0.0220
      6  C         19.1580  -22.5980   -9.6560 C.2     1  UNL1        0.0350
      7  C         21.0640  -21.5650  -10.9870 C.3     1  UNL1        0.0500
      8  C         20.2660  -20.9860  -12.1140 C.3     1  UNL1       -0.0210
      9  C         21.0700  -20.7450  -13.1650 C.3     1  UNL1       -0.0290
     10  C         22.4770  -21.2120  -12.9010 C.3     1  UNL1        0.0350
     11  C         22.2050  -22.2080  -11.7800 C.3     1  UNL1        0.0280
     12  C         23.2990  -22.5650  -10.7820 C.3     1  UNL1        0.1200
     13  N         22.7600  -23.5760   -9.8570 N.pl3   1  UNL1       -0.3800
     14  H         23.4070  -23.8650   -9.1300 H       1  UNL1        0.1600
     15  S         16.9990  -23.5620   -8.2470 S.O2    1  UNL1        0.2630
     16  O         16.8310  -24.6410   -7.2930 O.2     1  UNL1       -0.2000
     17  O         16.2030  -23.5180   -9.4550 O.2     1  UNL1       -0.2000
     18  N         16.7950  -22.1370   -7.3620 N.pl3   1  UNL1       -0.2800
     19  H         16.1020  -21.5210   -7.7820 H       1  UNL1        0.1790
     20  C         16.8960  -22.1560   -5.9390 C.2     1  UNL1        0.0540
     21  C         18.1340  -21.8940   -5.3200 C.2     1  UNL1       -0.0340
     22  C         18.2440  -22.0240   -3.9250 C.2     1  UNL1        0.0090
     23  C         19.3640  -21.4740   -6.0790 C.3     1  UNL1        0.0500
     24  C         17.1410  -22.3730   -3.1530 C.2     1  UNL1        0.0010
     25  C         15.9100  -22.5890   -3.7650 C.2     1  UNL1        0.0090
     26  C         15.7660  -22.4750   -5.1580 C.2     1  UNL1       -0.0340
     27  C         14.3940  -22.7290   -5.7210 C.3     1  UNL1        0.0500
     28  C         24.5420  -23.1210  -11.4500 C.2     1  UNL1       -0.0330
     29  C         25.6890  -23.4480  -10.7110 C.2     1  UNL1        0.0090
     30  C         26.8180  -23.9690  -11.3440 C.2     1  UNL1        0.0030
     31  C         26.8190  -24.1730  -12.7250 C.2     1  UNL1        0.0370
     32  C         25.6860  -23.8600  -13.4720 C.2     1  UNL1        0.0700
     33  C         24.5580  -23.3320  -12.8370 C.2     1  UNL1        0.0460
     34  O         25.5710  -24.0030  -14.8330 O.2     1  UNL1       -0.3440
     35  C         24.7570  -23.0610  -15.5790 C.3     1  UNL1        0.1470
     36  C         24.4540  -23.4920  -17.0450 C.3     1  UNL1        0.1070
     37  S         25.8240  -22.4710  -17.6610 S.3     1  UNL1       -0.1640
     38  C         25.4400  -21.7390  -16.0420 C.3     1  UNL1        0.1070
@<TRIPOS>BOND
     1    37    36    1
     2    37    38    1
     3    36    35    1
     4    38    35    1
     5    35    34    1
     6    34    32    1
     7    32    33    1
     8    32    31    2
     9     9    10    1
    10     9     8    1
    11    10    11    1
    12    33    28    2
    13    31    30    1
    14     8     7    1
    15    11     7    1
    16    11    12    1
    17    28    12    1
    18    28    29    1
    19    30    29    2
    20     7     5    1
    21    12    13    1
    22     5     6    1
    23     5     4    2
    24    13     4    1
    25    13    14    1
    26     6     1    2
    27    17    15    2
    28     4     3    1
    29     1    15    1
    30     1     2    1
    31     3     2    2
    32    15    18    1
    33    15    16    2
    34    19    18    1
    35    18    20    1
    36    23    21    1
    37    20    21    2
    38    20    26    1
    39    27    26    1
    40    21    22    1
    41    26    25    2
    42    22    24    2
    43    25    24    1
