@<TRIPOS>MOLECULE
30865_out_ligand_01.pdbqt
 34 38 0 0 0
SMALL
GASTEIGER

@<TRIPOS>ATOM
      1  C         22.1000  -22.2610  -10.6840 C.3     1  UNL1        0.0980
      2  N         21.8540  -23.4480   -9.8590 N.pl3   1  UNL1       -0.2830
      3  C         20.5560  -23.5430   -9.3420 C.2     1  UNL1        0.0160
      4  C         20.3340  -24.3180   -8.1940 C.2     1  UNL1        0.0250
      5  C         19.0470  -24.4910   -7.6810 C.2     1  UNL1        0.0270
      6  C         17.9670  -23.9050   -8.3370 C.2     1  UNL1        0.0800
      7  C         18.1610  -23.1810   -9.5160 C.2     1  UNL1        0.0350
      8  C         19.4570  -22.9990  -10.0280 C.2     1  UNL1       -0.0270
      9  C         19.6460  -22.2650  -11.3330 C.3     1  UNL1        0.0490
     10  C         19.2870  -20.8020  -11.2790 C.3     1  UNL1       -0.0210
     11  C         20.1280  -20.0610  -12.0090 C.3     1  UNL1       -0.0290
     12  C         21.1820  -20.9040  -12.6500 C.3     1  UNL1        0.0340
     13  C         21.1000  -22.2240  -11.8580 C.3     1  UNL1        0.0230
     14  H         22.5670  -23.5660   -9.1410 H       1  UNL1        0.1280
     15  S         16.3240  -24.1110   -7.7010 S.O2    1  UNL1        0.2630
     16  O         15.4360  -24.2240   -8.8400 O.2     1  UNL1       -0.2000
     17  O         16.3430  -25.1260   -6.6700 O.2     1  UNL1       -0.2000
     18  N         15.9990  -22.6010   -7.0120 N.pl3   1  UNL1       -0.2800
     19  H         14.9960  -22.4410   -6.9440 H       1  UNL1        0.1790
     20  C         16.8150  -22.1650   -5.9280 C.2     1  UNL1        0.0490
     21  C         18.0370  -21.5520   -6.2230 C.2     1  UNL1        0.0370
     22  C         18.9050  -21.1570   -5.1980 C.2     1  UNL1       -0.0600
     23  C         20.1990  -20.4720   -5.5230 C.3     1  UNL1        0.0480
     24  C         18.5220  -21.3660   -3.8710 C.2     1  UNL1        0.0070
     25  C         17.3020  -21.9800   -3.5740 C.2     1  UNL1        0.0090
     26  C         16.4310  -22.3850   -4.5970 C.2     1  UNL1       -0.0350
     27  C         15.1440  -23.0700   -4.2370 C.3     1  UNL1        0.0500
     28  C         23.5510  -22.3080  -11.1440 C.2     1  UNL1       -0.0390
     29  C         24.5070  -21.4720  -10.5470 C.2     1  UNL1        0.0090
     30  C         25.8400  -21.5090  -10.9580 C.2     1  UNL1        0.0010
     31  C         26.2360  -22.3820  -11.9700 C.2     1  UNL1        0.0070
     32  C         25.3020  -23.2210  -12.5880 C.2     1  UNL1       -0.0610
     33  C         25.7330  -24.1900  -13.6490 C.3     1  UNL1        0.0480
     34  C         23.9680  -23.1880  -12.1590 C.2     1  UNL1        0.0150
@<TRIPOS>BOND
     1    33    32    1
     2    12    11    1
     3    12    13    1
     4    32    34    1
     5    32    31    2
     6    34    28    2
     7    11    10    1
     8    31    30    1
     9    13     9    1
    10    13     1    1
    11     9    10    1
    12     9     8    1
    13    28     1    1
    14    28    29    1
    15    30    29    2
    16     1     2    1
    17     8     7    1
    18     8     3    2
    19     2     3    1
    20     2    14    1
    21     7     6    2
    22     3     4    1
    23    16    15    2
    24     6    15    1
    25     6     5    1
    26     4     5    2
    27    15    18    1
    28    15    17    2
    29    18    19    1
    30    18    20    1
    31    21    20    2
    32    21    22    1
    33    20    26    1
    34    23    22    1
    35    22    24    2
    36    26    27    1
    37    26    25    2
    38    24    25    1
