@<TRIPOS>MOLECULE
30872_out_ligand_01.pdbqt
 28 31 0 0 0
SMALL
GASTEIGER

@<TRIPOS>ATOM
      1  C         20.1220  -22.0370  -11.1980 C.2     1  UNL1        0.0320
      2  C         19.9880  -23.0460  -10.2390 C.2     1  UNL1        0.0170
      3  C         18.7340  -23.3340   -9.6970 C.2     1  UNL1        0.0100
      4  C         17.6000  -22.6120  -10.0970 C.2     1  UNL1       -0.0300
      5  C         17.7450  -21.5860  -11.0430 C.2     1  UNL1        0.0100
      6  C         18.9990  -21.2970  -11.5900 C.2     1  UNL1        0.0170
      7  C         21.4740  -21.7590  -11.7570 C.2     1  UNL1        0.2560
      8  O         21.5590  -21.0340  -12.7400 O.2     1  UNL1       -0.2670
      9  N         22.5180  -22.3420  -11.0600 N.am    1  UNL1       -0.3230
     10  H         22.2830  -22.8000  -10.1890 H       1  UNL1        0.1690
     11  C         23.8920  -22.2880  -11.3730 C.2     1  UNL1        0.0360
     12  C         24.8020  -21.4330  -10.7470 C.2     1  UNL1        0.0290
     13  C         26.1510  -21.4340  -11.1170 C.2     1  UNL1        0.0040
     14  C         26.6040  -22.2880  -12.1200 C.2     1  UNL1        0.0190
     15  C         25.7000  -23.1390  -12.7490 C.2     1  UNL1        0.0130
     16 BR         26.3030  -24.3000  -14.1140 Br      1  UNL1       -0.0510
     17  C         24.3520  -23.1420  -12.3840 C.2     1  UNL1        0.0480
     18  C         16.2450  -22.9190   -9.4910 C.3     1  UNL1        0.3110
     19  N         16.2200  -22.7940   -8.0250 N.3     1  UNL1        0.0970
     20  C         16.0970  -24.1200   -7.4000 C.3     1  UNL1        0.2770
     21  C         15.8680  -23.9890   -5.8900 C.3     1  UNL1        0.0690
     22  C         16.8610  -23.0640   -5.2350 C.2     1  UNL1       -0.0490
     23  C         17.0290  -23.0780   -3.8440 C.2     1  UNL1        0.0070
     24  C         17.5770  -22.1410   -6.0180 C.2     1  UNL1       -0.0240
     25  C         17.9220  -22.1990   -3.2330 C.2     1  UNL1        0.0010
     26  C         18.6480  -21.2960   -4.0060 C.2     1  UNL1        0.0010
     27  C         18.4780  -21.2680   -5.3910 C.2     1  UNL1        0.0090
     28  C         17.4380  -22.1230   -7.5270 C.3     1  UNL1        0.3110
@<TRIPOS>BOND
     1    16    15    1
     2    15    17    1
     3    15    14    2
     4     8     7    2
     5    17    11    2
     6    14    13    1
     7     7     1    1
     8     7     9   am
     9     6     1    2
    10     6     5    1
    11    11     9    1
    12    11    12    1
    13     1     2    1
    14    13    12    2
    15     9    10    1
    16     5     4    2
    17     2     3    2
    18     4     3    1
    19     4    18    1
    20    18    19    1
    21    19    28    1
    22    19    20    1
    23    28    24    1
    24    20    21    1
    25    24    27    1
    26    24    22    2
    27    21    22    1
    28    27    26    2
    29    22    23    1
    30    26    25    1
    31    23    25    2
