@<TRIPOS>MOLECULE
30888_out_ligand_01.pdbqt
 40 43 0 0 0
SMALL
GASTEIGER

@<TRIPOS>ATOM
      1  N         20.8190  -22.1510  -11.3440 N.am    1  UNL1       -0.3230
      2  C         22.1620  -22.4790  -11.2800 C.2     1  UNL1        0.2560
      3  O         22.6960  -23.2490  -10.4900 O.2     1  UNL1       -0.2670
      4  H         20.5200  -21.6020  -12.1390 H       1  UNL1        0.1690
      5  C         19.7900  -22.5780  -10.4790 C.2     1  UNL1        0.0350
      6  C         19.8970  -23.6710   -9.6130 C.2     1  UNL1        0.0310
      7  C         18.8290  -24.0310   -8.7850 C.2     1  UNL1        0.0270
      8  C         17.6540  -23.2790   -8.8090 C.2     1  UNL1        0.0800
      9  C         17.5270  -22.1910   -9.6750 C.2     1  UNL1        0.0270
     10  C         18.5960  -21.8430  -10.5050 C.2     1  UNL1        0.0310
     11  S         16.2920  -23.7350   -7.7600 S.O2    1  UNL1        0.2630
     12  O         15.5120  -22.5380   -7.5160 O.2     1  UNL1       -0.2000
     13  O         15.6770  -24.9220   -8.3120 O.2     1  UNL1       -0.2000
     14  N         17.0520  -24.0830   -6.3150 N.pl3   1  UNL1       -0.2800
     15  H         17.2800  -25.0630   -6.1300 H       1  UNL1        0.1790
     16  C         17.4720  -23.0690   -5.4170 C.2     1  UNL1        0.0490
     17  C         16.9810  -23.0400   -4.1030 C.2     1  UNL1       -0.0350
     18  C         17.4480  -22.0410   -3.2310 C.2     1  UNL1        0.0090
     19  C         15.9210  -23.9930   -3.6170 C.3     1  UNL1        0.0500
     20  C         18.4130  -21.1190   -3.6470 C.2     1  UNL1        0.0070
     21  C         18.9200  -21.1660   -4.9490 C.2     1  UNL1       -0.0600
     22  C         19.9900  -20.2110   -5.3930 C.3     1  UNL1        0.0480
     23  C         18.4530  -22.1570   -5.8210 C.2     1  UNL1        0.0370
     24  C         23.0150  -21.8390  -12.3210 C.2     1  UNL1        0.0320
     25  C         24.4030  -21.8170  -12.1240 C.2     1  UNL1        0.0190
     26  C         25.2380  -21.2300  -13.0780 C.2     1  UNL1        0.0250
     27  C         24.6890  -20.6470  -14.2220 C.2     1  UNL1        0.0250
     28  C         23.3060  -20.6620  -14.4190 C.2     1  UNL1        0.0250
     29  C         22.4670  -21.2480  -13.4670 C.2     1  UNL1        0.0190
     30  N         25.5070  -20.0510  -15.2460 N.pl3   1  UNL1       -0.1760
     31  C         26.7740  -19.4580  -14.7510 C.3     1  UNL1        0.1360
     32  S         25.6680  -21.0600  -16.6320 S.O2    1  UNL1        0.2470
     33  O         26.9430  -20.7860  -17.2650 O.2     1  UNL1       -0.2050
     34  O         24.4270  -21.0000  -17.3810 O.2     1  UNL1       -0.2050
     35  C         25.7970  -22.6790  -15.9050 C.2     1  UNL1        0.0750
     36  C         24.7320  -23.5800  -15.9930 C.2     1  UNL1        0.0250
     37  C         24.8630  -24.8520  -15.4330 C.2     1  UNL1        0.0020
     38  C         26.0550  -25.2210  -14.8050 C.2     1  UNL1        0.0000
     39  C         27.1210  -24.3200  -14.7320 C.2     1  UNL1        0.0020
     40  C         26.9950  -23.0460  -15.2850 C.2     1  UNL1        0.0250
@<TRIPOS>BOND
     1    34    32    2
     2    33    32    2
     3    32    35    1
     4    32    30    1
     5    36    35    2
     6    36    37    1
     7    35    40    1
     8    37    38    2
     9    40    39    2
    10    30    31    1
    11    30    27    1
    12    38    39    1
    13    28    27    2
    14    28    29    1
    15    27    26    1
    16    29    24    2
    17    26    25    2
    18    24    25    1
    19    24     2    1
    20     4     1    1
    21     1     2   am
    22     1     5    1
    23     2     3    2
    24    10     5    2
    25    10     9    1
    26     5     6    1
    27     9     8    2
    28     6     7    2
    29     8     7    1
    30     8    11    1
    31    13    11    2
    32    11    12    2
    33    11    14    1
    34    14    15    1
    35    14    16    1
    36    23    16    2
    37    23    21    1
    38    16    17    1
    39    22    21    1
    40    21    20    2
    41    17    19    1
    42    17    18    2
    43    20    18    1
