@<TRIPOS>MOLECULE
30896_out_ligand_01.pdbqt
 32 34 0 0 0
SMALL
GASTEIGER

@<TRIPOS>ATOM
      1  C         16.7130  -20.5470  -11.3050 C.3     1  UNL1        0.0500
      2  C         18.0760  -21.1590  -11.1440 C.2     1  UNL1       -0.0390
      3  C         19.1040  -20.7130  -11.9960 C.2     1  UNL1        0.0090
      4  C         20.3950  -21.2390  -11.9090 C.2     1  UNL1        0.0170
      5  C         20.6840  -22.2390  -10.9770 C.2     1  UNL1        0.0330
      6  C         19.6780  -22.6960  -10.1220 C.2     1  UNL1        0.0420
      7  C         18.3800  -22.1610  -10.2010 C.2     1  UNL1        0.0860
      8  S         17.1550  -22.8370   -9.0810 S.O2    1  UNL1        0.2630
      9  O         16.4530  -23.8970   -9.7720 O.2     1  UNL1       -0.2000
     10  O         16.4120  -21.7390   -8.4970 O.2     1  UNL1       -0.2000
     11  N         18.0830  -23.4950   -7.8370 N.pl3   1  UNL1       -0.2800
     12  H         18.0720  -24.5110   -7.8220 H       1  UNL1        0.1790
     13  C         18.2410  -22.7790   -6.6140 C.2     1  UNL1        0.0490
     14  C         19.2260  -21.7880   -6.5480 C.2     1  UNL1        0.0310
     15  C         19.3710  -21.0110   -5.4030 C.2     1  UNL1        0.0030
     16  C         18.5260  -21.2180   -4.3180 C.2     1  UNL1        0.0070
     17  C         17.5340  -22.2100   -4.3570 C.2     1  UNL1       -0.0540
     18  C         16.6450  -22.3780   -3.1530 C.3     1  UNL1        0.0490
     19  C         17.4000  -23.0260   -5.5070 C.2     1  UNL1       -0.0290
     20  C         16.3230  -24.0800   -5.5460 C.3     1  UNL1        0.0510
     21  C         22.0530  -22.8130  -10.8470 C.2     1  UNL1        0.2560
     22  O         22.2520  -23.6610   -9.9890 O.2     1  UNL1       -0.2670
     23  N         22.9560  -22.3670  -11.7910 N.am    1  UNL1       -0.3180
     24  H         22.5740  -21.9380  -12.6280 H       1  UNL1        0.1690
     25  C         24.3350  -22.6810  -11.8630 C.2     1  UNL1        0.1130
     26  C         24.9100  -23.6580  -12.6790 C.2     1  UNL1        0.1460
     27  F         24.1690  -24.4760  -13.4350 F       1  UNL1       -0.2040
     28  C         26.2910  -23.8780  -12.6720 C.2     1  UNL1        0.0450
     29  C         27.1210  -23.1340  -11.8340 C.2     1  UNL1        0.0060
     30  C         26.5620  -22.1800  -10.9890 C.2     1  UNL1        0.0450
     31  C         25.1840  -21.9700  -11.0060 C.2     1  UNL1        0.1460
     32  F         24.6640  -21.0480  -10.1790 F       1  UNL1       -0.2040
@<TRIPOS>BOND
     1    27    26    1
     2    26    28    1
     3    26    25    2
     4    28    29    2
     5    24    23    1
     6     3     4    1
     7     3     2    2
     8     4     5    2
     9    25    23    1
    10    25    31    1
    11    29    30    1
    12    23    21   am
    13     1     2    1
    14     2     7    1
    15    31    30    2
    16    31    32    1
    17     5    21    1
    18     5     6    1
    19    21    22    2
    20     7     6    2
    21     7     8    1
    22     9     8    2
    23     8    10    2
    24     8    11    1
    25    11    12    1
    26    11    13    1
    27    13    14    2
    28    13    19    1
    29    14    15    1
    30    20    19    1
    31    19    17    2
    32    15    16    2
    33    17    16    1
    34    17    18    1
