@<TRIPOS>MOLECULE
30895_out_ligand_01.pdbqt
 38 42 0 0 0
SMALL
GASTEIGER

@<TRIPOS>ATOM
      1  O         20.1550  -21.5710  -11.2630 O.2     1  UNL1       -0.2670
      2  C         21.1740  -22.1670  -10.9400 C.2     1  UNL1        0.2560
      3  N         21.4180  -22.8090   -9.7380 N.am    1  UNL1       -0.3230
      4  H         22.3640  -23.1340   -9.5790 H       1  UNL1        0.1690
      5  C         22.3160  -22.1940  -11.8950 C.2     1  UNL1        0.0320
      6  C         22.2120  -21.4660  -13.0860 C.2     1  UNL1        0.0170
      7  C         23.2690  -21.4650  -13.9990 C.2     1  UNL1        0.0100
      8  C         24.4420  -22.1880  -13.7350 C.2     1  UNL1       -0.0300
      9  C         24.5250  -22.9410  -12.5540 C.2     1  UNL1        0.0100
     10  C         23.4700  -22.9460  -11.6370 C.2     1  UNL1        0.0170
     11  C         25.5840  -22.2060  -14.7350 C.3     1  UNL1        0.3110
     12  N         26.2280  -20.8960  -14.9350 N.3     1  UNL1        0.0970
     13  C         26.0200  -20.0440  -13.7530 C.3     1  UNL1        0.2770
     14  C         26.8400  -18.7510  -13.8520 C.3     1  UNL1        0.0690
     15  C         26.6930  -18.0720  -15.1870 C.2     1  UNL1       -0.0490
     16  C         27.1200  -16.7480  -15.3540 C.2     1  UNL1        0.0070
     17  C         26.2060  -18.7930  -16.2900 C.2     1  UNL1       -0.0240
     18  C         27.0540  -16.1380  -16.6070 C.2     1  UNL1        0.0010
     19  C         26.5690  -16.8480  -17.7030 C.2     1  UNL1        0.0010
     20  C         26.1400  -18.1660  -17.5460 C.2     1  UNL1        0.0090
     21  C         25.6960  -20.2110  -16.1290 C.3     1  UNL1        0.3110
     22  C         20.5260  -22.9700   -8.6590 C.2     1  UNL1        0.0350
     23  C         20.4170  -21.9010   -7.7560 C.2     1  UNL1        0.0310
     24  C         19.5490  -21.9760   -6.6620 C.2     1  UNL1        0.0270
     25  C         18.7830  -23.1260   -6.4720 C.2     1  UNL1        0.0800
     26  C         18.9010  -24.2080   -7.3460 C.2     1  UNL1        0.0270
     27  C         19.7680  -24.1240   -8.4390 C.2     1  UNL1        0.0310
     28  S         17.6640  -23.2280   -5.0930 S.O2    1  UNL1        0.2630
     29  O         18.0530  -22.2280   -4.1200 O.2     1  UNL1       -0.2000
     30  O         17.5540  -24.6240   -4.7270 O.2     1  UNL1       -0.2000
     31  N         16.1780  -22.7990   -5.7770 N.pl3   1  UNL1       -0.2810
     32  H         15.4120  -22.9160   -5.1150 H       1  UNL1        0.1790
     33  C         15.9270  -23.1210   -7.1390 C.2     1  UNL1        0.0420
     34  C         16.0950  -22.1660   -8.1420 C.2     1  UNL1        0.0300
     35  C         15.8890  -22.5160   -9.4770 C.2     1  UNL1        0.0020
     36  C         15.5150  -23.8190   -9.8080 C.2     1  UNL1        0.0000
     37  C         15.3490  -24.7730   -8.8050 C.2     1  UNL1        0.0020
     38  C         15.5540  -24.4250   -7.4690 C.2     1  UNL1        0.0300
@<TRIPOS>BOND
     1    19    20    2
     2    19    18    1
     3    20    17    1
     4    18    16    2
     5    17    21    1
     6    17    15    2
     7    21    12    1
     8    16    15    1
     9    15    14    1
    10    12    11    1
    11    12    13    1
    12    11     8    1
    13     7     8    2
    14     7     6    1
    15    14    13    1
    16     8     9    1
    17     6     5    2
    18     9    10    2
    19     5    10    1
    20     5     2    1
    21     1     2    2
    22     2     3   am
    23    36    35    2
    24    36    37    1
    25     3     4    1
    26     3    22    1
    27    35    34    1
    28    37    38    2
    29    22    27    2
    30    22    23    1
    31    27    26    1
    32    34    33    2
    33    23    24    2
    34    38    33    1
    35    26    25    2
    36    33    31    1
    37    24    25    1
    38    25    28    1
    39    31    32    1
    40    31    28    1
    41    28    30    2
    42    28    29    2
