@<TRIPOS>MOLECULE
30897_out_ligand_01.pdbqt
 34 36 0 0 0
SMALL
GASTEIGER

@<TRIPOS>ATOM
      1  C         22.6290  -23.3370   -8.9150 C.2     1  UNL1        0.0340
      2  C         22.1990  -22.2350   -8.1710 C.2     1  UNL1        0.0310
      3  C         20.9140  -22.2090   -7.6190 C.2     1  UNL1        0.0270
      4  C         20.0480  -23.2830   -7.8270 C.2     1  UNL1        0.0800
      5  C         20.4720  -24.4030   -8.5440 C.2     1  UNL1        0.0270
      6  C         21.7610  -24.4250   -9.0860 C.2     1  UNL1        0.0310
      7  S         18.4040  -23.2400   -7.1480 S.O2    1  UNL1        0.2630
      8  O         18.2260  -21.9700   -6.4820 O.2     1  UNL1       -0.2000
      9  O         18.1890  -24.4920   -6.4530 O.2     1  UNL1       -0.2000
     10  N         17.4210  -23.2950   -8.5220 N.pl3   1  UNL1       -0.2810
     11  H         17.1270  -24.2460   -8.7350 H       1  UNL1        0.1790
     12  C         17.7060  -22.4270   -9.6120 C.2     1  UNL1        0.0430
     13  C         16.6590  -21.7290  -10.2110 C.2     1  UNL1        0.0300
     14  C         16.9060  -20.9250  -11.3220 C.2     1  UNL1        0.0030
     15  C         18.2010  -20.8160  -11.8310 C.2     1  UNL1        0.0160
     16  C         19.2650  -21.5040  -11.2290 C.2     1  UNL1        0.0500
     17  C         19.0020  -22.3180  -10.1160 C.2     1  UNL1        0.0460
     18  C         20.6640  -21.4110  -11.7850 C.3     1  UNL1        0.4170
     19  F         20.7050  -20.8920  -13.0440 F       1  UNL1       -0.1660
     20  F         21.4810  -20.6230  -11.0350 F       1  UNL1       -0.1660
     21  F         21.2730  -22.6270  -11.8610 F       1  UNL1       -0.1660
     22  N         23.9060  -23.4360   -9.5000 N.am    1  UNL1       -0.3270
     23  C         24.6190  -22.4470  -10.1560 C.2     1  UNL1        0.2310
     24  O         24.2430  -21.2920  -10.3530 O.2     1  UNL1       -0.2720
     25  H         24.3220  -24.3600   -9.5320 H       1  UNL1        0.1690
     26  C         26.0130  -22.8760  -10.5930 C.3     1  UNL1        0.1820
     27  S         26.7530  -21.7650  -11.8360 S.3     1  UNL1       -0.1210
     28  C         25.9180  -22.1960  -13.3610 C.2     1  UNL1        0.0010
     29  C         26.5060  -23.2150  -14.1260 C.2     1  UNL1        0.0190
     30  C         25.9420  -23.6270  -15.3380 C.2     1  UNL1        0.0080
     31  C         24.7700  -23.0330  -15.8090 C.2     1  UNL1       -0.0620
     32  C         24.1700  -23.4440  -17.1200 C.3     1  UNL1        0.0480
     33  C         24.1900  -22.0050  -15.0590 C.2     1  UNL1        0.0080
     34  C         24.7580  -21.5910  -13.8470 C.2     1  UNL1        0.0190
@<TRIPOS>BOND
     1    32    31    1
     2    31    30    2
     3    31    33    1
     4    30    29    1
     5    33    34    2
     6    29    28    2
     7    34    28    1
     8    28    27    1
     9    19    18    1
    10    21    18    1
    11    27    26    1
    12    15    14    2
    13    15    16    1
    14    18    16    1
    15    18    20    1
    16    14    13    1
    17    16    17    2
    18    26    23    1
    19    24    23    2
    20    13    12    2
    21    23    22   am
    22    17    12    1
    23    12    10    1
    24    25    22    1
    25    22     1    1
    26     6     1    2
    27     6     5    1
    28     1     2    1
    29    11    10    1
    30     5     4    2
    31    10     7    1
    32     2     3    2
    33     4     3    1
    34     4     7    1
    35     7     8    2
    36     7     9    2
