@<TRIPOS>MOLECULE
308_out_ligand_01.pdbqt
 35 39 0 0 0
SMALL
GASTEIGER

@<TRIPOS>ATOM
      1  C         20.8550  -22.6630  -10.4670 C.2     1  UNL1        0.0330
      2  C         20.2930  -21.8130  -11.4310 C.2     1  UNL1        0.0170
      3  C         21.1070  -21.2120  -12.3950 C.2     1  UNL1        0.0030
      4  C         22.4790  -21.4650  -12.4090 C.2     1  UNL1        0.0250
      5  C         23.0300  -22.3310  -11.4590 C.2     1  UNL1        0.0800
      6  C         22.2280  -22.9300  -10.4840 C.2     1  UNL1        0.0420
      7  C         20.0150  -23.3320   -9.4370 C.2     1  UNL1        0.2560
      8  O         20.2950  -24.4820   -9.1280 O.2     1  UNL1       -0.2670
      9  N         19.0130  -22.5420   -8.9060 N.am    1  UNL1       -0.3230
     10  H         19.0200  -21.5620   -9.1570 H       1  UNL1        0.1690
     11  C         18.0360  -22.9250   -7.9630 C.2     1  UNL1        0.0370
     12  C         16.6950  -22.7430   -8.3230 C.2     1  UNL1        0.0320
     13  C         15.6660  -23.1070   -7.4490 C.2     1  UNL1        0.0420
     14  C         15.9700  -23.6390   -6.1990 C.2     1  UNL1        0.1020
     15  C         17.3040  -23.8370   -5.8380 C.2     1  UNL1        0.1040
     16  O         14.9140  -24.0310   -5.4240 O.2     1  UNL1       -0.3480
     17  C         18.3320  -23.4920   -6.7210 C.2     1  UNL1        0.0690
     18  O         17.6730  -24.4630   -4.6780 O.2     1  UNL1       -0.3480
     19  C         17.2810  -23.7260   -3.5210 C.3     1  UNL1        0.1780
     20  C         15.8270  -23.9810   -3.1530 C.3     1  UNL1        0.0530
     21  C         14.8870  -23.3510   -4.1690 C.3     1  UNL1        0.1780
     22  S         24.7720  -22.6640  -11.4660 S.O2    1  UNL1        0.2630
     23  O         25.4660  -21.5030  -11.9790 O.2     1  UNL1       -0.2000
     24  O         25.1010  -23.2160  -10.1690 O.2     1  UNL1       -0.2000
     25  N         24.9030  -23.9330  -12.5730 N.pl3   1  UNL1       -0.2810
     26  H         25.2990  -24.7630  -12.1310 H       1  UNL1        0.1790
     27  C         25.3290  -23.6250  -13.8950 C.2     1  UNL1        0.0450
     28  C         26.6430  -23.9420  -14.2850 C.2     1  UNL1        0.0330
     29  C         27.0730  -23.6830  -15.5900 C.2     1  UNL1        0.0420
     30  C         26.1680  -23.1180  -16.4620 C.2     1  UNL1        0.1050
     31  C         24.8820  -22.8150  -16.0770 C.2     1  UNL1        0.1070
     32  O         26.4090  -22.8000  -17.7610 O.2     1  UNL1       -0.3230
     33  C         24.4280  -23.0600  -14.7980 C.2     1  UNL1        0.0690
     34  O         24.1540  -22.2700  -17.0880 O.2     1  UNL1       -0.3230
     35  C         25.1280  -22.2640  -18.1530 C.3     1  UNL1        0.3520
@<TRIPOS>BOND
     1    35    32    1
     2    35    34    1
     3    32    30    1
     4    34    31    1
     5    30    31    2
     6    30    29    1
     7    31    33    1
     8    29    28    2
     9    33    27    2
    10    28    27    1
    11    27    25    1
    12    25    26    1
    13    25    22    1
    14     4     3    2
    15     4     5    1
    16     3     2    1
    17    23    22    2
    18    22     5    1
    19    22    24    2
    20     5     6    2
    21     2     1    2
    22     6     1    1
    23     1     7    1
    24     7     8    2
    25     7     9   am
    26    10     9    1
    27     9    11    1
    28    12    11    2
    29    12    13    1
    30    11    17    1
    31    13    14    2
    32    17    15    2
    33    14    15    1
    34    14    16    1
    35    15    18    1
    36    16    21    1
    37    18    19    1
    38    21    20    1
    39    19    20    1
