@<TRIPOS>MOLECULE
30908_out_ligand_01.pdbqt
 27 30 0 0 0
SMALL
GASTEIGER

@<TRIPOS>ATOM
      1  C         20.2040  -21.9640  -11.4110 C.2     1  UNL1        0.0320
      2  C         20.2090  -22.9970  -10.4650 C.2     1  UNL1        0.0170
      3  C         19.0220  -23.3940   -9.8450 C.2     1  UNL1        0.0100
      4  C         17.8130  -22.7550  -10.1530 C.2     1  UNL1       -0.0300
      5  C         17.8150  -21.7130  -11.0950 C.2     1  UNL1        0.0100
      6  C         19.0030  -21.3130  -11.7150 C.2     1  UNL1        0.0170
      7  C         16.5200  -23.1930   -9.4940 C.3     1  UNL1        0.3110
      8  N         16.4820  -22.9350   -8.0450 N.3     1  UNL1        0.0970
      9  C         16.3650  -24.2000   -7.3030 C.3     1  UNL1        0.2770
     10  C         16.1220  -23.9320   -5.8120 C.3     1  UNL1        0.0690
     11  C         17.0980  -22.9390   -5.2380 C.2     1  UNL1       -0.0490
     12  C         17.2480  -22.8180   -3.8500 C.2     1  UNL1        0.0070
     13  C         17.8150  -22.0880   -6.0970 C.2     1  UNL1       -0.0240
     14  C         18.1240  -21.8730   -3.3170 C.2     1  UNL1        0.0010
     15  C         18.8510  -21.0400   -4.1640 C.2     1  UNL1        0.0010
     16  C         18.7000  -21.1490   -5.5460 C.2     1  UNL1        0.0090
     17  C         17.6950  -22.2140   -7.6030 C.3     1  UNL1        0.3110
     18  C         21.4960  -21.5820  -12.0470 C.2     1  UNL1        0.2520
     19  O         21.5070  -20.8250  -13.0100 O.2     1  UNL1       -0.2680
     20  N         22.6400  -22.0900  -11.4640 N.am    1  UNL1       -0.3520
     21  H         22.5650  -22.4780  -10.5330 H       1  UNL1        0.1630
     22  C         23.9650  -21.6650  -11.9010 C.3     1  UNL1        0.0840
     23  C         24.4720  -22.5710  -13.0360 C.3     1  UNL1        0.0250
     24  C         25.3060  -23.7320  -12.5080 C.3     1  UNL1        0.0020
     25  C         26.5450  -23.2470  -11.7510 C.3     1  UNL1        0.0000
     26  C         26.3710  -21.8650  -11.1160 C.3     1  UNL1        0.0020
     27  C         24.9270  -21.6180  -10.6990 C.3     1  UNL1        0.0250
@<TRIPOS>BOND
     1    23    24    1
     2    23    22    1
     3    19    18    2
     4    24    25    1
     5    18    20   am
     6    18     1    1
     7    22    20    1
     8    22    27    1
     9    25    26    1
    10     6     1    2
    11     6     5    1
    12    20    21    1
    13     1     2    1
    14    26    27    1
    15     5     4    2
    16     2     3    2
    17     4     3    1
    18     4     7    1
    19     7     8    1
    20     8    17    1
    21     8     9    1
    22    17    13    1
    23     9    10    1
    24    13    16    1
    25    13    11    2
    26    10    11    1
    27    16    15    2
    28    11    12    1
    29    15    14    1
    30    12    14    2
