@<TRIPOS>MOLECULE
30904_out_ligand_01.pdbqt
 32 35 0 0 0
SMALL
GASTEIGER

@<TRIPOS>ATOM
      1  C         24.1600  -22.4200  -13.2810 C.3     1  UNL1        0.1690
      2  C         23.0110  -21.6230  -12.6640 C.3     1  UNL1        0.0770
      3  C         22.6140  -22.2940  -11.3810 C.2     1  UNL1       -0.0380
      4  C         21.2980  -22.2410  -10.9060 C.2     1  UNL1        0.0250
      5  C         20.9560  -22.8550   -9.6920 C.2     1  UNL1        0.0320
      6  C         21.9470  -23.4910   -8.9330 C.2     1  UNL1        0.0180
      7  C         23.2650  -23.5340   -9.3990 C.2     1  UNL1        0.0190
      8  C         23.5990  -22.9410  -10.6240 C.2     1  UNL1        0.0450
      9  C         25.0150  -22.9630  -11.0830 C.2     1  UNL1        0.2940
     10  O         25.9130  -23.3310  -10.3380 O.2     1  UNL1       -0.2590
     11  O         25.2540  -22.5340  -12.3470 O.3     1  UNL1       -0.3070
     12  C         19.5390  -22.7730   -9.2310 C.2     1  UNL1        0.2560
     13  O         18.7500  -22.1260   -9.9080 O.2     1  UNL1       -0.2670
     14  N         19.2530  -23.4870   -8.0820 N.am    1  UNL1       -0.3230
     15  H         19.9820  -24.0830   -7.7150 H       1  UNL1        0.1690
     16  C         18.0160  -23.5550   -7.4040 C.2     1  UNL1        0.0350
     17  C         16.9410  -24.1290   -8.0940 C.2     1  UNL1        0.0290
     18  C         15.6840  -24.2360   -7.4960 C.2     1  UNL1        0.0030
     19  C         15.4890  -23.7730   -6.1980 C.2     1  UNL1        0.0160
     20  C         16.5530  -23.2050   -5.4830 C.2     1  UNL1        0.0500
     21  C         17.8130  -23.0980   -6.1010 C.2     1  UNL1        0.0450
     22  C         16.3590  -22.6860   -4.0800 C.3     1  UNL1        0.4170
     23  F         16.3450  -23.6830   -3.1530 F       1  UNL1       -0.1660
     24  F         17.3410  -21.8270   -3.6840 F       1  UNL1       -0.1660
     25  F         15.1890  -22.0050   -3.9220 F       1  UNL1       -0.1660
     26  C         24.6470  -21.7620  -14.5570 C.2     1  UNL1       -0.0290
     27  C         25.1790  -20.4650  -14.5170 C.2     1  UNL1        0.0100
     28  C         25.6610  -19.8550  -15.6780 C.2     1  UNL1        0.0070
     29  C         25.6130  -20.5260  -16.9050 C.2     1  UNL1       -0.0620
     30  C         26.1580  -19.8840  -18.1460 C.3     1  UNL1        0.0480
     31  C         25.1010  -21.8270  -16.9470 C.2     1  UNL1        0.0070
     32  C         24.6210  -22.4380  -15.7850 C.2     1  UNL1        0.0100
@<TRIPOS>BOND
     1    30    29    1
     2    31    29    2
     3    31    32    1
     4    29    28    1
     5    32    26    2
     6    28    27    2
     7    26    27    1
     8    26     1    1
     9     1     2    1
    10     1    11    1
    11     2     3    1
    12    11     9    1
    13     3     4    2
    14     3     8    1
    15     9     8    1
    16     9    10    2
    17     4     5    1
    18     8     7    2
    19    13    12    2
    20     5    12    1
    21     5     6    2
    22     7     6    1
    23    12    14   am
    24    17    18    1
    25    17    16    2
    26    14    15    1
    27    14    16    1
    28    18    19    2
    29    16    21    1
    30    19    20    1
    31    21    20    2
    32    20    22    1
    33    22    25    1
    34    22    24    1
    35    22    23    1
