@<TRIPOS>MOLECULE
30902_out_ligand_01.pdbqt
 35 38 0 0 0
SMALL
GASTEIGER

@<TRIPOS>ATOM
      1  C         19.7740  -21.7770  -11.2500 C.2     1  UNL1        0.0220
      2  C         19.9250  -22.7800  -10.2920 C.2     1  UNL1        0.0260
      3  C         18.8130  -23.2510   -9.5940 C.2     1  UNL1        0.0270
      4  C         17.5570  -22.6910   -9.8440 C.2     1  UNL1        0.0800
      5  C         17.3970  -21.6930  -10.8110 C.2     1  UNL1        0.0270
      6  C         18.5140  -21.2300  -11.5100 C.2     1  UNL1        0.0260
      7  S         16.1450  -23.2520   -8.9260 S.O2    1  UNL1        0.2630
      8  O         15.3920  -24.1750   -9.7450 O.2     1  UNL1       -0.2000
      9  O         15.5120  -22.0800   -8.3550 O.2     1  UNL1       -0.2000
     10  N         16.8530  -24.0710   -7.6300 N.pl3   1  UNL1       -0.2800
     11  H         17.7900  -24.4010   -7.8560 H       1  UNL1        0.1790
     12  C         16.6340  -23.5700   -6.3090 C.2     1  UNL1        0.0530
     13  C         15.5230  -24.0560   -5.6140 C.2     1  UNL1        0.0310
     14  C         15.2430  -23.5960   -4.3330 C.2     1  UNL1        0.0030
     15  C         16.0790  -22.6520   -3.7390 C.2     1  UNL1        0.0120
     16  C         17.2010  -22.1500   -4.4170 C.2     1  UNL1       -0.0240
     17  C         18.0330  -21.2000   -3.8040 C.2     1  UNL1        0.0120
     18  C         17.4930  -22.6030   -5.7280 C.2     1  UNL1        0.0010
     19  C         19.1480  -20.6870   -4.4670 C.2     1  UNL1        0.0010
     20  C         19.4420  -21.1140   -5.7550 C.2     1  UNL1        0.0010
     21  C         18.6260  -22.0600   -6.3790 C.2     1  UNL1        0.0140
     22  N         20.9420  -21.2460  -11.8950 N.pl3   1  UNL1       -0.1810
     23  H         20.9750  -20.2330  -11.7640 H       1  UNL1        0.1460
     24  S         22.3960  -21.8810  -11.2730 S.O2    1  UNL1        0.2480
     25  O         22.7570  -21.0260  -10.1610 O.2     1  UNL1       -0.2050
     26  O         22.3170  -23.3130  -11.1170 O.2     1  UNL1       -0.2050
     27  C         23.5310  -21.5410  -12.5880 C.2     1  UNL1        0.1070
     28  C         23.0220  -21.3160  -13.8760 C.2     1  UNL1        0.0270
     29  C         23.8820  -20.9640  -14.9210 C.2     1  UNL1        0.0020
     30  C         25.2510  -20.8190  -14.6880 C.2     1  UNL1        0.0030
     31  C         25.7670  -21.0280  -13.4100 C.2     1  UNL1        0.0380
     32  C         24.8990  -21.3860  -12.3660 C.2     1  UNL1        0.1250
     33  N         25.5010  -21.6320  -11.0730 N.pl3   1  UNL1       -0.1140
     34  O         25.6610  -22.8150  -10.7500 O.2     1  UNL1       -0.5320
     35  O         25.8860  -20.6430  -10.4380 O.2     1  UNL1       -0.5320
@<TRIPOS>BOND
     1    29    30    2
     2    29    28    1
     3    30    31    1
     4    28    27    2
     5    31    32    2
     6    27    32    1
     7    27    24    1
     8    32    33    1
     9    22    23    1
    10    22    24    1
    11    22     1    1
    12     6     1    2
    13     6     5    1
    14    24    26    2
    15    24    25    2
    16     1     2    1
    17    33    34    2
    18    33    35    2
    19     5     4    2
    20     2     3    2
    21     4     3    1
    22     4     7    1
    23     8     7    2
    24     7     9    2
    25     7    10    1
    26    11    10    1
    27    10    12    1
    28    21    20    2
    29    21    18    1
    30    12    18    2
    31    12    13    1
    32    20    19    1
    33    18    16    1
    34    13    14    2
    35    19    17    2
    36    16    17    1
    37    16    15    2
    38    14    15    1
