@<TRIPOS>MOLECULE
3090_out_ligand_01.pdbqt
 32 35 0 0 0
SMALL
GASTEIGER

@<TRIPOS>ATOM
      1  N         26.9080  -20.8750  -12.4420 N.1     1  UNL1       -0.1910
      2  C         25.9600  -21.3870  -12.0080 C.1     1  UNL1        0.1030
      3  C         24.8220  -22.0200  -11.4260 C.2     1  UNL1        0.0950
      4  C         24.9960  -22.8710  -10.3940 C.2     1  UNL1        0.1140
      5  C         23.5380  -21.7580  -11.9880 C.2     1  UNL1        0.1200
      6  N         22.3850  -21.8530  -11.3530 N.2     1  UNL1       -0.2390
      7  C         21.3150  -21.5560  -12.1870 C.2     1  UNL1        0.0750
      8  C         21.6740  -21.2560  -13.4840 C.2     1  UNL1        0.0840
      9  S         23.3750  -21.3300  -13.6620 S.3     1  UNL1       -0.0780
     10  C         19.9420  -21.5970  -11.6880 C.2     1  UNL1       -0.0060
     11  C         19.0490  -20.5850  -12.0560 C.2     1  UNL1        0.0140
     12  C         17.7280  -20.5890  -11.5970 C.2     1  UNL1        0.0130
     13  C         17.2670  -21.6140  -10.7590 C.2     1  UNL1       -0.0260
     14  C         15.9450  -21.6340  -10.2880 C.2     1  UNL1        0.0120
     15  C         18.1530  -22.6470  -10.3820 C.2     1  UNL1       -0.0250
     16  C         15.4990  -22.6620   -9.4560 C.2     1  UNL1        0.0010
     17  C         16.3690  -23.6820   -9.0860 C.2     1  UNL1        0.0010
     18  C         17.6870  -23.6760   -9.5460 C.2     1  UNL1        0.0120
     19  C         19.4800  -22.6270  -10.8530 C.2     1  UNL1        0.0260
     20  N         24.0720  -23.6290   -9.7080 N.pl3   1  UNL1       -0.3640
     21  H         24.2120  -24.6360   -9.7400 H       1  UNL1        0.1650
     22  C         22.9600  -23.2170   -8.9530 C.2     1  UNL1        0.0320
     23  C         21.8170  -24.0010   -8.7520 C.2     1  UNL1        0.0300
     24  C         20.7380  -23.5310   -7.9890 C.2     1  UNL1        0.0190
     25  C         20.7870  -22.2630   -7.4040 C.2     1  UNL1        0.0320
     26  C         21.9140  -21.4630   -7.6080 C.2     1  UNL1        0.0190
     27  C         22.9870  -21.9400   -8.3710 C.2     1  UNL1        0.0300
     28  C         19.6710  -21.7170   -6.5860 C.2     1  UNL1        0.2490
     29  N         19.9690  -20.7340   -5.6840 N.am    1  UNL1       -0.3660
     30  H         19.1720  -20.2950   -5.2380 H       1  UNL1        0.1590
     31  H         20.8220  -20.1980   -5.7340 H       1  UNL1        0.1590
     32  O         18.5180  -22.1010   -6.7350 O.2     1  UNL1       -0.2680
@<TRIPOS>BOND
     1     9     8    1
     2     9     5    1
     3     8     7    2
     4     1     2    3
     5     7    10    1
     6     7     6    1
     7    11    10    2
     8    11    12    1
     9     2     3    1
    10     5     3    1
    11     5     6    2
    12    10    19    1
    13    12    13    2
    14     3     4    2
    15    19    15    2
    16    13    15    1
    17    13    14    1
    18     4    20    1
    19    15    18    1
    20    14    16    2
    21    21    20    1
    22    20    22    1
    23    18    17    2
    24    16    17    1
    25    22    23    2
    26    22    27    1
    27    23    24    1
    28    27    26    2
    29    24    25    2
    30    26    25    1
    31    25    28    1
    32    32    28    2
    33    28    29   am
    34    31    29    1
    35    29    30    1
