@<TRIPOS>MOLECULE
30910_out_ligand_01.pdbqt
 33 36 0 0 0
SMALL
GASTEIGER

@<TRIPOS>ATOM
      1  C         17.7620  -23.6000   -8.6000 C.2     1  UNL1        0.0860
      2  C         19.1410  -23.8440   -8.4670 C.2     1  UNL1        0.0420
      3  C         20.0440  -23.3010   -9.3820 C.2     1  UNL1        0.0330
      4  C         19.5670  -22.5190  -10.4360 C.2     1  UNL1        0.0170
      5  C         18.1990  -22.2640  -10.5620 C.2     1  UNL1        0.0090
      6  C         17.2720  -22.8000   -9.6520 C.2     1  UNL1       -0.0390
      7  C         15.8180  -22.4720   -9.8480 C.3     1  UNL1        0.0500
      8  C         21.5100  -23.5480   -9.2900 C.2     1  UNL1        0.2510
      9  O         21.9220  -24.6240   -8.8700 O.2     1  UNL1       -0.2680
     10  N         22.3320  -22.5300   -9.7220 N.am    1  UNL1       -0.3530
     11  H         21.9370  -21.7690  -10.2570 H       1  UNL1        0.1630
     12  C         23.7650  -22.7030   -9.8070 C.3     1  UNL1        0.1610
     13  C         24.2950  -22.1310  -11.0980 C.2     1  UNL1       -0.0380
     14  C         25.5760  -21.5320  -11.1450 C.2     1  UNL1        0.0120
     15  C         26.0660  -20.9760  -12.3310 C.2     1  UNL1        0.0400
     16  C         25.2580  -21.0280  -13.4450 C.2     1  UNL1        0.1050
     17  C         24.0080  -21.6000  -13.4090 C.2     1  UNL1        0.1050
     18  O         25.5700  -20.5370  -14.6750 O.2     1  UNL1       -0.3230
     19  C         23.4970  -22.1550  -12.2550 C.2     1  UNL1        0.0480
     20  O         23.3760  -21.5400  -14.6110 O.2     1  UNL1       -0.3230
     21  C         24.3720  -20.8690  -15.4090 C.3     1  UNL1        0.3520
     22  S         16.6930  -24.3220   -7.3570 S.O2    1  UNL1        0.2630
     23  O         17.5050  -25.0980   -6.4440 O.2     1  UNL1       -0.2000
     24  O         15.5780  -24.9410   -8.0440 O.2     1  UNL1       -0.2000
     25  N         16.1470  -22.9800   -6.4930 N.pl3   1  UNL1       -0.2800
     26  H         15.1380  -22.9760   -6.3690 H       1  UNL1        0.1790
     27  C         16.9640  -22.3980   -5.4790 C.2     1  UNL1        0.0480
     28  C         18.0450  -21.5920   -5.8480 C.2     1  UNL1        0.0300
     29  C         18.8850  -21.0450   -4.8790 C.2     1  UNL1        0.0020
     30  C         18.6440  -21.2980   -3.5330 C.2     1  UNL1        0.0010
     31  C         17.5570  -22.0860   -3.1550 C.2     1  UNL1        0.0090
     32  C         16.6960  -22.6370   -4.1200 C.2     1  UNL1       -0.0350
     33  C         15.5440  -23.4820   -3.6600 C.3     1  UNL1        0.0500
@<TRIPOS>BOND
     1    21    18    1
     2    21    20    1
     3    18    16    1
     4    20    17    1
     5    16    17    2
     6    16    15    1
     7    17    19    1
     8    15    14    2
     9    19    13    2
    10    14    13    1
    11    13    12    1
    12     5     4    2
    13     5     6    1
    14     4     3    1
    15    11    10    1
    16     7     6    1
    17    12    10    1
    18    10     8   am
    19     6     1    2
    20     3     8    1
    21     3     2    2
    22     8     9    2
    23     1     2    1
    24     1    22    1
    25    24    22    2
    26    22    25    1
    27    22    23    2
    28    25    26    1
    29    25    27    1
    30    28    27    2
    31    28    29    1
    32    27    32    1
    33    29    30    2
    34    32    33    1
    35    32    31    2
    36    30    31    1
