@<TRIPOS>MOLECULE
30911_out_ligand_01.pdbqt
 36 39 0 0 0
SMALL
GASTEIGER

@<TRIPOS>ATOM
      1  C         19.1240  -23.2790   -6.9160 C.2     1  UNL1        0.0740
      2  C         20.0240  -22.2100   -6.9640 C.2     1  UNL1        0.0260
      3  C         21.0440  -22.2170   -7.9170 C.2     1  UNL1        0.0260
      4  C         21.1410  -23.2710   -8.8270 C.2     1  UNL1        0.0220
      5  C         20.2380  -24.3360   -8.7790 C.2     1  UNL1        0.0260
      6  C         19.2180  -24.3370   -7.8250 C.2     1  UNL1        0.0260
      7  S         17.8300  -23.2900   -5.6950 S.O2    1  UNL1        0.2450
      8  O         18.3450  -22.6510   -4.5040 O.2     1  UNL1       -0.2060
      9  O         17.2570  -24.6200   -5.6700 O.2     1  UNL1       -0.2060
     10  N         16.6910  -22.2660   -6.4490 N.pl3   1  UNL1       -0.1810
     11  H         16.9910  -21.3000   -6.3060 H       1  UNL1        0.1460
     12  C         16.4920  -22.5500   -7.8390 C.2     1  UNL1        0.0230
     13  C         15.6920  -23.6240   -8.2300 C.2     1  UNL1        0.0240
     14  C         15.4620  -23.8570   -9.5860 C.2     1  UNL1        0.0030
     15  C         16.0210  -23.0080  -10.5470 C.2     1  UNL1        0.0160
     16  C         16.8210  -21.9190  -10.1620 C.2     1  UNL1        0.0490
     17  C         17.0390  -21.6890   -8.7940 C.2     1  UNL1        0.0400
     18  C         17.4090  -20.9830  -11.1910 C.3     1  UNL1        0.4170
     19  F         18.7190  -20.6940  -10.9550 F       1  UNL1       -0.1660
     20  F         16.7630  -19.7840  -11.2390 F       1  UNL1       -0.1660
     21  F         17.3680  -21.4840  -12.4590 F       1  UNL1       -0.1660
     22  N         22.2450  -23.2970   -9.7400 N.pl3   1  UNL1       -0.1810
     23  H         23.1010  -23.5790   -9.2570 H       1  UNL1        0.1460
     24  S         22.5710  -21.7760  -10.4540 S.O2    1  UNL1        0.2450
     25  O         23.3770  -21.0400   -9.5010 O.2     1  UNL1       -0.2060
     26  O         21.3580  -21.2230  -11.0200 O.2     1  UNL1       -0.2060
     27  C         23.6120  -22.2690  -11.8070 C.2     1  UNL1        0.0770
     28  C         24.6130  -23.2250  -11.5840 C.2     1  UNL1        0.0280
     29  C         25.4130  -23.6420  -12.6480 C.2     1  UNL1        0.0410
     30  C         25.2120  -23.1040  -13.9200 C.2     1  UNL1        0.1020
     31  C         24.1890  -22.1740  -14.1390 C.2     1  UNL1        0.1030
     32  O         26.0530  -23.5450  -14.9090 O.2     1  UNL1       -0.3460
     33  C         23.3840  -21.7500  -13.0830 C.2     1  UNL1        0.0640
     34  O         23.9250  -21.6290  -15.3750 O.2     1  UNL1       -0.3460
     35  C         24.5390  -22.3950  -16.4200 C.3     1  UNL1        0.2020
     36  C         25.9870  -22.7060  -16.0710 C.3     1  UNL1        0.2020
@<TRIPOS>BOND
     1    35    36    1
     2    35    34    1
     3    36    32    1
     4    34    31    1
     5    32    30    1
     6    31    30    2
     7    31    33    1
     8    30    29    1
     9    33    27    2
    10    29    28    2
    11    21    18    1
    12    27    28    1
    13    27    24    1
    14    20    18    1
    15    18    19    1
    16    18    16    1
    17    26    24    2
    18    15    16    2
    19    15    14    1
    20    24    22    1
    21    24    25    2
    22    16    17    1
    23    22    23    1
    24    22     4    1
    25    14    13    2
    26     4     5    2
    27     4     3    1
    28    17    12    2
    29     5     6    1
    30    13    12    1
    31     3     2    2
    32    12    10    1
    33     6     1    2
    34     2     1    1
    35     1     7    1
    36    10    11    1
    37    10     7    1
    38     7     9    2
    39     7     8    2
