@<TRIPOS>MOLECULE
30917_out_ligand_01.pdbqt
 36 40 0 0 0
SMALL
GASTEIGER

@<TRIPOS>ATOM
      1  O         22.9870  -21.7100   -9.8510 O.2     1  UNL1       -0.2670
      2  C         22.5600  -22.2090  -10.8850 C.2     1  UNL1        0.2560
      3  N         21.3850  -22.9270  -11.0310 N.am    1  UNL1       -0.3230
      4  H         21.2150  -23.3510  -11.9320 H       1  UNL1        0.1690
      5  C         23.3820  -22.0810  -12.1250 C.2     1  UNL1        0.0320
      6  C         24.6290  -22.7050  -12.2630 C.2     1  UNL1        0.0170
      7  C         25.3730  -22.5300  -13.4340 C.2     1  UNL1        0.0100
      8  C         24.8750  -21.7550  -14.4930 C.2     1  UNL1       -0.0300
      9  C         23.6180  -21.1490  -14.3540 C.2     1  UNL1        0.0100
     10  C         22.8760  -21.3150  -13.1820 C.2     1  UNL1        0.0170
     11  C         25.6990  -21.5300  -15.7460 C.3     1  UNL1        0.3110
     12  N         26.3220  -20.1980  -15.8200 N.3     1  UNL1        0.0970
     13  C         26.1130  -19.4650  -14.5600 C.3     1  UNL1        0.2770
     14  C         26.9270  -18.1650  -14.5490 C.3     1  UNL1        0.0690
     15  C         26.7320  -17.3540  -15.8040 C.2     1  UNL1       -0.0490
     16  C         27.1190  -16.0080  -15.8400 C.2     1  UNL1        0.0070
     17  C         26.2190  -17.9660  -16.9610 C.2     1  UNL1       -0.0240
     18  C         26.9710  -15.2640  -17.0100 C.2     1  UNL1        0.0010
     19  C         26.4420  -15.8600  -18.1530 C.2     1  UNL1        0.0010
     20  C         26.0660  -17.2040  -18.1280 C.2     1  UNL1        0.0090
     21  C         25.7650  -19.4130  -16.9420 C.3     1  UNL1        0.3110
     22  C         20.4250  -23.2170  -10.0390 C.2     1  UNL1        0.0350
     23  C         20.5710  -24.2180   -9.0740 C.2     1  UNL1        0.0310
     24  C         19.5670  -24.4470   -8.1270 C.2     1  UNL1        0.0270
     25  C         18.4200  -23.6530   -8.1320 C.2     1  UNL1        0.0740
     26  C         18.2550  -22.6540   -9.0930 C.2     1  UNL1        0.0270
     27  C         19.2570  -22.4400  -10.0420 C.2     1  UNL1        0.0310
     28  S         17.1300  -23.9310   -6.9430 S.O2    1  UNL1        0.2430
     29  O         15.8690  -23.8220   -7.6490 O.2     1  UNL1       -0.2060
     30  O         17.4550  -25.1140   -6.1740 O.2     1  UNL1       -0.2060
     31  N         17.2820  -22.5780   -5.9060 N.3     1  UNL1       -0.2060
     32  C         18.6780  -22.1180   -5.6600 C.3     1  UNL1        0.1070
     33  C         18.7160  -21.1040   -4.5260 C.3     1  UNL1        0.0150
     34  C         18.2660  -21.7340   -3.2110 C.3     1  UNL1        0.0020
     35  C         17.2520  -22.8570   -3.4250 C.3     1  UNL1        0.0150
     36  C         16.4250  -22.6400   -4.6840 C.3     1  UNL1        0.1070
@<TRIPOS>BOND
     1    19    20    2
     2    19    18    1
     3    20    17    1
     4    18    16    2
     5    17    21    1
     6    17    15    2
     7    21    12    1
     8    16    15    1
     9    12    11    1
    10    12    13    1
    11    15    14    1
    12    11     8    1
    13    13    14    1
    14     8     9    2
    15     8     7    1
    16     9    10    1
    17     7     6    2
    18    10     5    2
    19     6     5    1
    20     5     2    1
    21     4     3    1
    22     3     2   am
    23     3    22    1
    24     2     1    2
    25    27    22    2
    26    27    26    1
    27    22    23    1
    28    26    25    2
    29    23    24    2
    30    25    24    1
    31    25    28    1
    32    29    28    2
    33    28    30    2
    34    28    31    1
    35    31    32    1
    36    31    36    1
    37    32    33    1
    38    36    35    1
    39    33    34    1
    40    35    34    1
