@<TRIPOS>MOLECULE
30916_out_ligand_01.pdbqt
 29 32 0 0 0
SMALL
GASTEIGER

@<TRIPOS>ATOM
      1  C         21.4600  -21.9770  -11.5930 C.2     1  UNL1        0.0320
      2  C         20.3400  -21.2190  -11.9490 C.2     1  UNL1        0.0170
      3  C         19.1110  -21.4600  -11.3280 C.2     1  UNL1        0.0100
      4  C         18.9850  -22.4600  -10.3510 C.2     1  UNL1       -0.0300
      5  C         20.1200  -23.1950   -9.9810 C.2     1  UNL1        0.0100
      6  C         21.3510  -22.9530  -10.5960 C.2     1  UNL1        0.0170
      7  C         22.7880  -21.7620  -12.2320 C.2     1  UNL1        0.2560
      8  N         22.7400  -21.4800  -13.5850 N.am    1  UNL1       -0.3230
      9  H         21.8360  -21.5470  -14.0330 H       1  UNL1        0.1690
     10  O         23.7910  -21.8910  -11.5390 O.2     1  UNL1       -0.2670
     11  C         23.8270  -21.2210  -14.4470 C.2     1  UNL1        0.0350
     12  C         24.1410  -22.2020  -15.3910 C.2     1  UNL1        0.0300
     13  C         25.2050  -22.0230  -16.2790 C.2     1  UNL1        0.0090
     14  C         25.9770  -20.8540  -16.2460 C.2     1  UNL1       -0.0560
     15  C         27.1200  -20.6950  -17.2110 C.3     1  UNL1        0.0490
     16  C         25.6700  -19.8590  -15.3000 C.2     1  UNL1       -0.0540
     17  C         24.5920  -20.0540  -14.4130 C.2     1  UNL1        0.0370
     18  C         26.4630  -18.5820  -15.2170 C.3     1  UNL1        0.0490
     19  C         17.6540  -22.7150   -9.6710 C.3     1  UNL1        0.3110
     20  N         17.7780  -23.1140   -8.2580 N.3     1  UNL1        0.0970
     21  C         16.5480  -23.7920   -7.8140 C.3     1  UNL1        0.2770
     22  C         16.7260  -24.3880   -6.4100 C.3     1  UNL1        0.0690
     23  C         17.3290  -23.4080   -5.4360 C.2     1  UNL1       -0.0490
     24  C         17.2840  -23.6640   -4.0600 C.2     1  UNL1        0.0070
     25  C         17.9840  -22.2590   -5.9120 C.2     1  UNL1       -0.0240
     26  C         17.8590  -22.7710   -3.1570 C.2     1  UNL1        0.0010
     27  C         18.4870  -21.6190   -3.6220 C.2     1  UNL1        0.0010
     28  C         18.5480  -21.3620   -4.9920 C.2     1  UNL1        0.0090
     29  C         18.0240  -21.9400   -7.3930 C.3     1  UNL1        0.3110
@<TRIPOS>BOND
     1    15    14    1
     2    13    14    2
     3    13    12    1
     4    14    16    1
     5    12    11    2
     6    16    18    1
     7    16    17    2
     8    11    17    1
     9    11     8    1
    10     9     8    1
    11     8     7   am
    12     7     1    1
    13     7    10    2
    14     2     1    2
    15     2     3    1
    16     1     6    1
    17     3     4    2
    18     6     5    2
    19     4     5    1
    20     4    19    1
    21    19    20    1
    22    20    21    1
    23    20    29    1
    24    21    22    1
    25    29    25    1
    26    22    23    1
    27    25    23    2
    28    25    28    1
    29    23    24    1
    30    28    27    2
    31    24    26    2
    32    27    26    1
