@<TRIPOS>MOLECULE
30915_out_ligand_01.pdbqt
 29 32 0 0 0
SMALL
GASTEIGER

@<TRIPOS>ATOM
      1  C         21.7310  -22.5070  -10.5780 C.2     1  UNL1        0.0320
      2  C         21.2930  -23.5570   -9.7610 C.2     1  UNL1        0.0170
      3  C         19.9340  -23.6890   -9.4610 C.2     1  UNL1        0.0100
      4  C         18.9960  -22.7730   -9.9600 C.2     1  UNL1       -0.0300
      5  C         19.4460  -21.7200  -10.7720 C.2     1  UNL1        0.0100
      6  C         20.8040  -21.5850  -11.0730 C.2     1  UNL1        0.0170
      7  C         23.1680  -22.3220  -10.9250 C.2     1  UNL1        0.2510
      8  N         23.7260  -23.2800  -11.7450 N.am    1  UNL1       -0.3530
      9  H         23.1120  -23.9050  -12.2460 H       1  UNL1        0.1630
     10  O         23.7770  -21.3430  -10.5100 O.2     1  UNL1       -0.2680
     11  C         25.0620  -23.1290  -12.2770 C.3     1  UNL1        0.1610
     12  C         25.0200  -22.8630  -13.7590 C.2     1  UNL1       -0.0410
     13  C         25.2670  -23.8880  -14.6820 C.2     1  UNL1        0.0090
     14  C         25.2040  -23.6360  -16.0550 C.2     1  UNL1        0.0070
     15  C         24.8990  -22.3560  -16.5290 C.2     1  UNL1       -0.0620
     16  C         24.7990  -22.0940  -18.0030 C.3     1  UNL1        0.0480
     17  C         24.6300  -21.3370  -15.6100 C.2     1  UNL1        0.0070
     18  C         24.6930  -21.5870  -14.2370 C.2     1  UNL1        0.0090
     19  C         17.5220  -22.9160   -9.6340 C.3     1  UNL1        0.3110
     20  N         17.1460  -22.8970   -8.2160 N.3     1  UNL1        0.0970
     21  C         16.6420  -24.1750   -7.7090 C.3     1  UNL1        0.2770
     22  C         15.9360  -23.9710   -6.3600 C.3     1  UNL1        0.0690
     23  C         16.7420  -23.1340   -5.3990 C.2     1  UNL1       -0.0490
     24  C         16.4060  -23.1030   -4.0380 C.2     1  UNL1        0.0070
     25  C         17.7950  -22.3340   -5.8770 C.2     1  UNL1       -0.0240
     26  C         17.1270  -22.3030   -3.1540 C.2     1  UNL1        0.0010
     27  C         18.1830  -21.5250   -3.6200 C.2     1  UNL1        0.0010
     28  C         18.5190  -21.5420   -4.9740 C.2     1  UNL1        0.0090
     29  C         18.2030  -22.3780   -7.3370 C.3     1  UNL1        0.3110
@<TRIPOS>BOND
     1    16    15    1
     2    15    14    2
     3    15    17    1
     4    14    13    1
     5    17    18    2
     6    13    12    2
     7    18    12    1
     8    12    11    1
     9    11     8    1
    10     9     8    1
    11     8     7   am
    12     6     5    1
    13     6     1    2
    14     7     1    1
    15     7    10    2
    16     5     4    2
    17     1     2    1
    18     4    19    1
    19     4     3    1
    20     2     3    2
    21    19    20    1
    22    20    21    1
    23    20    29    1
    24    21    22    1
    25    29    25    1
    26    22    23    1
    27    25    23    2
    28    25    28    1
    29    23    24    1
    30    28    27    2
    31    24    26    2
    32    27    26    1
