@<TRIPOS>MOLECULE
30927_out_ligand_01.pdbqt
 37 41 0 0 0
SMALL
GASTEIGER

@<TRIPOS>ATOM
      1  C         22.3460  -22.2870  -12.1390 C.3     1  UNL1        0.1010
      2  N         21.2820  -21.2790  -12.1870 N.pl3   1  UNL1       -0.2830
      3  C         20.0920  -21.6680  -11.5470 C.2     1  UNL1        0.0160
      4  C         18.8880  -21.0560  -11.9250 C.2     1  UNL1        0.0250
      5  C         17.6870  -21.3890  -11.2960 C.2     1  UNL1        0.0270
      6  C         17.6920  -22.3320  -10.2710 C.2     1  UNL1        0.0800
      7  C         18.8920  -22.8960   -9.8300 C.2     1  UNL1        0.0350
      8  C         20.1030  -22.5510  -10.4510 C.2     1  UNL1       -0.0270
      9  C         21.4040  -23.1440   -9.9510 C.3     1  UNL1        0.0490
     10  C         21.6980  -22.7720   -8.5210 C.3     1  UNL1       -0.0210
     11  C         22.6320  -21.8190   -8.4350 C.3     1  UNL1       -0.0290
     12  C         23.1200  -21.4120   -9.7880 C.3     1  UNL1        0.0340
     13  C         22.6610  -22.5930  -10.6670 C.3     1  UNL1        0.0240
     14  H         21.1070  -20.9830  -13.1500 H       1  UNL1        0.1280
     15  S         16.1640  -22.7900   -9.4860 S.O2    1  UNL1        0.2630
     16  O         16.3200  -24.1340   -8.9730 O.2     1  UNL1       -0.2000
     17  O         15.0750  -22.4510  -10.3780 O.2     1  UNL1       -0.2000
     18  N         16.1180  -21.7770   -8.1320 N.pl3   1  UNL1       -0.2810
     19  H         15.2790  -21.2010   -8.1230 H       1  UNL1        0.1790
     20  C         16.5990  -22.2660   -6.8860 C.2     1  UNL1        0.0430
     21  C         17.9470  -22.1770   -6.5570 C.2     1  UNL1        0.0300
     22  C         18.4030  -22.7030   -5.3490 C.2     1  UNL1        0.0090
     23  C         17.5180  -23.3280   -4.4550 C.2     1  UNL1       -0.0560
     24  C         18.0480  -23.8690   -3.1530 C.3     1  UNL1        0.0490
     25  C         16.1520  -23.4110   -4.7850 C.2     1  UNL1       -0.0540
     26  C         15.1600  -24.0720   -3.8680 C.3     1  UNL1        0.0490
     27  C         15.7060  -22.8790   -6.0070 C.2     1  UNL1        0.0370
     28  C         23.4960  -21.8790  -13.0600 C.2     1  UNL1       -0.0040
     29  C         23.4190  -20.7860  -13.9340 C.2     1  UNL1        0.0120
     30  C         24.4980  -20.4330  -14.7500 C.2     1  UNL1        0.0030
     31  C         25.6850  -21.1620  -14.7120 C.2     1  UNL1        0.0390
     32  C         25.8130  -22.2450  -13.8440 C.2     1  UNL1        0.1020
     33  C         24.7320  -22.5690  -12.9970 C.2     1  UNL1        0.1090
     34  O         26.9310  -23.0300  -13.7450 O.2     1  UNL1       -0.3530
     35  C         27.0380  -24.1250  -14.6440 C.3     1  UNL1        0.2100
     36  O         24.8210  -23.6240  -12.1110 O.2     1  UNL1       -0.3520
     37  C         25.7560  -23.3520  -11.0640 C.3     1  UNL1        0.2100
@<TRIPOS>BOND
     1    30    31    2
     2    30    29    1
     3    31    32    1
     4    35    34    1
     5    29    28    2
     6    32    34    1
     7    32    33    2
     8    14     2    1
     9    28    33    1
    10    28     1    1
    11    33    36    1
    12     2     1    1
    13     2     3    1
    14     1    13    1
    15    36    37    1
    16     4     3    2
    17     4     5    1
    18     3     8    1
    19     5     6    2
    20    13     9    1
    21    13    12    1
    22     8     9    1
    23     8     7    2
    24    17    15    2
    25     6     7    1
    26     6    15    1
    27     9    10    1
    28    12    11    1
    29    15    16    2
    30    15    18    1
    31    10    11    1
    32    18    19    1
    33    18    20    1
    34    20    21    2
    35    20    27    1
    36    21    22    1
    37    27    25    2
    38    22    23    2
    39    25    23    1
    40    25    26    1
    41    23    24    1
