@<TRIPOS>MOLECULE
30929_out_ligand_01.pdbqt
 29 32 0 0 0
SMALL
GASTEIGER

@<TRIPOS>ATOM
      1  C         21.5440  -22.1440  -11.5780 C.2     1  UNL1        0.0320
      2  C         20.4070  -21.4870  -12.0560 C.2     1  UNL1        0.0170
      3  C         19.1700  -21.6970  -11.4440 C.2     1  UNL1        0.0100
      4  C         19.0550  -22.5580  -10.3410 C.2     1  UNL1       -0.0300
      5  C         20.2040  -23.1960   -9.8530 C.2     1  UNL1        0.0100
      6  C         21.4440  -22.9910  -10.4650 C.2     1  UNL1        0.0170
      7  C         22.8460  -21.8980  -12.2560 C.2     1  UNL1        0.2560
      8  O         23.8800  -22.0970  -11.6300 O.2     1  UNL1       -0.2670
      9  N         22.7430  -21.4210  -13.5510 N.am    1  UNL1       -0.3230
     10  H         21.8140  -21.1770  -13.8710 H       1  UNL1        0.1690
     11  C         23.7980  -21.1360  -14.4440 C.2     1  UNL1        0.0360
     12  C         23.9930  -22.0300  -15.5040 C.2     1  UNL1        0.0310
     13  C         25.0200  -21.8240  -16.4310 C.2     1  UNL1        0.0280
     14  C         25.8660  -20.7230  -16.3060 C.2     1  UNL1        0.0550
     15 CL         27.1140  -20.5290  -17.4840 Cl      1  UNL1       -0.0830
     16  C         25.6820  -19.8270  -15.2480 C.2     1  UNL1        0.0580
     17 CL         26.6960  -18.4440  -15.0270 Cl      1  UNL1       -0.0820
     18  C         24.6520  -20.0360  -14.3220 C.2     1  UNL1        0.0550
     19  C         17.7100  -22.7650   -9.6720 C.3     1  UNL1        0.3110
     20  N         17.8180  -23.1420   -8.2530 N.3     1  UNL1        0.0970
     21  C         16.5800  -23.7960   -7.8030 C.3     1  UNL1        0.2770
     22  C         16.7530  -24.3730   -6.3910 C.3     1  UNL1        0.0690
     23  C         17.3340  -23.3730   -5.4280 C.2     1  UNL1       -0.0490
     24  C         17.2530  -23.5920   -4.0470 C.2     1  UNL1        0.0070
     25  C         18.0140  -22.2440   -5.9190 C.2     1  UNL1       -0.0240
     26  C         17.8210  -22.6840   -3.1550 C.2     1  UNL1        0.0010
     27  C         18.4800  -21.5550   -3.6360 C.2     1  UNL1        0.0010
     28  C         18.5740  -21.3340   -5.0090 C.2     1  UNL1        0.0090
     29  C         18.0920  -21.9640   -7.4060 C.3     1  UNL1        0.3110
@<TRIPOS>BOND
     1    15    14    1
     2    13    14    2
     3    13    12    1
     4    14    16    1
     5    12    11    2
     6    16    17    1
     7    16    18    2
     8    11    18    1
     9    11     9    1
    10    10     9    1
    11     9     7   am
    12     7     8    2
    13     7     1    1
    14     2     1    2
    15     2     3    1
    16     1     6    1
    17     3     4    2
    18     6     5    2
    19     4     5    1
    20     4    19    1
    21    19    20    1
    22    20    21    1
    23    20    29    1
    24    21    22    1
    25    29    25    1
    26    22    23    1
    27    25    23    2
    28    25    28    1
    29    23    24    1
    30    28    27    2
    31    24    26    2
    32    27    26    1
