@<TRIPOS>MOLECULE
30930_out_ligand_01.pdbqt
 37 42 0 0 0
SMALL
GASTEIGER

@<TRIPOS>ATOM
      1  C         20.7660  -23.6560   -8.8750 C.2     1  UNL1        0.2560
      2  O         21.0800  -24.8100   -9.1410 O.2     1  UNL1       -0.2670
      3  N         21.2460  -22.5020   -9.4700 N.am    1  UNL1       -0.3230
      4  H         21.0530  -21.6290   -8.9940 H       1  UNL1        0.1690
      5  C         19.7950  -23.4190   -7.7660 C.2     1  UNL1        0.0320
      6  C         19.0090  -24.4610   -7.2590 C.2     1  UNL1        0.0190
      7  C         18.1190  -24.2150   -6.2120 C.2     1  UNL1        0.0310
      8  C         18.0320  -22.9410   -5.6470 C.2     1  UNL1        0.0440
      9  C         18.8130  -21.8980   -6.1500 C.2     1  UNL1        0.0310
     10  C         19.7050  -22.1400   -7.1990 C.2     1  UNL1        0.0190
     11  N         17.0460  -22.7450   -4.6210 N.pl3   1  UNL1       -0.2760
     12  C         17.4330  -23.2570   -3.2870 C.3     1  UNL1        0.1700
     13  S         15.4280  -23.0650   -5.0920 S.O2    1  UNL1        0.2640
     14  O         14.6280  -21.8940   -4.7860 O.2     1  UNL1       -0.2000
     15  O         15.0410  -24.3810   -4.6300 O.2     1  UNL1       -0.2000
     16  C         15.6020  -23.1760   -6.8630 C.2     1  UNL1        0.0800
     17  C         15.4040  -24.4210   -7.4750 C.2     1  UNL1        0.0250
     18  C         15.5470  -24.5360   -8.8580 C.2     1  UNL1        0.0020
     19  C         15.8830  -23.4130   -9.6180 C.2     1  UNL1        0.0000
     20  C         16.0520  -22.1680   -9.0050 C.2     1  UNL1        0.0020
     21  C         15.9050  -22.0420   -7.6220 C.2     1  UNL1        0.0250
     22  C         22.0260  -22.4000  -10.6380 C.2     1  UNL1        0.0350
     23  C         21.5970  -21.7920  -11.8150 C.2     1  UNL1        0.0300
     24  C         22.4610  -21.6800  -12.9130 C.2     1  UNL1        0.0100
     25  C         23.7780  -22.1790  -12.8770 C.2     1  UNL1       -0.0490
     26  C         24.1890  -22.7960  -11.6870 C.2     1  UNL1        0.0100
     27  C         23.3290  -22.9010  -10.5850 C.2     1  UNL1        0.0300
     28  C         24.7030  -22.0130  -14.0930 C.3     1  UNL1       -0.0120
     29  C         24.8400  -23.3570  -14.8700 C.3     1  UNL1        0.0190
     30  C         25.7140  -23.1900  -16.1250 C.3     1  UNL1       -0.0130
     31  C         25.0820  -22.1320  -17.0460 C.3     1  UNL1        0.0090
     32  C         27.1190  -22.7320  -15.7100 C.3     1  UNL1        0.0090
     33  C         24.9910  -20.7820  -16.3120 C.3     1  UNL1       -0.0130
     34  C         26.4010  -20.3360  -15.8960 C.3     1  UNL1        0.0090
     35  C         24.1130  -20.9440  -15.0580 C.3     1  UNL1        0.0190
     36  C         27.0310  -21.3880  -14.9720 C.3     1  UNL1       -0.0130
     37  C         26.1500  -21.5520  -13.7220 C.3     1  UNL1        0.0190
@<TRIPOS>BOND
     1    31    33    1
     2    31    30    1
     3    33    34    1
     4    33    35    1
     5    30    32    1
     6    30    29    1
     7    34    36    1
     8    32    36    1
     9    35    28    1
    10    36    37    1
    11    29    28    1
    12    28    37    1
    13    28    25    1
    14    24    25    2
    15    24    23    1
    16    25    26    1
    17    23    22    2
    18    26    27    2
    19    22    27    1
    20    22     3    1
    21    19    20    2
    22    19    18    1
    23     3     4    1
    24     3     1   am
    25     2     1    2
    26    20    21    1
    27     1     5    1
    28    18    17    2
    29     5     6    2
    30     5    10    1
    31    21    16    2
    32    17    16    1
    33     6     7    1
    34    10     9    2
    35    16    13    1
    36     7     8    2
    37     9     8    1
    38     8    11    1
    39    13    14    2
    40    13    15    2
    41    13    11    1
    42    11    12    1
