@<TRIPOS>MOLECULE
30946_out_ligand_01.pdbqt
 30 32 0 0 0
SMALL
GASTEIGER

@<TRIPOS>ATOM
      1  C         20.0660  -22.2750  -10.5150 C.2     1  UNL1        0.0500
      2  C         21.3260  -22.8890  -10.5260 C.2     1  UNL1        0.0320
      3  C         22.2790  -22.5580  -11.4910 C.2     1  UNL1        0.0190
      4  C         21.9820  -21.5940  -12.4560 C.2     1  UNL1        0.0320
      5  C         20.7170  -20.9880  -12.4550 C.2     1  UNL1        0.0260
      6  C         19.7490  -21.3050  -11.4810 C.2     1  UNL1       -0.0340
      7  C         18.4100  -20.6310  -11.5810 C.3     1  UNL1        0.0500
      8  N         19.1840  -22.6980   -9.4620 N.pl3   1  UNL1       -0.2760
      9  C         17.8690  -23.2310   -9.8650 C.3     1  UNL1        0.1700
     10  S         19.9320  -23.4180   -8.1080 S.O2    1  UNL1        0.2650
     11  O         20.0670  -24.8400   -8.3560 O.2     1  UNL1       -0.2000
     12  O         21.0660  -22.6170   -7.6950 O.2     1  UNL1       -0.2000
     13  C         18.6790  -23.2100   -6.8580 C.2     1  UNL1        0.0800
     14  C         18.6630  -22.0320   -6.1080 C.2     1  UNL1        0.0260
     15  C         17.6890  -21.8580   -5.1240 C.2     1  UNL1        0.0080
     16  C         16.7440  -22.8630   -4.8760 C.2     1  UNL1       -0.0620
     17  C         15.6790  -22.6610   -3.8370 C.3     1  UNL1        0.0480
     18  C         16.7730  -24.0390   -5.6400 C.2     1  UNL1        0.0080
     19  C         17.7440  -24.2200   -6.6260 C.2     1  UNL1        0.0260
     20  C         22.9550  -21.2000  -13.5140 C.2     1  UNL1        0.2510
     21  O         22.6270  -20.4050  -14.3880 O.2     1  UNL1       -0.2680
     22  N         24.2210  -21.7390  -13.4190 N.am    1  UNL1       -0.3530
     23  H         24.4970  -22.1890  -12.5580 H       1  UNL1        0.1630
     24  C         25.2800  -21.3190  -14.3100 C.3     1  UNL1        0.1620
     25  C         25.0840  -21.8850  -15.6860 C.2     1  UNL1       -0.0230
     26  C         25.0600  -21.0700  -16.8210 C.2     1  UNL1        0.0120
     27  C         24.8580  -21.6400  -18.0750 C.2     1  UNL1        0.0200
     28  C         24.6810  -23.0110  -18.1530 C.2     1  UNL1        0.1160
     29  N         24.6870  -23.8300  -17.0800 N.2     1  UNL1       -0.2730
     30  C         24.8860  -23.2510  -15.8730 C.2     1  UNL1        0.1240
@<TRIPOS>BOND
     1    28    27    2
     2    28    29    1
     3    27    26    1
     4    29    30    2
     5    26    25    2
     6    30    25    1
     7    25    24    1
     8    21    20    2
     9    24    22    1
    10    20    22   am
    11    20     4    1
    12    22    23    1
    13     4     5    2
    14     4     3    1
    15     5     6    1
    16     7     6    1
    17     3     2    2
    18     6     1    2
    19     2     1    1
    20     1     8    1
    21     9     8    1
    22     8    10    1
    23    11    10    2
    24    10    12    2
    25    10    13    1
    26    13    19    2
    27    13    14    1
    28    19    18    1
    29    14    15    2
    30    18    16    2
    31    15    16    1
    32    16    17    1
