@<TRIPOS>MOLECULE
30944_out_ligand_01.pdbqt
 31 33 0 0 0
SMALL
GASTEIGER

@<TRIPOS>ATOM
      1  C         17.6520  -23.5420   -8.5860 C.2     1  UNL1        0.1190
      2  C         19.0450  -23.7060   -8.5500 C.2     1  UNL1        0.0450
      3  C         19.8430  -23.0630   -9.5030 C.2     1  UNL1        0.0330
      4  C         19.2390  -22.2710  -10.4920 C.2     1  UNL1        0.0200
      5  C         17.8530  -22.1040  -10.5100 C.2     1  UNL1        0.0450
      6  C         17.0630  -22.7340   -9.5520 C.2     1  UNL1        0.1390
      7  F         15.7380  -22.5620   -9.6180 F       1  UNL1       -0.2040
      8  S         16.6610  -24.3280   -7.3580 S.O2    1  UNL1        0.2660
      9  O         17.4780  -25.1710   -6.5190 O.2     1  UNL1       -0.2000
     10  O         15.5160  -24.8860   -8.0520 O.2     1  UNL1       -0.2000
     11  N         16.0450  -23.0280   -6.4700 N.pl3   1  UNL1       -0.2800
     12  H         15.0600  -23.1690   -6.2520 H       1  UNL1        0.1790
     13  C         16.8610  -22.4510   -5.4550 C.2     1  UNL1        0.0490
     14  C         16.6290  -22.7030   -4.0960 C.2     1  UNL1       -0.0350
     15  C         17.5030  -22.1390   -3.1530 C.2     1  UNL1        0.0090
     16  C         15.5200  -23.5950   -3.6140 C.3     1  UNL1        0.0500
     17  C         18.5690  -21.3290   -3.5560 C.2     1  UNL1        0.0070
     18  C         18.7960  -21.0790   -4.9120 C.2     1  UNL1       -0.0600
     19  C         19.9180  -20.1860   -5.3470 C.3     1  UNL1        0.0480
     20  C         17.9260  -21.6370   -5.8560 C.2     1  UNL1        0.0370
     21  C         21.3240  -23.2150   -9.5270 C.2     1  UNL1        0.2520
     22  O         21.8350  -24.2810   -9.2020 O.2     1  UNL1       -0.2680
     23  N         22.0470  -22.1230   -9.9520 N.am    1  UNL1       -0.3510
     24  H         21.5800  -21.3980  -10.4830 H       1  UNL1        0.1630
     25  C         23.4750  -22.2250  -10.1840 C.3     1  UNL1        0.1820
     26  C         23.8310  -21.8000  -11.5900 C.2     1  UNL1        0.0510
     27  C         22.8630  -21.7960  -12.5920 C.2     1  UNL1        0.0290
     28  C         23.2180  -21.3660  -13.8660 C.2     1  UNL1        0.0030
     29  C         24.5210  -20.9450  -14.1050 C.2     1  UNL1        0.0190
     30  C         25.4190  -20.9650  -13.0510 C.2     1  UNL1        0.1170
     31  N         25.1040  -21.3730  -11.8020 N.2     1  UNL1       -0.2640
@<TRIPOS>BOND
     1    29    28    2
     2    29    30    1
     3    28    27    1
     4    30    31    2
     5    27    26    2
     6    31    26    1
     7    26    25    1
     8     5     4    2
     9     5     6    1
    10     4     3    1
    11    24    23    1
    12    25    23    1
    13    23    21   am
    14     7     6    1
    15     6     1    2
    16    21     3    1
    17    21    22    2
    18     3     2    2
    19     1     2    1
    20     1     8    1
    21    10     8    2
    22     8     9    2
    23     8    11    1
    24    11    12    1
    25    11    13    1
    26    20    13    2
    27    20    18    1
    28    13    14    1
    29    19    18    1
    30    18    17    2
    31    14    16    1
    32    14    15    2
    33    17    15    1
