@<TRIPOS>MOLECULE
30940_out_ligand_01.pdbqt
 31 35 0 0 0
SMALL
GASTEIGER

@<TRIPOS>ATOM
      1  C         24.7070  -22.7000  -12.5520 C.2     1  UNL1        0.0350
      2  C         25.7120  -23.6740  -12.5180 C.2     1  UNL1        0.0290
      3  C         26.9060  -23.4870  -13.2140 C.2     1  UNL1        0.0030
      4  C         27.1100  -22.3200  -13.9480 C.2     1  UNL1        0.0150
      5  C         26.1210  -21.3260  -13.9940 C.2     1  UNL1        0.0120
      6  C         24.9190  -21.5350  -13.2930 C.2     1  UNL1        0.0440
      7  N         23.5330  -22.9710  -11.8190 N.am    1  UNL1       -0.3230
      8  C         23.0880  -22.3380  -10.6740 C.2     1  UNL1        0.2570
      9  O         23.5960  -21.4000  -10.0800 O.2     1  UNL1       -0.2670
     10  H         22.9410  -23.7090  -12.1820 H       1  UNL1        0.1690
     11  C         21.8030  -22.8760  -10.1660 C.2     1  UNL1        0.0430
     12  C         21.9010  -23.9550   -9.2800 C.2     1  UNL1        0.0180
     13  C         20.7520  -24.4780   -8.7120 C.2     1  UNL1        0.0020
     14  C         19.5100  -23.9250   -9.0290 C.2     1  UNL1        0.0130
     15  C         19.3720  -22.8470   -9.9410 C.2     1  UNL1       -0.0070
     16  C         18.1220  -22.2740  -10.2970 C.2     1  UNL1        0.0220
     17  C         20.5500  -22.3170  -10.5340 C.2     1  UNL1       -0.0090
     18 BR         16.4680  -22.8760   -9.5590 Br      1  UNL1       -0.0500
     19  C         18.0330  -21.2260  -11.2190 C.2     1  UNL1        0.0200
     20  C         19.1830  -20.7290  -11.8140 C.2     1  UNL1        0.0020
     21  C         20.4220  -21.2700  -11.4790 C.2     1  UNL1        0.0130
     22  C         26.3040  -20.0870  -14.7590 C.ar    1  UNL1        0.1390
     23  N         26.0870  -19.9330  -16.0530 N.ar    1  UNL1       -0.2280
     24  C         26.3730  -18.6220  -16.3400 C.ar    1  UNL1        0.0860
     25  C         26.3130  -17.9350  -17.5600 C.2     1  UNL1        0.0340
     26  C         26.7710  -17.9430  -15.1970 C.ar    1  UNL1        0.0620
     27  C         26.6590  -16.5790  -17.5840 C.2     1  UNL1        0.0020
     28  C         27.0560  -15.9210  -16.4170 C.2     1  UNL1        0.0020
     29  C         27.1210  -16.5910  -15.1890 C.2     1  UNL1        0.0320
     30  N         26.7140  -18.8920  -14.2100 N.ar    1  UNL1       -0.3380
     31  H         26.9140  -18.7340  -13.2350 H       1  UNL1        0.1670
@<TRIPOS>BOND
     1    27    25    1
     2    27    28    2
     3    25    24    2
     4    28    29    1
     5    24    23   ar
     6    24    26   ar
     7    23    22   ar
     8    26    29    2
     9    26    30   ar
    10    22    30   ar
    11    22     5    1
    12    30    31    1
    13     5     4    2
    14     5     6    1
    15     4     3    1
    16     6     1    2
    17     3     2    2
    18     1     2    1
    19     1     7    1
    20    10     7    1
    21     7     8   am
    22    20    21    2
    23    20    19    1
    24    21    17    1
    25    19    16    2
    26     8    11    1
    27     8     9    2
    28    17    11    2
    29    17    15    1
    30    16    15    1
    31    16    18    1
    32    11    12    1
    33    15    14    2
    34    12    13    2
    35    14    13    1
