@<TRIPOS>MOLECULE
30953_out_ligand_01.pdbqt
 31 34 0 0 0
SMALL
GASTEIGER

@<TRIPOS>ATOM
      1  C         21.4490  -23.0620   -9.7280 C.2     1  UNL1        0.0320
      2  C         21.1630  -22.4860  -10.9710 C.2     1  UNL1        0.0170
      3  C         22.2010  -22.1200  -11.8320 C.2     1  UNL1        0.0100
      4  C         23.5370  -22.3370  -11.4670 C.2     1  UNL1       -0.0300
      5  C         23.8160  -22.9320  -10.2260 C.2     1  UNL1        0.0100
      6  C         22.7800  -23.2980   -9.3620 C.2     1  UNL1        0.0170
      7  C         20.3130  -23.4370   -8.8390 C.2     1  UNL1        0.2560
      8  O         20.1940  -24.6110   -8.5120 O.2     1  UNL1       -0.2670
      9  N         19.4700  -22.3910   -8.5050 N.am    1  UNL1       -0.3230
     10  H         19.6330  -21.5080   -8.9700 H       1  UNL1        0.1690
     11  C         18.3430  -22.4390   -7.6570 C.2     1  UNL1        0.0350
     12  C         18.4110  -22.3970   -6.2650 C.2     1  UNL1        0.0300
     13  C         17.2450  -22.4450   -5.4930 C.2     1  UNL1        0.0180
     14  C         15.9850  -22.5270   -6.1010 C.2     1  UNL1        0.0480
     15  C         15.9190  -22.5740   -7.5000 C.2     1  UNL1        0.0180
     16  C         17.0860  -22.5260   -8.2680 C.2     1  UNL1        0.0300
     17  C         14.7280  -22.6010   -5.2690 C.3     1  UNL1        0.4170
     18  F         14.8950  -22.1020   -4.0110 F       1  UNL1       -0.1660
     19  F         13.7020  -21.8950   -5.8160 F       1  UNL1       -0.1660
     20  F         14.2650  -23.8710   -5.1030 F       1  UNL1       -0.1660
     21  C         24.6640  -21.9420  -12.4000 C.3     1  UNL1        0.3110
     22  N         25.5770  -23.0580  -12.6990 N.3     1  UNL1        0.0970
     23  C         26.9420  -22.5920  -12.9900 C.3     1  UNL1        0.2770
     24  C         27.0700  -21.7380  -14.2610 C.3     1  UNL1        0.0690
     25  C         26.2660  -22.2820  -15.4160 C.2     1  UNL1       -0.0490
     26  C         26.4440  -21.7550  -16.7010 C.2     1  UNL1        0.0070
     27  C         25.2920  -23.2730  -15.1960 C.2     1  UNL1       -0.0240
     28  C         25.6750  -22.2220  -17.7670 C.2     1  UNL1        0.0010
     29  C         24.7210  -23.2150  -17.5550 C.2     1  UNL1        0.0010
     30  C         24.5330  -23.7410  -16.2780 C.2     1  UNL1        0.0090
     31  C         25.1040  -23.8890  -13.8240 C.3     1  UNL1        0.3110
@<TRIPOS>BOND
     1    28    29    2
     2    28    26    1
     3    29    30    1
     4    26    25    2
     5    30    27    2
     6    25    27    1
     7    25    24    1
     8    27    31    1
     9    24    23    1
    10    31    22    1
    11    23    22    1
    12    22    21    1
    13    21     4    1
    14     3     4    2
    15     3     2    1
    16     4     5    1
    17     2     1    2
    18     5     6    2
    19     1     6    1
    20     1     7    1
    21    10     9    1
    22     7     8    2
    23     7     9   am
    24     9    11    1
    25    16    11    2
    26    16    15    1
    27    11    12    1
    28    15    14    2
    29    12    13    2
    30    14    13    1
    31    14    17    1
    32    19    17    1
    33    17    20    1
    34    17    18    1
