@<TRIPOS>MOLECULE
30958_out_ligand_01.pdbqt
 31 33 0 0 0
SMALL
GASTEIGER

@<TRIPOS>ATOM
      1  C         17.4500  -23.4440   -8.7270 C.2     1  UNL1        0.0860
      2  C         18.8440  -23.6080   -8.8130 C.2     1  UNL1        0.0420
      3  C         19.5700  -22.9740   -9.8230 C.2     1  UNL1        0.0330
      4  C         18.9070  -22.1710  -10.7520 C.2     1  UNL1        0.0170
      5  C         17.5250  -21.9870  -10.6520 C.2     1  UNL1        0.0090
      6  C         16.7730  -22.6140   -9.6400 C.2     1  UNL1       -0.0390
      7  C         15.2920  -22.3650   -9.6090 C.3     1  UNL1        0.0500
      8  S         16.6470  -24.3580   -7.4120 S.O2    1  UNL1        0.2630
      9  O         17.6270  -25.0880   -6.6390 O.2     1  UNL1       -0.2000
     10  O         15.5210  -25.0430   -8.0140 O.2     1  UNL1       -0.2000
     11  N         15.9940  -23.1350   -6.4440 N.pl3   1  UNL1       -0.2810
     12  H         15.3520  -22.5380   -6.9640 H       1  UNL1        0.1790
     13  C         16.8150  -22.5220   -5.4570 C.2     1  UNL1        0.0430
     14  C         16.5900  -22.7430   -4.1000 C.2     1  UNL1        0.0300
     15  C         17.4390  -22.1720   -3.1530 C.2     1  UNL1        0.0030
     16  C         18.5130  -21.3810   -3.5620 C.2     1  UNL1        0.0070
     17  C         18.7380  -21.1390   -4.9220 C.2     1  UNL1       -0.0600
     18  C         19.9120  -20.3200   -5.3690 C.3     1  UNL1        0.0480
     19  C         17.8850  -21.7240   -5.8680 C.2     1  UNL1        0.0370
     20  C         21.0330  -23.2310   -9.9110 C.2     1  UNL1        0.2560
     21  O         21.5010  -24.0920   -9.1780 O.2     1  UNL1       -0.2670
     22  N         21.7070  -22.4250  -10.8110 N.am    1  UNL1       -0.3220
     23  H         21.1660  -21.6770  -11.2210 H       1  UNL1        0.1690
     24  C         23.0830  -22.4620  -11.1520 C.2     1  UNL1        0.0420
     25  C         24.0480  -22.9590  -10.2640 C.2     1  UNL1        0.0300
     26  C         25.3970  -22.9970  -10.6120 C.2     1  UNL1        0.0040
     27  C         25.8020  -22.5410  -11.8580 C.2     1  UNL1        0.0240
     28  C         24.8600  -22.0450  -12.7620 C.2     1  UNL1        0.0420
     29 CL         25.4710  -21.5050  -14.2890 Cl      1  UNL1       -0.0840
     30  C         23.4880  -21.9970  -12.4310 C.2     1  UNL1       -0.0130
     31  C         22.4680  -21.4600  -13.4050 C.3     1  UNL1        0.0520
@<TRIPOS>BOND
     1    29    28    1
     2    31    30    1
     3    28    30    1
     4    28    27    2
     5    30    24    2
     6    27    26    1
     7    23    22    1
     8    24    22    1
     9    24    25    1
    10    22    20   am
    11     4     5    2
    12     4     3    1
    13     5     6    1
    14    26    25    2
    15    20     3    1
    16    20    21    2
    17     3     2    2
    18     6     7    1
    19     6     1    2
    20     2     1    1
    21     1     8    1
    22    10     8    2
    23     8     9    2
    24     8    11    1
    25    12    11    1
    26    11    13    1
    27    19    13    2
    28    19    17    1
    29    13    14    1
    30    18    17    1
    31    17    16    2
    32    14    15    2
    33    16    15    1
