@<TRIPOS>MOLECULE
30959_out_ligand_01.pdbqt
 35 38 0 0 0
SMALL
GASTEIGER

@<TRIPOS>ATOM
      1  N         18.4790  -23.4610   -6.7520 N.am    1  UNL1       -0.3220
      2  C         19.3900  -22.4260   -6.7970 C.2     1  UNL1        0.2560
      3  O         19.3170  -21.3670   -6.1850 O.2     1  UNL1       -0.2670
      4  H         18.7230  -24.3240   -7.2400 H       1  UNL1        0.1690
      5  C         20.5920  -22.6720   -7.6510 C.2     1  UNL1        0.0320
      6  C         20.7210  -23.8090   -8.4570 C.2     1  UNL1        0.0170
      7  C         21.8700  -23.9950   -9.2320 C.2     1  UNL1        0.0100
      8  C         22.9050  -23.0490   -9.2210 C.2     1  UNL1       -0.0300
      9  C         22.7570  -21.9000   -8.4310 C.2     1  UNL1        0.0100
     10  C         21.6090  -21.7120   -7.6560 C.2     1  UNL1        0.0170
     11  C         24.1510  -23.2560  -10.0570 C.3     1  UNL1        0.3110
     12  N         24.3730  -22.3230  -11.1660 N.3     1  UNL1        0.0970
     13  C         24.1700  -22.9090  -12.4940 C.3     1  UNL1        0.2770
     14  C         24.0580  -21.8020  -13.5520 C.3     1  UNL1        0.0690
     15  C         25.1500  -20.7680  -13.4340 C.2     1  UNL1       -0.0490
     16  C         25.3920  -19.8750  -14.4850 C.2     1  UNL1        0.0070
     17  C         25.8850  -20.6570  -12.2390 C.2     1  UNL1       -0.0240
     18  C         26.3760  -18.8940  -14.3650 C.2     1  UNL1        0.0010
     19  C         27.1210  -18.7940  -13.1920 C.2     1  UNL1        0.0010
     20  C         26.8800  -19.6720  -12.1350 C.2     1  UNL1        0.0090
     21  C         25.6690  -21.6340  -11.1010 C.3     1  UNL1        0.3110
     22  C         17.2240  -23.5090   -6.0930 C.2     1  UNL1        0.0500
     23  C         17.1150  -23.6440   -4.7040 C.2     1  UNL1        0.0300
     24  C         15.8640  -23.6600   -4.0790 C.2     1  UNL1        0.0020
     25  C         14.7010  -23.5320   -4.8310 C.2     1  UNL1        0.0010
     26  C         14.7850  -23.3990   -6.2160 C.2     1  UNL1        0.0190
     27  C         16.0370  -23.4040   -6.8570 C.2     1  UNL1        0.0580
     28  C         16.1020  -23.2800   -8.3450 C.2     1  UNL1        0.2530
     29  N         16.7020  -22.1430   -8.8460 N.am    1  UNL1       -0.3570
     30  H         16.8900  -21.3730   -8.2200 H       1  UNL1        0.1620
     31  O         15.5870  -24.1370   -9.0590 O.2     1  UNL1       -0.2680
     32  C         16.7190  -21.8630  -10.2700 C.3     1  UNL1        0.1230
     33  C         18.0430  -22.2850  -10.9070 C.3     1  UNL1        0.0190
     34  C         18.8700  -21.1040  -11.4170 C.3     1  UNL1       -0.0030
     35  C         20.3610  -21.3930  -11.4890 C.3     1  UNL1        0.0050
@<TRIPOS>BOND
     1    16    18    1
     2    16    15    2
     3    18    19    2
     4    14    15    1
     5    14    13    1
     6    15    17    1
     7    19    20    1
     8    13    12    1
     9    17    20    2
    10    17    21    1
    11    35    34    1
    12    34    33    1
    13    12    21    1
    14    12    11    1
    15    33    32    1
    16    32    29    1
    17    11     8    1
    18     7     8    2
    19     7     6    1
    20     8     9    1
    21    31    28    2
    22    29    28   am
    23    29    30    1
    24     6     5    2
    25     9    10    2
    26    28    27    1
    27    10     5    1
    28     5     2    1
    29     4     1    1
    30    27    26    1
    31    27    22    2
    32     2     1   am
    33     2     3    2
    34     1    22    1
    35    26    25    2
    36    22    23    1
    37    25    24    1
    38    23    24    2
