@<TRIPOS>MOLECULE
30977_out_ligand_01.pdbqt
 31 34 0 0 0
SMALL
GASTEIGER

@<TRIPOS>ATOM
      1  C         17.6960  -23.5330   -8.6510 C.2     1  UNL1        0.0810
      2  C         19.0820  -23.7490   -8.6440 C.2     1  UNL1        0.0420
      3  C         19.8890  -23.1640   -9.6240 C.2     1  UNL1        0.0330
      4  C         19.3100  -22.3680  -10.6160 C.2     1  UNL1        0.0170
      5  C         17.9300  -22.1500  -10.6190 C.2     1  UNL1        0.0090
      6  C         17.0990  -22.7340   -9.6460 C.2     1  UNL1       -0.0390
      7  C         15.6240  -22.4490   -9.7090 C.3     1  UNL1        0.0500
      8  S         16.7360  -24.3030   -7.3500 S.O2    1  UNL1        0.2460
      9  O         17.6550  -24.9910   -6.4700 O.2     1  UNL1       -0.2060
     10  O         15.6260  -24.9950   -7.9700 O.2     1  UNL1       -0.2060
     11  N         16.0960  -22.9150   -6.5910 N.pl3   1  UNL1       -0.1810
     12  H         15.1550  -23.1410   -6.2670 H       1  UNL1        0.1460
     13  C         16.9110  -22.3790   -5.5360 C.2     1  UNL1        0.0290
     14  C         16.6460  -22.6610   -4.1850 C.2     1  UNL1       -0.0400
     15  C         17.4950  -22.1170   -3.2080 C.2     1  UNL1        0.0090
     16  C         15.4900  -23.5180   -3.7510 C.3     1  UNL1        0.0500
     17  C         18.5820  -21.3150   -3.5660 C.2     1  UNL1        0.0070
     18  C         18.8540  -21.0520   -4.9090 C.2     1  UNL1       -0.0600
     19  C         20.0090  -20.1800   -5.3030 C.3     1  UNL1        0.0480
     20  C         18.0060  -21.5810   -5.8880 C.2     1  UNL1        0.0310
     21  C         21.3470  -23.4480   -9.6060 C.2     1  UNL1        0.2520
     22  O         21.8010  -24.2490   -8.7980 O.2     1  UNL1       -0.2680
     23  N         22.1130  -22.7520  -10.5180 N.am    1  UNL1       -0.3520
     24  H         21.6960  -21.9780  -11.0160 H       1  UNL1        0.1630
     25  C         23.5500  -22.9150  -10.5670 C.3     1  UNL1        0.0890
     26  C         24.3230  -21.6180  -10.2550 C.3     1  UNL1        0.0300
     27  C         25.2460  -21.4610  -11.4770 C.3     1  UNL1       -0.0120
     28  C         24.4000  -21.0260  -12.6850 C.3     1  UNL1        0.0050
     29  C         25.5680  -22.9140  -11.8240 C.3     1  UNL1        0.0110
     30  C         23.6200  -22.3000  -13.0350 C.3     1  UNL1        0.0070
     31  C         24.0940  -23.3030  -11.9650 C.3     1  UNL1        0.0090
@<TRIPOS>BOND
     1    30    28    1
     2    30    31    1
     3    28    27    1
     4    31    29    1
     5    31    25    1
     6    29    27    1
     7    27    26    1
     8    24    23    1
     9     5     4    2
    10     5     6    1
    11     4     3    1
    12    25    23    1
    13    25    26    1
    14    23    21   am
    15     7     6    1
    16     6     1    2
    17     3    21    1
    18     3     2    2
    19    21    22    2
    20     1     2    1
    21     1     8    1
    22    10     8    2
    23     8    11    1
    24     8     9    2
    25    11    12    1
    26    11    13    1
    27    20    13    2
    28    20    18    1
    29    13    14    1
    30    19    18    1
    31    18    17    2
    32    14    16    1
    33    14    15    2
    34    17    15    1
