@<TRIPOS>MOLECULE
30971_out_ligand_01.pdbqt
 31 33 0 0 0
SMALL
GASTEIGER

@<TRIPOS>ATOM
      1  C         17.3090  -23.1020   -8.9270 C.2     1  UNL1        0.0810
      2  C         18.7010  -23.2910   -8.9340 C.2     1  UNL1        0.0420
      3  C         19.4750  -22.7630   -9.9720 C.2     1  UNL1        0.0330
      4  C         18.8630  -22.0320  -10.9950 C.2     1  UNL1        0.0170
      5  C         17.4790  -21.8490  -10.9880 C.2     1  UNL1        0.0090
      6  C         16.6800  -22.3740   -9.9570 C.2     1  UNL1       -0.0390
      7  C         15.1930  -22.1490  -10.0220 C.3     1  UNL1        0.0500
      8  S         16.3830  -23.8350   -7.5820 S.O2    1  UNL1        0.2460
      9  O         15.5470  -22.8060   -7.0080 O.2     1  UNL1       -0.2060
     10  O         15.8280  -25.0850   -8.0570 O.2     1  UNL1       -0.2060
     11  N         17.6530  -24.2440   -6.5170 N.pl3   1  UNL1       -0.1810
     12  H         17.4250  -25.1550   -6.1130 H       1  UNL1        0.1460
     13  C         17.8700  -23.2750   -5.4810 C.2     1  UNL1        0.0230
     14  C         17.4980  -23.5750   -4.1720 C.2     1  UNL1        0.0240
     15  C         17.7500  -22.6570   -3.1540 C.2     1  UNL1        0.0020
     16  C         18.3820  -21.4460   -3.4440 C.2     1  UNL1        0.0070
     17  C         18.7650  -21.1400   -4.7550 C.2     1  UNL1       -0.0600
     18  C         19.4930  -19.8650   -5.0560 C.3     1  UNL1        0.0480
     19  C         18.5200  -22.0740   -5.7720 C.2     1  UNL1        0.0310
     20  C         20.9480  -22.9650   -9.9340 C.2     1  UNL1        0.2560
     21  O         21.4060  -23.6820   -9.0540 O.2     1  UNL1       -0.2670
     22  N         21.6480  -22.3250  -10.9410 N.am    1  UNL1       -0.3230
     23  H         21.0990  -21.8710  -11.6600 H       1  UNL1        0.1690
     24  C         23.0460  -22.3110  -11.1310 C.2     1  UNL1        0.0360
     25  C         23.9290  -21.5330  -10.3750 C.2     1  UNL1        0.0320
     26  C         25.3040  -21.5690  -10.6270 C.2     1  UNL1        0.0460
     27  C         25.8000  -22.3810  -11.6400 C.2     1  UNL1        0.1380
     28  F         27.1210  -22.3990  -11.8670 F       1  UNL1       -0.2040
     29  C         24.9340  -23.1580  -12.4030 C.2     1  UNL1        0.0740
     30 CL         25.5370  -24.1660  -13.6630 Cl      1  UNL1       -0.0810
     31  C         23.5600  -23.1240  -12.1510 C.2     1  UNL1        0.0560
@<TRIPOS>BOND
     1    30    29    1
     2    29    31    1
     3    29    27    2
     4    31    24    2
     5    28    27    1
     6    23    22    1
     7    27    26    1
     8    24    22    1
     9    24    25    1
    10     4     5    2
    11     4     3    1
    12     5     6    1
    13    22    20   am
    14    26    25    2
    15     7     6    1
    16     3    20    1
    17     3     2    2
    18     6     1    2
    19    20    21    2
    20     2     1    1
    21     1     8    1
    22    10     8    2
    23     8     9    2
    24     8    11    1
    25    11    12    1
    26    11    13    1
    27    19    13    2
    28    19    17    1
    29    13    14    1
    30    18    17    1
    31    17    16    2
    32    14    15    2
    33    16    15    1
