@<TRIPOS>MOLECULE
30984_out_ligand_01.pdbqt
 29 31 0 0 0
SMALL
GASTEIGER

@<TRIPOS>ATOM
      1  C         18.5020  -22.3110  -10.0920 C.2     1  UNL1        0.0810
      2  C         19.7970  -22.8360   -9.9560 C.2     1  UNL1        0.0420
      3  C         20.8200  -22.4090  -10.8060 C.2     1  UNL1        0.0330
      4  C         20.5490  -21.4660  -11.8010 C.2     1  UNL1        0.0170
      5  C         19.2610  -20.9410  -11.9330 C.2     1  UNL1        0.0090
      6  C         18.2160  -21.3560  -11.0890 C.2     1  UNL1       -0.0390
      7  C         16.8570  -20.7410  -11.2810 C.3     1  UNL1        0.0500
      8  S         17.2500  -22.8920   -8.9510 S.O2    1  UNL1        0.2460
      9  O         16.5800  -21.7300   -8.4040 O.2     1  UNL1       -0.2060
     10  O         16.5110  -23.9480   -9.6060 O.2     1  UNL1       -0.2060
     11  N         18.2380  -23.5260   -7.7140 N.pl3   1  UNL1       -0.1810
     12  H         19.1480  -23.7480   -8.1170 H       1  UNL1        0.1460
     13  C         18.3510  -22.6910   -6.5500 C.2     1  UNL1        0.0280
     14  C         19.3370  -21.6980   -6.5400 C.2     1  UNL1        0.0250
     15  C         19.5010  -20.8760   -5.4250 C.2     1  UNL1        0.0020
     16  C         18.6810  -21.0470   -4.3140 C.2     1  UNL1        0.0010
     17  C         17.7010  -22.0400   -4.3160 C.2     1  UNL1        0.0080
     18  C         17.5230  -22.8770   -5.4300 C.2     1  UNL1       -0.0400
     19  C         16.4590  -23.9360   -5.3810 C.3     1  UNL1        0.0500
     20  C         22.1690  -23.0120  -10.6460 C.2     1  UNL1        0.2520
     21  O         22.4150  -23.6940   -9.6590 O.2     1  UNL1       -0.2680
     22  N         23.0830  -22.7370  -11.6420 N.am    1  UNL1       -0.3520
     23  H         22.8270  -22.1280  -12.4070 H       1  UNL1        0.1630
     24  C         24.4190  -23.3130  -11.6320 C.3     1  UNL1        0.0840
     25  C         24.8620  -23.6880  -13.0580 C.3     1  UNL1        0.0250
     26  C         26.3810  -23.6810  -13.2500 C.3     1  UNL1        0.0020
     27  C         27.1200  -23.9960  -11.9570 C.3     1  UNL1        0.0000
     28  C         26.8120  -22.9740  -10.8620 C.3     1  UNL1        0.0020
     29  C         25.4180  -22.3540  -10.9790 C.3     1  UNL1        0.0250
@<TRIPOS>BOND
     1    26    25    1
     2    26    27    1
     3    25    24    1
     4    23    22    1
     5    27    28    1
     6     5     4    2
     7     5     6    1
     8     4     3    1
     9    22    24    1
    10    22    20   am
    11    24    29    1
    12     7     6    1
    13     6     1    2
    14    29    28    1
    15     3    20    1
    16     3     2    2
    17    20    21    2
    18     1     2    1
    19     1     8    1
    20    10     8    2
    21     8     9    2
    22     8    11    1
    23    12    11    1
    24    11    13    1
    25    13    14    2
    26    13    18    1
    27    14    15    1
    28    18    19    1
    29    18    17    2
    30    15    16    2
    31    17    16    1
