@<TRIPOS>MOLECULE
30981_out_ligand_01.pdbqt
 33 36 0 0 0
SMALL
GASTEIGER

@<TRIPOS>ATOM
      1  C         17.5830  -23.5180   -8.6600 C.2     1  UNL1        0.0860
      2  C         18.9780  -23.7130   -8.5980 C.2     1  UNL1        0.0420
      3  C         19.8170  -23.1150   -9.5400 C.2     1  UNL1        0.0330
      4  C         19.2690  -22.3040  -10.5330 C.2     1  UNL1        0.0170
      5  C         17.8850  -22.1290  -10.6130 C.2     1  UNL1        0.0090
      6  C         17.0170  -22.7410   -9.6890 C.2     1  UNL1       -0.0390
      7  C         15.5390  -22.5420   -9.8800 C.3     1  UNL1        0.0500
      8  C         21.2920  -23.2990   -9.5130 C.2     1  UNL1        0.2510
      9  O         21.7670  -24.3450   -9.0840 O.2     1  UNL1       -0.2680
     10  N         22.0450  -22.2310   -9.9470 N.am    1  UNL1       -0.3530
     11  H         21.6000  -21.3360  -10.1090 H       1  UNL1        0.1630
     12  C         23.4910  -22.2280   -9.8380 C.3     1  UNL1        0.1610
     13  C         24.1370  -21.8030  -11.1350 C.2     1  UNL1       -0.0380
     14  C         25.4500  -21.2750  -11.1360 C.2     1  UNL1        0.0120
     15  C         26.0600  -20.8620  -12.3250 C.2     1  UNL1        0.0400
     16  C         25.3410  -20.9870  -13.4930 C.2     1  UNL1        0.1050
     17  C         24.0630  -21.4930  -13.5050 C.2     1  UNL1        0.1050
     18  O         25.7770  -20.6430  -14.7350 O.2     1  UNL1       -0.3230
     19  C         23.4300  -21.8990  -12.3490 C.2     1  UNL1        0.0480
     20  O         23.5260  -21.5340  -14.7580 O.2     1  UNL1       -0.3230
     21  C         24.6360  -21.0270  -15.5350 C.3     1  UNL1        0.3520
     22  S         16.6260  -24.3470   -7.3910 S.O2    1  UNL1        0.2630
     23  O         17.5780  -25.0580   -6.5580 O.2     1  UNL1       -0.2000
     24  O         15.5060  -25.0440   -7.9850 O.2     1  UNL1       -0.2000
     25  N         16.0590  -23.0720   -6.4420 N.pl3   1  UNL1       -0.2810
     26  H         15.0630  -23.1470   -6.2340 H       1  UNL1        0.1790
     27  C         16.9050  -22.4920   -5.4600 C.2     1  UNL1        0.0430
     28  C         16.6570  -22.6860   -4.1030 C.2     1  UNL1        0.0300
     29  C         17.4790  -22.0750   -3.1540 C.2     1  UNL1        0.0030
     30  C         18.5480  -21.2730   -3.5650 C.2     1  UNL1        0.0070
     31  C         18.8120  -21.0860   -4.9290 C.2     1  UNL1       -0.0600
     32  C         19.9380  -20.1980   -5.3760 C.3     1  UNL1        0.0480
     33  C         17.9750  -21.6940   -5.8750 C.2     1  UNL1        0.0370
@<TRIPOS>BOND
     1    21    20    1
     2    21    18    1
     3    20    17    1
     4    18    16    1
     5    17    16    2
     6    17    19    1
     7    16    15    1
     8    19    13    2
     9    15    14    2
    10    14    13    1
    11    13    12    1
    12     5     4    2
    13     5     6    1
    14     4     3    1
    15    11    10    1
    16    10    12    1
    17    10     8   am
    18     7     6    1
    19     6     1    2
    20     3     8    1
    21     3     2    2
    22     8     9    2
    23     1     2    1
    24     1    22    1
    25    24    22    2
    26    22    23    2
    27    22    25    1
    28    25    26    1
    29    25    27    1
    30    33    27    2
    31    33    31    1
    32    27    28    1
    33    32    31    1
    34    31    30    2
    35    28    29    2
    36    30    29    1
