@<TRIPOS>MOLECULE
30989_out_ligand_01.pdbqt
 31 33 0 0 0
SMALL
GASTEIGER

@<TRIPOS>ATOM
      1  C         16.6450  -21.0500  -11.0190 C.3     1  UNL1        0.0500
      2  C         18.0660  -21.5270  -10.9370 C.2     1  UNL1       -0.0390
      3  C         18.9990  -20.9590  -11.8250 C.2     1  UNL1        0.0090
      4  C         20.3470  -21.3220  -11.7930 C.2     1  UNL1        0.0170
      5  C         20.8050  -22.2500  -10.8570 C.2     1  UNL1        0.0330
      6  C         19.8940  -22.8370   -9.9750 C.2     1  UNL1        0.0420
      7  C         18.5290  -22.4860  -10.0170 C.2     1  UNL1        0.0860
      8  S         17.4830  -23.2920   -8.8050 S.O2    1  UNL1        0.2630
      9  O         18.2790  -24.1470   -7.9560 O.2     1  UNL1       -0.2000
     10  O         16.3520  -23.8330   -9.5350 O.2     1  UNL1       -0.2000
     11  N         16.8650  -22.0080   -7.9070 N.pl3   1  UNL1       -0.2800
     12  H         17.0680  -21.0950   -8.2950 H       1  UNL1        0.1790
     13  C         16.6590  -22.1390   -6.5060 C.2     1  UNL1        0.0490
     14  C         15.4030  -22.5660   -6.0690 C.2     1  UNL1        0.0310
     15  C         15.1480  -22.7330   -4.7110 C.2     1  UNL1        0.0030
     16  C         16.1530  -22.4790   -3.7850 C.2     1  UNL1        0.0070
     17  C         17.4210  -22.0480   -4.2020 C.2     1  UNL1       -0.0540
     18  C         18.4680  -21.7750   -3.1530 C.3     1  UNL1        0.0490
     19  C         17.6820  -21.8550   -5.5810 C.2     1  UNL1       -0.0290
     20  C         19.0440  -21.3790   -6.0110 C.3     1  UNL1        0.0510
     21  C         22.2500  -22.6100  -10.8590 C.2     1  UNL1        0.2510
     22  O         22.7510  -23.1150   -9.8620 O.2     1  UNL1       -0.2680
     23  N         22.9460  -22.3670  -12.0230 N.am    1  UNL1       -0.3530
     24  H         22.4410  -22.1470  -12.8720 H       1  UNL1        0.1630
     25  C         24.3390  -22.7330  -12.1680 C.3     1  UNL1        0.1620
     26  C         25.2120  -21.5200  -12.3070 C.2     1  UNL1       -0.0230
     27  C         25.8890  -20.9740  -11.2120 C.2     1  UNL1        0.0120
     28  C         26.6830  -19.8440  -11.3810 C.2     1  UNL1        0.0200
     29  C         26.7700  -19.2880  -12.6460 C.2     1  UNL1        0.1160
     30  N         26.1320  -19.7830  -13.7280 N.2     1  UNL1       -0.2730
     31  C         25.3680  -20.8810  -13.5330 C.2     1  UNL1        0.1240
@<TRIPOS>BOND
     1    30    31    1
     2    30    29    2
     3    31    26    2
     4    24    23    1
     5    29    28    1
     6    26    25    1
     7    26    27    1
     8    25    23    1
     9    23    21   am
    10     3     4    1
    11     3     2    2
    12     4     5    2
    13    28    27    2
    14     1     2    1
    15     2     7    1
    16    21     5    1
    17    21    22    2
    18     5     6    1
    19     7     6    2
    20     7     8    1
    21    10     8    2
    22     8     9    2
    23     8    11    1
    24    12    11    1
    25    11    13    1
    26    13    14    2
    27    13    19    1
    28    14    15    1
    29    20    19    1
    30    19    17    2
    31    15    16    2
    32    17    16    1
    33    17    18    1
