@<TRIPOS>MOLECULE
30985_out_ligand_01.pdbqt
 34 36 0 0 0
SMALL
GASTEIGER

@<TRIPOS>ATOM
      1  C         16.3510  -21.0030  -10.9370 C.3     1  UNL1        0.0500
      2  C         17.7840  -21.4550  -10.8800 C.2     1  UNL1       -0.0390
      3  C         18.6930  -20.8790  -11.7850 C.2     1  UNL1        0.0090
      4  C         20.0400  -21.2550  -11.7970 C.2     1  UNL1        0.0170
      5  C         20.4990  -22.2320  -10.9110 C.2     1  UNL1        0.0330
      6  C         19.6130  -22.8160  -10.0020 C.2     1  UNL1        0.0420
      7  C         18.2610  -22.4320   -9.9820 C.2     1  UNL1        0.0860
      8  C         21.9280  -22.6480  -10.8870 C.2     1  UNL1        0.2560
      9  O         22.2500  -23.5570  -10.1330 O.2     1  UNL1       -0.2670
     10  N         22.7420  -21.9620  -11.7720 N.am    1  UNL1       -0.3220
     11  H         22.2660  -21.3460  -12.4140 H       1  UNL1        0.1690
     12  C         24.1460  -22.0770  -11.9260 C.2     1  UNL1        0.0430
     13  C         24.9860  -22.3440  -10.8320 C.2     1  UNL1        0.0300
     14  C         26.3750  -22.4110  -10.9720 C.2     1  UNL1        0.0050
     15  C         26.9560  -22.1860  -12.2110 C.2     1  UNL1        0.0370
     16  C         26.1290  -21.9120  -13.3060 C.2     1  UNL1        0.1110
     17  C         24.7170  -21.8830  -13.2070 C.2     1  UNL1       -0.0020
     18  C         23.8550  -21.6400  -14.4220 C.3     1  UNL1        0.0530
     19  N         26.8000  -21.6230  -14.5650 N.pl3   1  UNL1       -0.1150
     20  O         27.0780  -20.4380  -14.7980 O.2     1  UNL1       -0.5320
     21  O         27.0290  -22.5790  -15.3190 O.2     1  UNL1       -0.5320
     22  S         17.1990  -23.2680   -8.8060 S.O2    1  UNL1        0.2630
     23  O         18.0240  -24.1540   -8.0140 O.2     1  UNL1       -0.2000
     24  O         16.0510  -23.7910   -9.5160 O.2     1  UNL1       -0.2000
     25  N         16.6260  -22.0120   -7.8360 N.pl3   1  UNL1       -0.2800
     26  H         16.8900  -21.0950   -8.1800 H       1  UNL1        0.1790
     27  C         16.4660  -22.2070   -6.4300 C.2     1  UNL1        0.0490
     28  C         15.2460  -22.6920   -5.9520 C.2     1  UNL1        0.0310
     29  C         15.0750  -22.9600   -4.5980 C.2     1  UNL1        0.0030
     30  C         16.1260  -22.7430   -3.7130 C.2     1  UNL1        0.0070
     31  C         17.3560  -22.2390   -4.1650 C.2     1  UNL1       -0.0540
     32  C         18.4510  -22.0260   -3.1530 C.3     1  UNL1        0.0490
     33  C         17.5290  -21.9390   -5.5380 C.2     1  UNL1       -0.0290
     34  C         18.8390  -21.3950   -6.0480 C.3     1  UNL1        0.0510
@<TRIPOS>BOND
     1    21    19    2
     2    20    19    2
     3    19    16    1
     4    18    17    1
     5    16    17    1
     6    16    15    2
     7    17    12    2
     8    11    10    1
     9    15    14    1
    10    12    10    1
    11    12    13    1
    12     4     3    1
    13     4     5    2
    14     3     2    2
    15    10     8   am
    16    14    13    2
    17     1     2    1
    18     5     8    1
    19     5     6    1
    20     8     9    2
    21     2     7    1
    22     6     7    2
    23     7    22    1
    24    24    22    2
    25    22    23    2
    26    22    25    1
    27    26    25    1
    28    25    27    1
    29    27    28    2
    30    27    33    1
    31    34    33    1
    32    28    29    1
    33    33    31    2
    34    29    30    2
    35    31    30    1
    36    31    32    1
