@<TRIPOS>MOLECULE
30982_out_ligand_01.pdbqt
 30 32 0 0 0
SMALL
GASTEIGER

@<TRIPOS>ATOM
      1  C         16.6740  -20.9150  -11.0540 C.3     1  UNL1        0.0500
      2  C         18.0690  -21.4580  -10.9130 C.2     1  UNL1       -0.0390
      3  C         19.0700  -20.9160  -11.7420 C.2     1  UNL1        0.0090
      4  C         20.3910  -21.3710  -11.6840 C.2     1  UNL1        0.0170
      5  C         20.7320  -22.3980  -10.8030 C.2     1  UNL1        0.0330
      6  C         19.7560  -22.9480   -9.9690 C.2     1  UNL1        0.0420
      7  C         18.4340  -22.4730  -10.0070 C.2     1  UNL1        0.0860
      8  S         17.2970  -23.2510   -8.8640 S.O2    1  UNL1        0.2630
      9  O         16.1580  -23.7800   -9.5790 O.2     1  UNL1       -0.2000
     10  O         18.0890  -24.1160   -8.0120 O.2     1  UNL1       -0.2000
     11  N         16.7950  -21.9720   -7.8860 N.pl3   1  UNL1       -0.2800
     12  H         16.1950  -21.3090   -8.3700 H       1  UNL1        0.1790
     13  C         16.6320  -22.1610   -6.4830 C.2     1  UNL1        0.0490
     14  C         15.3990  -22.6280   -6.0210 C.2     1  UNL1        0.0310
     15  C         15.1700  -22.7990   -4.6610 C.2     1  UNL1        0.0030
     16  C         16.1770  -22.5010   -3.7490 C.2     1  UNL1        0.0070
     17  C         17.4250  -22.0320   -4.1870 C.2     1  UNL1       -0.0540
     18  C         18.4840  -21.7330   -3.1570 C.3     1  UNL1        0.0490
     19  C         17.6730  -21.8760   -5.5750 C.2     1  UNL1       -0.0290
     20  C         19.0270  -21.3830   -6.0250 C.3     1  UNL1        0.0510
     21  C         22.1310  -22.8900  -10.6770 C.2     1  UNL1        0.2560
     22  O         22.3890  -23.6350   -9.7380 O.2     1  UNL1       -0.2670
     23  N         22.9880  -22.4610  -11.6710 N.am    1  UNL1       -0.3230
     24  H         22.5790  -21.9480  -12.4420 H       1  UNL1        0.1690
     25  C         24.3690  -22.7280  -11.7850 C.2     1  UNL1        0.0350
     26  C         25.3450  -22.1520  -10.9690 C.2     1  UNL1        0.0290
     27  C         26.6950  -22.4650  -11.1520 C.2     1  UNL1        0.0020
     28  C         27.0830  -23.3530  -12.1540 C.2     1  UNL1        0.0000
     29  C         26.1180  -23.9290  -12.9750 C.2     1  UNL1        0.0020
     30  C         24.7680  -23.6160  -12.7930 C.2     1  UNL1        0.0290
@<TRIPOS>BOND
     1    29    30    1
     2    29    28    2
     3    30    25    2
     4    24    23    1
     5    28    27    1
     6    25    23    1
     7    25    26    1
     8     3     4    1
     9     3     2    2
    10     4     5    2
    11    23    21   am
    12    27    26    2
    13     1     2    1
    14     2     7    1
    15     5    21    1
    16     5     6    1
    17    21    22    2
    18     7     6    2
    19     7     8    1
    20     9     8    2
    21     8    10    2
    22     8    11    1
    23    12    11    1
    24    11    13    1
    25    13    14    2
    26    13    19    1
    27    20    19    1
    28    14    15    1
    29    19    17    2
    30    15    16    2
    31    17    16    1
    32    17    18    1
