@<TRIPOS>MOLECULE
30993_out_ligand_01.pdbqt
 34 37 0 0 0
SMALL
GASTEIGER

@<TRIPOS>ATOM
      1  C         18.1100  -23.7920   -8.3530 C.2     1  UNL1        0.0800
      2  C         18.0370  -22.9390   -9.4590 C.2     1  UNL1        0.0270
      3  C         19.1990  -22.6330  -10.1700 C.2     1  UNL1        0.0310
      4  C         20.4190  -23.1930   -9.7900 C.2     1  UNL1        0.0420
      5  C         20.4860  -24.0580   -8.6950 C.2     1  UNL1        0.0310
      6  C         19.3290  -24.3650   -7.9770 C.2     1  UNL1        0.0270
      7  N         21.6030  -22.9310  -10.5330 N.pl3   1  UNL1       -0.2810
      8  H         21.5130  -22.4600  -11.4310 H       1  UNL1        0.1790
      9  S         23.0020  -22.4450   -9.7130 S.O2    1  UNL1        0.2630
     10  O         23.6170  -23.6610   -9.2230 O.2     1  UNL1       -0.2000
     11  O         22.6830  -21.3520   -8.8210 O.2     1  UNL1       -0.2000
     12  C         24.0280  -21.8160  -11.0210 C.2     1  UNL1        0.0800
     13  C         25.2610  -21.2350  -10.7180 C.2     1  UNL1        0.0260
     14  C         26.0530  -20.7320  -11.7510 C.2     1  UNL1        0.0140
     15  C         25.6300  -20.8150  -13.0870 C.2     1  UNL1       -0.0260
     16  C         26.4160  -20.3080  -14.1330 C.2     1  UNL1        0.0120
     17  C         24.3880  -21.4270  -13.3890 C.2     1  UNL1       -0.0250
     18  C         25.9880  -20.4030  -15.4590 C.2     1  UNL1        0.0010
     19  C         24.7700  -21.0080  -15.7550 C.2     1  UNL1        0.0010
     20  C         23.9740  -21.5170  -14.7280 C.2     1  UNL1        0.0120
     21  C         23.5960  -21.9290  -12.3460 C.2     1  UNL1        0.0370
     22  S         16.6260  -24.2110   -7.4620 S.O2    1  UNL1        0.2630
     23  O         17.0070  -25.1040   -6.3870 O.2     1  UNL1       -0.2000
     24  O         15.6220  -24.5980   -8.4300 O.2     1  UNL1       -0.2000
     25  N         16.1870  -22.7610   -6.7230 N.pl3   1  UNL1       -0.2800
     26  H         15.1790  -22.6350   -6.6750 H       1  UNL1        0.1790
     27  C         16.9920  -22.2120   -5.6830 C.2     1  UNL1        0.0490
     28  C         16.6340  -22.3960   -4.3370 C.2     1  UNL1       -0.0350
     29  C         17.4750  -21.8780   -3.3410 C.2     1  UNL1        0.0090
     30  C         15.3870  -23.1290   -3.9320 C.3     1  UNL1        0.0500
     31  C         18.6400  -21.1840   -3.6740 C.2     1  UNL1        0.0070
     32  C         18.9800  -20.9760   -5.0130 C.2     1  UNL1       -0.0600
     33  C         20.2420  -20.2530   -5.3780 C.3     1  UNL1        0.0480
     34  C         18.1520  -21.5020   -6.0120 C.2     1  UNL1        0.0370
@<TRIPOS>BOND
     1    19    18    2
     2    19    20    1
     3    18    16    1
     4    20    17    2
     5    16    15    2
     6    17    15    1
     7    17    21    1
     8    15    14    1
     9    21    12    2
    10    14    13    2
    11     8     7    1
    12    12    13    1
    13    12     9    1
    14     7     4    1
    15     7     9    1
    16     3     4    2
    17     3     2    1
    18     4     5    1
    19     9    10    2
    20     9    11    2
    21     2     1    2
    22     5     6    2
    23    24    22    2
    24     1     6    1
    25     1    22    1
    26    22    25    1
    27    22    23    2
    28    25    26    1
    29    25    27    1
    30    34    27    2
    31    34    32    1
    32    27    28    1
    33    33    32    1
    34    32    31    2
    35    28    30    1
    36    28    29    2
    37    31    29    1
