@<TRIPOS>MOLECULE
3099_out_ligand_01.pdbqt
 31 34 0 0 0
SMALL
GASTEIGER

@<TRIPOS>ATOM
      1  C         22.8420  -21.6130  -13.2870 C.2     1  UNL1        0.0770
      2  C         23.8220  -22.4460  -12.7020 C.2     1  UNL1        0.0380
      3  C         23.5890  -23.0570  -11.4650 C.2     1  UNL1        0.0210
      4  C         22.3800  -22.8000  -10.8470 C.2     1  UNL1        0.0480
      5  C         21.4350  -21.9730  -11.4090 C.2     1  UNL1        0.0510
      6  C         21.6360  -21.3550  -12.6280 C.2     1  UNL1        0.0550
      7  C         20.2960  -21.9190  -10.5010 C.2     1  UNL1        0.2660
      8  O         19.3140  -21.2520  -10.7780 O.2     1  UNL1       -0.2670
      9  N         20.5980  -22.7180   -9.4130 N.am    1  UNL1       -0.2440
     10  C         21.8500  -23.2790   -9.5750 C.2     1  UNL1        0.2660
     11  O         22.5040  -24.0370   -8.8810 O.2     1  UNL1       -0.2670
     12  C         19.7380  -22.9340   -8.2870 C.2     1  UNL1        0.0460
     13  C         19.7330  -22.0620   -7.1850 C.2     1  UNL1        0.0310
     14  C         18.8930  -22.2740   -6.0810 C.2     1  UNL1        0.0190
     15  C         18.0360  -23.3720   -6.0420 C.2     1  UNL1        0.0320
     16  C         18.0110  -24.2430   -7.1290 C.2     1  UNL1        0.0190
     17  C         18.8540  -24.0250   -8.2310 C.2     1  UNL1        0.0310
     18  C         17.1660  -23.5540   -4.8500 C.2     1  UNL1        0.2490
     19  N         17.3900  -22.7400   -3.7730 N.am    1  UNL1       -0.3660
     20  H         16.7050  -22.8000   -3.0300 H       1  UNL1        0.1590
     21  H         17.9190  -21.8840   -3.8450 H       1  UNL1        0.1590
     22  O         16.2580  -24.3750   -4.8330 O.2     1  UNL1       -0.2680
     23  O         23.0190  -20.9650  -14.4930 O.2     1  UNL1       -0.3080
     24  C         24.3090  -20.8700  -14.9710 C.2     1  UNL1        0.1090
     25  C         25.1050  -19.8610  -14.4210 C.2     1  UNL1        0.0400
     26  C         26.4100  -19.6850  -14.8700 C.2     1  UNL1        0.0030
     27  C         26.9100  -20.5080  -15.8780 C.2     1  UNL1        0.0030
     28  C         26.1040  -21.5010  -16.4490 C.2     1  UNL1        0.0390
     29  C         24.7890  -21.6860  -16.0090 C.2     1  UNL1        0.1020
     30  O         23.9150  -22.6070  -16.5220 O.2     1  UNL1       -0.3530
     31  C         24.2890  -23.2670  -17.7240 C.3     1  UNL1        0.2100
@<TRIPOS>BOND
     1    31    30    1
     2    30    29    1
     3    28    29    1
     4    28    27    2
     5    29    24    2
     6    27    26    1
     7    24    23    1
     8    24    25    1
     9    26    25    2
    10    23     1    1
    11     1     2    2
    12     1     6    1
    13     2     3    1
    14     6     5    2
    15     3     4    2
    16     5     4    1
    17     5     7    1
    18     4    10    1
    19     8     7    2
    20     7     9   am
    21    10     9   am
    22    10    11    2
    23     9    12    1
    24    12    17    2
    25    12    13    1
    26    17    16    1
    27    13    14    2
    28    16    15    2
    29    14    15    1
    30    15    18    1
    31    18    22    2
    32    18    19   am
    33    21    19    1
    34    19    20    1
