@<TRIPOS>MOLECULE
30_out_ligand_01.pdbqt
 29 32 0 0 0
SMALL
GASTEIGER

@<TRIPOS>ATOM
      1  O         20.2590  -24.4930   -8.6250 O.2     1  UNL1       -0.2670
      2  C         19.4210  -23.5950   -8.5960 C.2     1  UNL1        0.2580
      3  N         19.2110  -22.6160   -9.5850 N.am    1  UNL1       -0.3130
      4  C         17.9180  -21.9240   -9.6910 C.3     1  UNL1        0.1330
      5  C         17.4850  -21.7180  -11.1310 C.3     1  UNL1        0.0250
      6  C         18.5180  -20.8700  -11.8430 C.3     1  UNL1        0.0420
      7  C         19.9030  -21.4250  -11.6420 C.2     1  UNL1       -0.0300
      8  C         20.8980  -21.0450  -12.5660 C.2     1  UNL1        0.0190
      9  C         22.2190  -21.4890  -12.4390 C.2     1  UNL1       -0.0270
     10  C         22.5270  -22.3370  -11.3730 C.2     1  UNL1        0.0120
     11  C         21.5460  -22.7100  -10.4460 C.2     1  UNL1        0.0310
     12  C         20.2200  -22.2680  -10.5570 C.2     1  UNL1        0.0430
     13  C         23.2690  -21.0770  -13.4490 C.3     1  UNL1        0.1790
     14  O         22.6340  -20.2780  -14.4600 O.3     1  UNL1       -0.3890
     15  H         23.0950  -19.4220  -14.4930 H       1  UNL1        0.2100
     16  C         24.0340  -22.2400  -14.1480 C.3     1  UNL1        0.3090
     17  N         25.3840  -22.6050  -13.6970 N.3     1  UNL1        0.0950
     18  C         26.0760  -21.5860  -12.8960 C.3     1  UNL1        0.2980
     19  C         26.3660  -22.0380  -11.4550 C.3     1  UNL1        0.1980
     20  O         27.1180  -23.2550  -11.3740 O.3     1  UNL1       -0.3880
     21  C         26.8900  -24.1390  -12.4830 C.3     1  UNL1        0.1980
     22  C         25.5070  -23.9510  -13.1250 C.3     1  UNL1        0.2980
     23  C         18.5500  -23.5760   -7.3940 C.2     1  UNL1        0.0320
     24  C         18.8090  -22.6430   -6.3820 C.2     1  UNL1        0.0200
     25  C         17.9860  -22.5980   -5.2560 C.2     1  UNL1        0.0430
     26  C         16.9060  -23.4700   -5.1610 C.2     1  UNL1        0.1160
     27  F         16.1170  -23.4250   -4.0800 F       1  UNL1       -0.2060
     28  C         16.6250  -24.3840   -6.1730 C.2     1  UNL1        0.0430
     29  C         17.4440  -24.4350   -7.3020 C.2     1  UNL1        0.0200
@<TRIPOS>BOND
     1    15    14    1
     2    14    13    1
     3    16    17    1
     4    16    13    1
     5    17    22    1
     6    17    18    1
     7    13     9    1
     8    22    21    1
     9    18    19    1
    10     8     9    1
    11     8     7    2
    12    21    20    1
    13     9    10    2
    14     6     7    1
    15     6     5    1
    16     7    12    1
    17    19    20    1
    18    10    11    1
    19     5     4    1
    20    12    11    2
    21    12     3    1
    22     4     3    1
    23     3     2   am
    24     1     2    2
    25     2    23    1
    26    23    29    2
    27    23    24    1
    28    29    28    1
    29    24    25    2
    30    28    26    2
    31    25    26    1
    32    26    27    1
