@<TRIPOS>MOLECULE
31019_out_ligand_01.pdbqt
 32 34 0 0 0
SMALL
GASTEIGER

@<TRIPOS>ATOM
      1  C         20.9020  -22.3890  -10.6700 C.2     1  UNL1        0.0340
      2  C         20.5980  -21.3670  -11.5750 C.2     1  UNL1        0.0190
      3  C         19.2850  -20.8950  -11.6740 C.2     1  UNL1        0.0260
      4  C         18.2640  -21.4380  -10.8820 C.2     1  UNL1        0.0570
      5 CL         16.6810  -20.7970  -11.1290 Cl      1  UNL1       -0.0830
      6  C         18.5680  -22.4680   -9.9890 C.2     1  UNL1        0.1020
      7  C         19.8860  -22.9450   -9.8850 C.2     1  UNL1        0.0440
      8  S         17.3340  -23.1970   -8.9400 S.O2    1  UNL1        0.2650
      9  O         17.9740  -24.1950   -8.1120 O.2     1  UNL1       -0.2000
     10  O         16.2110  -23.5730   -9.7740 O.2     1  UNL1       -0.2000
     11  N         16.8700  -21.9310   -7.9280 N.pl3   1  UNL1       -0.2800
     12  H         16.3230  -21.2240   -8.4130 H       1  UNL1        0.1790
     13  C         16.6640  -22.1520   -6.5320 C.2     1  UNL1        0.0490
     14  C         15.4090  -22.5900   -6.0970 C.2     1  UNL1        0.0310
     15  C         15.1450  -22.7640   -4.7420 C.2     1  UNL1        0.0030
     16  C         16.1370  -22.5020   -3.8060 C.2     1  UNL1        0.0070
     17  C         17.4120  -22.0790   -4.2140 C.2     1  UNL1       -0.0540
     18  C         18.4490  -21.8170   -3.1530 C.3     1  UNL1        0.0490
     19  C         17.6980  -21.9330   -5.5950 C.2     1  UNL1       -0.0290
     20  C         19.0780  -21.4910   -6.0140 C.3     1  UNL1        0.0510
     21  C         22.2810  -22.9380  -10.5490 C.2     1  UNL1        0.2560
     22  N         23.1380  -22.5900  -11.5760 N.am    1  UNL1       -0.3230
     23  H         22.7980  -21.9230  -12.2570 H       1  UNL1        0.1690
     24  O         22.5420  -23.6150   -9.5630 O.2     1  UNL1       -0.2670
     25  C         24.4820  -22.9900  -11.7410 C.2     1  UNL1        0.0360
     26  C         25.4630  -22.8500  -10.7580 C.2     1  UNL1        0.0290
     27  C         26.7730  -23.2690  -11.0050 C.2     1  UNL1        0.0040
     28  C         27.1130  -23.8390  -12.2310 C.2     1  UNL1        0.0180
     29  C         26.1400  -24.0060  -13.2170 C.2     1  UNL1        0.0020
     30  C         24.8320  -23.5680  -12.9700 C.2     1  UNL1        0.0480
     31  S         26.5140  -24.7200  -14.8100 S.3     1  UNL1       -0.1340
     32  C         25.6980  -23.5280  -15.9060 C.3     1  UNL1        0.0950
@<TRIPOS>BOND
     1    32    31    1
     2    31    29    1
     3    29    30    1
     4    29    28    2
     5    30    25    2
     6    23    22    1
     7    28    27    1
     8    25    22    1
     9    25    26    1
    10     3     2    1
    11     3     4    2
    12    22    21   am
    13     2     1    2
    14     5     4    1
    15    27    26    2
    16     4     6    1
    17     1    21    1
    18     1     7    1
    19    21    24    2
    20     6     7    2
    21     6     8    1
    22    10     8    2
    23     8     9    2
    24     8    11    1
    25    12    11    1
    26    11    13    1
    27    13    14    2
    28    13    19    1
    29    14    15    1
    30    20    19    1
    31    19    17    2
    32    15    16    2
    33    17    16    1
    34    17    18    1
