@<TRIPOS>MOLECULE
31010_out_ligand_01.pdbqt
 33 35 0 0 0
SMALL
GASTEIGER

@<TRIPOS>ATOM
      1  C         20.5970  -22.4070  -10.6790 C.2     1  UNL1        0.0330
      2  C         20.2650  -21.3930  -11.5790 C.2     1  UNL1        0.0170
      3  C         18.9410  -20.9550  -11.6740 C.2     1  UNL1        0.0090
      4  C         17.9260  -21.5000  -10.8620 C.2     1  UNL1       -0.0390
      5  C         16.5290  -20.9780  -11.0450 C.3     1  UNL1        0.0500
      6  C         18.2800  -22.5010   -9.9380 C.2     1  UNL1        0.0860
      7  C         19.6060  -22.9640   -9.8670 C.2     1  UNL1        0.0420
      8  C         21.9980  -22.8810  -10.5150 C.2     1  UNL1        0.2560
      9  N         22.8960  -22.3460  -11.4110 N.am    1  UNL1       -0.3200
     10  H         22.5420  -21.7810  -12.1760 H       1  UNL1        0.1690
     11  O         22.2240  -23.7020   -9.6350 O.2     1  UNL1       -0.2670
     12  C         24.2920  -22.5550  -11.4770 C.2     1  UNL1        0.0690
     13  C         24.9930  -23.3750  -10.5890 C.2     1  UNL1        0.0390
     14  C         26.3840  -23.5250  -10.6980 C.2     1  UNL1       -0.0600
     15  C         27.0610  -22.8640  -11.7270 C.2     1  UNL1        0.0090
     16  C         27.1210  -24.4330   -9.7570 C.3     1  UNL1        0.0480
     17  C         26.3710  -22.0400  -12.6210 C.2     1  UNL1        0.0390
     18  C         24.9880  -21.8790  -12.5020 C.2     1  UNL1        0.0950
     19  O         24.2120  -21.0920  -13.3230 O.2     1  UNL1       -0.3540
     20  C         24.7520  -20.7640  -14.6020 C.3     1  UNL1        0.2100
     21  S         17.1280  -23.2820   -8.8110 S.O2    1  UNL1        0.2630
     22  O         15.9800  -23.7770   -9.5360 O.2     1  UNL1       -0.2000
     23  O         17.9070  -24.1740   -7.9760 O.2     1  UNL1       -0.2000
     24  N         16.6440  -22.0140   -7.8070 N.pl3   1  UNL1       -0.2800
     25  H         16.0040  -21.3740   -8.2750 H       1  UNL1        0.1790
     26  C         16.5160  -22.1990   -6.3970 C.2     1  UNL1        0.0490
     27  C         15.3160  -22.6960   -5.8770 C.2     1  UNL1        0.0310
     28  C         15.1580  -22.8670   -4.5050 C.2     1  UNL1        0.0030
     29  C         16.2040  -22.5490   -3.6430 C.2     1  UNL1        0.0070
     30  C         17.4280  -22.0720   -4.1400 C.2     1  UNL1       -0.0540
     31  C         18.5230  -21.7630   -3.1530 C.3     1  UNL1        0.0490
     32  C         17.5990  -21.9060   -5.5360 C.2     1  UNL1       -0.0290
     33  C         18.9150  -21.4350   -6.1050 C.3     1  UNL1        0.0510
@<TRIPOS>BOND
     1    20    19    1
     2    19    18    1
     3    17    18    1
     4    17    15    2
     5    18    12    2
     6    10     9    1
     7    15    14    1
     8     3     2    1
     9     3     4    2
    10     2     1    2
    11    12     9    1
    12    12    13    1
    13     9     8   am
    14     5     4    1
    15     4     6    1
    16    14    13    2
    17    14    16    1
    18     1     8    1
    19     1     7    1
    20     8    11    2
    21     6     7    2
    22     6    21    1
    23    22    21    2
    24    21    23    2
    25    21    24    1
    26    25    24    1
    27    24    26    1
    28    26    27    2
    29    26    32    1
    30    33    32    1
    31    27    28    1
    32    32    30    2
    33    28    29    2
    34    30    29    1
    35    30    31    1
