@<TRIPOS>MOLECULE
31016_out_ligand_01.pdbqt
 32 34 0 0 0
SMALL
GASTEIGER

@<TRIPOS>ATOM
      1  C         19.7370  -22.9210   -9.8900 C.2     1  UNL1        0.0330
      2  C         19.0810  -22.1350  -10.8410 C.2     1  UNL1        0.0170
      3  C         17.6940  -21.9700  -10.7760 C.2     1  UNL1        0.0090
      4  C         16.9310  -22.6030   -9.7770 C.2     1  UNL1       -0.0390
      5  C         15.4440  -22.3690   -9.7740 C.3     1  UNL1        0.0500
      6  C         17.6020  -23.4020   -8.8310 C.2     1  UNL1        0.0860
      7  C         18.9980  -23.5540   -8.8880 C.2     1  UNL1        0.0420
      8  S         16.7480  -24.2450   -7.4980 S.O2    1  UNL1        0.2630
      9  O         17.7330  -24.9130   -6.6740 O.2     1  UNL1       -0.2000
     10  O         15.6550  -25.0000   -8.0740 O.2     1  UNL1       -0.2000
     11  N         16.1340  -22.9790   -6.5690 N.pl3   1  UNL1       -0.2800
     12  H         15.1310  -23.0510   -6.4220 H       1  UNL1        0.1790
     13  C         16.9340  -22.3830   -5.5470 C.2     1  UNL1        0.0490
     14  C         18.0110  -21.5620   -5.9000 C.2     1  UNL1        0.0370
     15  C         18.8510  -21.0150   -4.9230 C.2     1  UNL1       -0.0600
     16  C         20.0430  -20.1970   -5.3200 C.3     1  UNL1        0.0480
     17  C         18.6030  -21.3020   -3.5790 C.2     1  UNL1        0.0070
     18  C         17.5120  -22.0940   -3.2180 C.2     1  UNL1        0.0090
     19  C         16.6590  -22.6360   -4.1920 C.2     1  UNL1       -0.0350
     20  C         15.5080  -23.4930   -3.7490 C.3     1  UNL1        0.0500
     21  C         21.2080  -23.1420   -9.9470 C.2     1  UNL1        0.2560
     22  N         21.8830  -22.3110  -10.8220 N.am    1  UNL1       -0.3230
     23  H         21.3570  -21.5470  -11.2240 H       1  UNL1        0.1690
     24  O         21.6920  -23.9990   -9.2190 O.2     1  UNL1       -0.2670
     25  C         23.2540  -22.3510  -11.1520 C.2     1  UNL1        0.0360
     26  C         24.1170  -21.5560  -10.3860 C.2     1  UNL1        0.0290
     27  C         25.4840  -21.5210  -10.6590 C.2     1  UNL1        0.0040
     28  C         26.0050  -22.2820  -11.7040 C.2     1  UNL1        0.0180
     29  C         25.1590  -23.0870  -12.4720 C.2     1  UNL1        0.0020
     30  C         23.7840  -23.1090  -12.2010 C.2     1  UNL1        0.0480
     31  S         25.7990  -24.0480  -13.8340 S.3     1  UNL1       -0.1340
     32  C         25.0470  -23.1500  -15.2160 C.3     1  UNL1        0.0950
@<TRIPOS>BOND
     1    32    31    1
     2    31    29    1
     3    29    30    1
     4    29    28    2
     5    30    25    2
     6    28    27    1
     7    23    22    1
     8    25    22    1
     9    25    26    1
    10     2     3    1
    11     2     1    2
    12    22    21   am
    13     3     4    2
    14    27    26    2
    15    21     1    1
    16    21    24    2
    17     1     7    1
    18     4     5    1
    19     4     6    1
    20     7     6    2
    21     6     8    1
    22    10     8    2
    23     8     9    2
    24     8    11    1
    25    11    12    1
    26    11    13    1
    27    14    13    2
    28    14    15    1
    29    13    19    1
    30    16    15    1
    31    15    17    2
    32    19    20    1
    33    19    18    2
    34    17    18    1
