@<TRIPOS>MOLECULE
31017_out_ligand_01.pdbqt
 38 41 0 0 0
SMALL
GASTEIGER

@<TRIPOS>ATOM
      1  O         19.4460  -21.0220   -6.3680 O.2     1  UNL1       -0.2670
      2  C         19.5870  -22.1950   -6.6870 C.2     1  UNL1        0.2560
      3  N         18.7650  -23.2480   -6.3460 N.am    1  UNL1       -0.3220
      4  H         18.9630  -24.1550   -6.7730 H       1  UNL1        0.1690
      5  C         20.7240  -22.5600   -7.5820 C.2     1  UNL1        0.0320
      6  C         21.7800  -21.6510   -7.7270 C.2     1  UNL1        0.0190
      7  C         22.8400  -21.9350   -8.5910 C.2     1  UNL1        0.0310
      8  C         22.8560  -23.1350   -9.3020 C.2     1  UNL1        0.0420
      9  C         21.8250  -24.0610   -9.1360 C.2     1  UNL1        0.0310
     10  C         20.7610  -23.7770   -8.2750 C.2     1  UNL1        0.0190
     11  N         23.8780  -23.4050  -10.2520 N.pl3   1  UNL1       -0.2810
     12  H         24.3270  -24.3200  -10.2200 H       1  UNL1        0.1790
     13  S         23.6650  -22.8780  -11.8470 S.O2    1  UNL1        0.2630
     14  O         22.3420  -22.2900  -11.9010 O.2     1  UNL1       -0.2000
     15  O         24.0540  -23.9350  -12.7560 O.2     1  UNL1       -0.2000
     16  C         24.8450  -21.5540  -11.9950 C.2     1  UNL1        0.0790
     17  C         25.5610  -21.1360  -10.8690 C.2     1  UNL1        0.0250
     18  C         26.4710  -20.0870  -10.9870 C.2     1  UNL1        0.0020
     19  C         26.6720  -19.4710  -12.2250 C.2     1  UNL1        0.0000
     20  C         25.9710  -19.9090  -13.3510 C.2     1  UNL1        0.0020
     21  C         25.0580  -20.9580  -13.2420 C.2     1  UNL1        0.0250
     22  C         17.6370  -23.2540   -5.4880 C.2     1  UNL1        0.0500
     23  C         17.7390  -22.9740   -4.1210 C.2     1  UNL1        0.0300
     24  C         16.6130  -23.0170   -3.2940 C.2     1  UNL1        0.0020
     25  C         15.3680  -23.3520   -3.8170 C.2     1  UNL1        0.0010
     26  C         15.2420  -23.6320   -5.1770 C.2     1  UNL1        0.0190
     27  C         16.3630  -23.5700   -6.0230 C.2     1  UNL1        0.0580
     28  C         16.2060  -23.8480   -7.4850 C.2     1  UNL1        0.2540
     29  O         16.5070  -24.9500   -7.9370 O.2     1  UNL1       -0.2680
     30  N         15.7740  -22.8050   -8.2750 N.am    1  UNL1       -0.3530
     31  H         15.7580  -21.8680   -7.8960 H       1  UNL1        0.1630
     32  C         15.7120  -22.9160   -9.7180 C.3     1  UNL1        0.1610
     33  C         16.8990  -22.2490  -10.3680 C.2     1  UNL1       -0.0410
     34  C         16.7730  -20.9750  -10.9420 C.2     1  UNL1        0.0090
     35  C         17.8700  -20.3560  -11.5450 C.2     1  UNL1        0.0010
     36  C         19.1070  -20.9970  -11.5660 C.2     1  UNL1        0.0000
     37  C         19.2470  -22.2590  -10.9920 C.2     1  UNL1        0.0010
     38  C         18.1480  -22.8830  -10.3970 C.2     1  UNL1        0.0090
@<TRIPOS>BOND
     1    20    21    1
     2    20    19    2
     3    21    16    2
     4    15    13    2
     5    19    18    1
     6    16    13    1
     7    16    17    1
     8    14    13    2
     9    13    11    1
    10    36    35    2
    11    36    37    1
    12    35    34    1
    13    37    38    2
    14    18    17    2
    15    34    33    2
    16    38    33    1
    17    33    32    1
    18    11    12    1
    19    11     8    1
    20    32    30    1
    21     8     9    2
    22     8     7    1
    23     9    10    1
    24     7     6    2
    25    10     5    2
    26    30    31    1
    27    30    28   am
    28    29    28    2
    29     6     5    1
    30     5     2    1
    31    28    27    1
    32     4     3    1
    33     2     1    2
    34     2     3   am
    35     3    22    1
    36    27    22    2
    37    27    26    1
    38    22    23    1
    39    26    25    2
    40    23    24    2
    41    25    24    1
