@<TRIPOS>MOLECULE
3101_out_ligand_01.pdbqt
 35 38 0 0 0
SMALL
GASTEIGER

@<TRIPOS>ATOM
      1  S         22.6890  -21.9500   -9.0930 S.3     1  UNL1       -0.0820
      2  C         22.3700  -23.7310   -8.8810 C.3     1  UNL1        0.1850
      3  C         20.9420  -24.0530   -8.4460 C.2     1  UNL1        0.2310
      4  N         20.3290  -23.0330   -7.7350 N.am    1  UNL1       -0.3270
      5  H         20.8670  -22.1770   -7.6590 H       1  UNL1        0.1690
      6  O         20.4670  -25.1670   -8.6610 O.2     1  UNL1       -0.2720
      7  C         19.0330  -23.0120   -7.1860 C.2     1  UNL1        0.0340
      8  C         18.8040  -22.1140   -6.1330 C.2     1  UNL1        0.0310
      9  C         17.5450  -22.0210   -5.5320 C.2     1  UNL1        0.0270
     10  C         16.5030  -22.8260   -5.9960 C.2     1  UNL1        0.0740
     11  C         16.7190  -23.7330   -7.0340 C.2     1  UNL1        0.0270
     12  C         17.9830  -23.8200   -7.6300 C.2     1  UNL1        0.0310
     13  S         14.9150  -22.7370   -5.2230 S.O2    1  UNL1        0.2390
     14  O         14.4670  -24.0750   -4.9030 O.2     1  UNL1       -0.2060
     15  O         14.0870  -21.7920   -5.9390 O.2     1  UNL1       -0.2060
     16  N         15.2840  -22.0120   -3.7530 N.3     1  UNL1       -0.2250
     17  H         16.2840  -21.8260   -3.6990 H       1  UNL1        0.1360
     18  H         14.9270  -22.5840   -2.9850 H       1  UNL1        0.1360
     19  C         23.2280  -21.9000  -10.7760 C.ar    1  UNL1        0.1770
     20  N         24.4910  -22.0900  -10.9690 N.ar    1  UNL1       -0.2230
     21  C         25.0090  -21.9680  -12.2550 C.ar    1  UNL1        0.0750
     22  C         26.3740  -22.1900  -12.4530 C.2     1  UNL1        0.0320
     23  C         24.2190  -21.6020  -13.3370 C.ar    1  UNL1        0.0610
     24  C         26.9400  -22.0480  -13.7220 C.2     1  UNL1        0.0020
     25  C         26.1400  -21.6830  -14.8050 C.2     1  UNL1        0.0010
     26  C         24.7760  -21.4590  -14.6160 C.2     1  UNL1        0.0190
     27  C         22.7780  -21.3930  -13.1000 C.ar    1  UNL1        0.2670
     28  O         22.0840  -21.0860  -14.0690 O.2     1  UNL1       -0.2670
     29  N         22.3150  -21.6030  -11.7920 N.ar    1  UNL1       -0.2560
     30  C         20.8970  -21.5270  -11.5790 C.2     1  UNL1        0.0440
     31  C         20.2300  -20.2950  -11.6660 C.2     1  UNL1        0.0300
     32  C         18.8470  -20.2170  -11.4760 C.2     1  UNL1        0.0020
     33  C         18.1110  -21.3700  -11.2130 C.2     1  UNL1        0.0000
     34  C         18.7550  -22.6040  -11.1510 C.2     1  UNL1        0.0020
     35  C         20.1380  -22.6830  -11.3380 C.2     1  UNL1        0.0300
@<TRIPOS>BOND
     1    25    26    2
     2    25    24    1
     3    26    23    1
     4    28    27    2
     5    24    22    2
     6    23    27   ar
     7    23    21   ar
     8    27    29   ar
     9    22    21    1
    10    21    20   ar
    11    29    30    1
    12    29    19   ar
    13    31    30    2
    14    31    32    1
    15    30    35    1
    16    32    33    2
    17    35    34    2
    18    33    34    1
    19    20    19   ar
    20    19     1    1
    21     1     2    1
    22     2     3    1
    23     6     3    2
    24     3     4   am
    25     4     5    1
    26     4     7    1
    27    12     7    2
    28    12    11    1
    29     7     8    1
    30    11    10    2
    31     8     9    2
    32    10     9    1
    33    10    13    1
    34    15    13    2
    35    13    14    2
    36    13    16    1
    37    16    17    1
    38    16    18    1
