@<TRIPOS>MOLECULE
31015_out_ligand_01.pdbqt
 33 35 0 0 0
SMALL
GASTEIGER

@<TRIPOS>ATOM
      1  C         17.6700  -23.2830   -8.8580 C.2     1  UNL1        0.0810
      2  C         19.0630  -23.4450   -8.9010 C.2     1  UNL1        0.0420
      3  C         19.7990  -22.9040   -9.9590 C.2     1  UNL1        0.0330
      4  C         19.1480  -22.1880  -10.9670 C.2     1  UNL1        0.0170
      5  C         17.7600  -22.0310  -10.9250 C.2     1  UNL1        0.0090
      6  C         16.9980  -22.5680   -9.8710 C.2     1  UNL1       -0.0390
      7  C         15.5070  -22.3710   -9.8970 C.3     1  UNL1        0.0500
      8  C         21.2770  -23.0730   -9.9580 C.2     1  UNL1        0.2560
      9  O         21.7640  -23.8410   -9.1370 O.2     1  UNL1       -0.2670
     10  N         21.9430  -22.3480  -10.9280 N.am    1  UNL1       -0.3230
     11  H         21.3730  -21.8560  -11.6040 H       1  UNL1        0.1690
     12  C         23.3370  -22.2850  -11.1400 C.2     1  UNL1        0.0350
     13  C         24.2010  -21.4690  -10.4090 C.2     1  UNL1        0.0290
     14  C         25.5720  -21.4620  -10.6820 C.2     1  UNL1        0.0030
     15  C         26.0920  -22.2660  -11.6940 C.2     1  UNL1        0.0160
     16  C         25.2420  -23.0830  -12.4500 C.2     1  UNL1        0.0500
     17  C         23.8660  -23.0890  -12.1590 C.2     1  UNL1        0.0450
     18  C         25.7950  -23.9720  -13.5340 C.3     1  UNL1        0.4170
     19  F         26.2610  -23.2720  -14.6060 F       1  UNL1       -0.1660
     20  F         24.8590  -24.8290  -14.0280 F       1  UNL1       -0.1660
     21  F         26.8340  -24.7480  -13.1190 F       1  UNL1       -0.1660
     22  S         16.7920  -24.0260   -7.4850 S.O2    1  UNL1        0.2460
     23  O         17.7750  -24.6380   -6.6170 O.2     1  UNL1       -0.2060
     24  O         15.6890  -24.7860   -8.0280 O.2     1  UNL1       -0.2060
     25  N         16.2290  -22.6260   -6.6900 N.pl3   1  UNL1       -0.1810
     26  H         16.1680  -21.8740   -7.3760 H       1  UNL1        0.1460
     27  C         16.9980  -22.2420   -5.5370 C.2     1  UNL1        0.0280
     28  C         18.1360  -21.4520   -5.7320 C.2     1  UNL1        0.0250
     29  C         18.9010  -21.0340   -4.6440 C.2     1  UNL1        0.0020
     30  C         18.5280  -21.4010   -3.3550 C.2     1  UNL1        0.0010
     31  C         17.3900  -22.1840   -3.1530 C.2     1  UNL1        0.0080
     32  C         16.6080  -22.6140   -4.2390 C.2     1  UNL1       -0.0400
     33  C         15.3870  -23.4480   -3.9690 C.3     1  UNL1        0.0500
@<TRIPOS>BOND
     1    19    18    1
     2    20    18    1
     3    18    21    1
     4    18    16    1
     5    16    17    1
     6    16    15    2
     7    17    12    2
     8    15    14    1
     9    11    10    1
    10    12    10    1
    11    12    13    1
    12     4     5    2
    13     4     3    1
    14    10     8   am
    15     5     6    1
    16    14    13    2
    17     3     8    1
    18     3     2    2
    19     8     9    2
    20     7     6    1
    21     6     1    2
    22     2     1    1
    23     1    22    1
    24    24    22    2
    25    22    25    1
    26    22    23    2
    27    26    25    1
    28    25    27    1
    29    28    27    2
    30    28    29    1
    31    27    32    1
    32    29    30    2
    33    32    33    1
    34    32    31    2
    35    30    31    1
