@<TRIPOS>MOLECULE
31027_out_ligand_01.pdbqt
 32 34 0 0 0
SMALL
GASTEIGER

@<TRIPOS>ATOM
      1  C         17.6390  -23.5760   -8.6030 C.2     1  UNL1        0.0810
      2  C         19.0250  -23.7910   -8.5740 C.2     1  UNL1        0.0420
      3  C         19.8460  -23.1940   -9.5340 C.2     1  UNL1        0.0330
      4  C         19.2850  -22.3930  -10.5300 C.2     1  UNL1        0.0170
      5  C         17.9040  -22.1820  -10.5600 C.2     1  UNL1        0.0090
      6  C         17.0580  -22.7740   -9.6060 C.2     1  UNL1       -0.0390
      7  C         15.5820  -22.4920   -9.6940 C.3     1  UNL1        0.0500
      8  S         16.6570  -24.3340   -7.3110 S.O2    1  UNL1        0.2460
      9  O         15.5450  -25.0110   -7.9440 O.2     1  UNL1       -0.2060
     10  O         17.5620  -25.0350   -6.4270 O.2     1  UNL1       -0.2060
     11  N         16.0250  -22.9430   -6.5500 N.pl3   1  UNL1       -0.1810
     12  H         15.0910  -23.1690   -6.2070 H       1  UNL1        0.1460
     13  C         16.8600  -22.4010   -5.5120 C.2     1  UNL1        0.0290
     14  C         16.6120  -22.6690   -4.1550 C.2     1  UNL1       -0.0400
     15  C         17.4790  -22.1230   -3.1960 C.2     1  UNL1        0.0090
     16  C         15.4560  -23.5100   -3.6950 C.3     1  UNL1        0.0500
     17  C         18.5700  -21.3370   -3.5760 C.2     1  UNL1        0.0070
     18  C         18.8260  -21.0890   -4.9270 C.2     1  UNL1       -0.0600
     19  C         19.9840  -20.2290   -5.3380 C.3     1  UNL1        0.0480
     20  C         17.9570  -21.6180   -5.8870 C.2     1  UNL1        0.0310
     21  C         21.3070  -23.4600   -9.4840 C.2     1  UNL1        0.2510
     22  O         21.7320  -24.4190   -8.8520 O.2     1  UNL1       -0.2680
     23  N         22.1080  -22.5610  -10.1550 N.am    1  UNL1       -0.3570
     24  H         21.7060  -21.6980  -10.4960 H       1  UNL1        0.1620
     25  C         23.5540  -22.6760  -10.1290 C.3     1  UNL1        0.1270
     26  C         24.1500  -22.8790  -11.5230 C.3     1  UNL1        0.0580
     27  C         24.9780  -21.6930  -11.9530 C.2     1  UNL1       -0.0570
     28  C         24.9220  -21.2370  -13.2770 C.2     1  UNL1        0.0070
     29  C         25.6690  -20.1270  -13.6740 C.2     1  UNL1        0.0010
     30  C         26.4740  -19.4620  -12.7520 C.2     1  UNL1        0.0000
     31  C         26.5350  -19.9050  -11.4330 C.2     1  UNL1        0.0010
     32  C         25.7890  -21.0160  -11.0330 C.2     1  UNL1        0.0070
@<TRIPOS>BOND
     1    29    28    1
     2    29    30    2
     3    28    27    2
     4    30    31    1
     5    27    26    1
     6    27    32    1
     7    26    25    1
     8    31    32    2
     9     5     4    2
    10     5     6    1
    11     4     3    1
    12    24    23    1
    13    23    25    1
    14    23    21   am
    15     7     6    1
    16     6     1    2
    17     3    21    1
    18     3     2    2
    19    21    22    2
    20     1     2    1
    21     1     8    1
    22     9     8    2
    23     8    11    1
    24     8    10    2
    25    11    12    1
    26    11    13    1
    27    20    13    2
    28    20    18    1
    29    13    14    1
    30    19    18    1
    31    18    17    2
    32    14    16    1
    33    14    15    2
    34    17    15    1
