@<TRIPOS>MOLECULE
31040_out_ligand_01.pdbqt
 30 32 0 0 0
SMALL
GASTEIGER

@<TRIPOS>ATOM
      1  C         17.3830  -23.2670   -8.7490 C.2     1  UNL1        0.0800
      2  C         16.5720  -22.5840   -9.6600 C.2     1  UNL1        0.0260
      3  C         17.1570  -21.7790  -10.6410 C.2     1  UNL1        0.0090
      4  C         18.5520  -21.6530  -10.7260 C.2     1  UNL1       -0.0460
      5  C         19.1530  -20.7610  -11.7760 C.3     1  UNL1        0.0490
      6  C         19.3500  -22.3850   -9.8250 C.2     1  UNL1        0.0390
      7  C         18.7740  -23.1860   -8.8350 C.2     1  UNL1        0.0420
      8  S         16.6350  -24.3060   -7.5120 S.O2    1  UNL1        0.2630
      9  O         15.4900  -24.9480   -8.1260 O.2     1  UNL1       -0.2000
     10  O         17.6850  -25.0910   -6.9000 O.2     1  UNL1       -0.2000
     11  N         16.0090  -23.2030   -6.3990 N.pl3   1  UNL1       -0.2810
     12  H         15.2720  -22.6280   -6.8000 H       1  UNL1        0.1790
     13  C         16.8830  -22.5950   -5.4560 C.2     1  UNL1        0.0430
     14  C         16.6450  -22.7870   -4.0950 C.2     1  UNL1        0.0300
     15  C         17.4540  -22.1530   -3.1530 C.2     1  UNL1        0.0030
     16  C         18.4980  -21.3270   -3.5710 C.2     1  UNL1        0.0070
     17  C         18.7400  -21.1250   -4.9350 C.2     1  UNL1       -0.0600
     18  C         19.8750  -20.2530   -5.3860 C.3     1  UNL1        0.0480
     19  C         17.9340  -21.7790   -5.8750 C.2     1  UNL1        0.0370
     20  C         20.8290  -22.3330   -9.8810 C.2     1  UNL1        0.2570
     21  O         21.4270  -22.1560   -8.8300 O.2     1  UNL1       -0.2670
     22  N         21.3180  -22.5270  -11.1530 N.am    1  UNL1       -0.3060
     23  H         20.6690  -22.7280  -11.8980 H       1  UNL1        0.1700
     24  C         22.6500  -22.5060  -11.5040 C.2     1  UNL1        0.1520
     25  C         23.1430  -21.8580  -12.6630 C.2     1  UNL1        0.0780
     26  C         24.5080  -22.0600  -12.6560 C.2     1  UNL1        0.0300
     27  C         25.5640  -21.6270  -13.6010 C.3     1  UNL1        0.0700
     28  N         24.7500  -22.7990  -11.5280 N.pl3   1  UNL1       -0.2770
     29  C         26.0240  -23.2830  -11.0510 C.3     1  UNL1        0.1790
     30  N         23.6440  -23.0620  -10.8170 N.2     1  UNL1       -0.1540
@<TRIPOS>BOND
     1    27    26    1
     2    25    26    2
     3    25    24    1
     4    26    28    1
     5    23    22    1
     6     5     4    1
     7    28    29    1
     8    28    30    1
     9    24    22    1
    10    24    30    2
    11    22    20   am
    12     4     3    2
    13     4     6    1
    14     3     2    1
    15    20     6    1
    16    20    21    2
    17     6     7    2
    18     2     1    2
    19     7     1    1
    20     1     8    1
    21     9     8    2
    22     8    10    2
    23     8    11    1
    24    12    11    1
    25    11    13    1
    26    19    13    2
    27    19    17    1
    28    13    14    1
    29    18    17    1
    30    17    16    2
    31    14    15    2
    32    16    15    1
