@<TRIPOS>MOLECULE
31059_out_ligand_01.pdbqt
 30 32 0 0 0
SMALL
GASTEIGER

@<TRIPOS>ATOM
      1  C         19.9440  -21.6720  -11.0530 C.2     1  UNL1        0.0680
      2  C         19.1810  -20.8640  -11.9060 C.2     1  UNL1        0.0210
      3  C         17.7950  -20.8900  -11.8260 C.2     1  UNL1        0.0200
      4  C         17.2140  -21.7330  -10.8970 C.2     1  UNL1        0.1180
      5  N         17.9180  -22.5350  -10.0710 N.2     1  UNL1       -0.2530
      6  C         19.2760  -22.5110  -10.1620 C.2     1  UNL1        0.1130
      7  C         21.4170  -21.5890  -11.1840 C.2     1  UNL1        0.2600
      8  N         21.9190  -21.8940  -12.4260 N.am    1  UNL1       -0.3070
      9  H         21.2910  -22.1600  -13.1750 H       1  UNL1        0.1700
     10  O         22.0720  -21.3310  -10.1800 O.2     1  UNL1       -0.2670
     11  C         23.2500  -21.8800  -12.8440 C.2     1  UNL1        0.1310
     12  C         23.7370  -21.0860  -13.8700 C.2     1  UNL1        0.0500
     13  C         25.0820  -21.1870  -14.2220 C.2     1  UNL1        0.0060
     14  C         25.9040  -22.0710  -13.5340 C.2     1  UNL1        0.0370
     15  C         25.3420  -22.8180  -12.5090 C.2     1  UNL1        0.1260
     16  N         24.0310  -22.7390  -12.1640 N.2     1  UNL1       -0.2260
     17  C         26.1690  -23.7870  -11.7090 C.2     1  UNL1        0.2690
     18  N         26.1410  -23.6270  -10.3290 N.am    1  UNL1       -0.3600
     19  C         26.8130  -24.5770   -9.4760 C.3     1  UNL1        0.1490
     20  H         25.4110  -23.0620   -9.9200 H       1  UNL1        0.1620
     21  O         26.8110  -24.6760  -12.2560 O.2     1  UNL1       -0.2660
     22  S         20.0960  -23.6670   -9.0760 S.3     1  UNL1       -0.0700
     23  C         19.2840  -23.2620   -7.5430 C.2     1  UNL1        0.0070
     24  C         18.4100  -24.1800   -6.9530 C.2     1  UNL1        0.0190
     25  C         17.7610  -23.8600   -5.7580 C.2     1  UNL1        0.0090
     26  C         17.9800  -22.6220   -5.1300 C.2     1  UNL1       -0.0560
     27  C         17.2710  -22.3240   -3.8380 C.3     1  UNL1        0.0490
     28  C         18.8890  -21.7070   -5.7030 C.2     1  UNL1       -0.0550
     29  C         19.1780  -20.3780   -5.0650 C.3     1  UNL1        0.0490
     30  C         19.5250  -22.0360   -6.9130 C.2     1  UNL1        0.0260
@<TRIPOS>BOND
     1    13    12    1
     2    13    14    2
     3    12    11    2
     4    14    15    1
     5     9     8    1
     6    11     8    1
     7    11    16    1
     8    15    16    2
     9    15    17    1
    10     8     7   am
    11    21    17    2
    12     2     3    1
    13     2     1    2
    14     3     4    2
    15    17    18   am
    16     7     1    1
    17     7    10    2
    18     1     6    1
    19     4     5    1
    20    18    20    1
    21    18    19    1
    22     6     5    2
    23     6    22    1
    24    22    23    1
    25    23    24    2
    26    23    30    1
    27    24    25    1
    28    30    28    2
    29    25    26    2
    30    28    26    1
    31    28    29    1
    32    26    27    1
