@<TRIPOS>MOLECULE
31063_out_ligand_01.pdbqt
 27 29 0 0 0
SMALL
GASTEIGER

@<TRIPOS>ATOM
      1  N         18.9330  -24.0670   -8.4050 N.pl3   1  UNL1       -0.2780
      2  H         18.5700  -24.5040   -9.2550 H       1  UNL1        0.1790
      3  C         17.9780  -23.5290   -7.4870 C.2     1  UNL1        0.0810
      4  C         18.1320  -23.5360   -6.1010 C.2     1  UNL1        0.0340
      5  C         17.1060  -23.0600   -5.2710 C.2     1  UNL1        0.0190
      6  C         15.9010  -22.6020   -5.8210 C.2     1  UNL1        0.0340
      7  C         15.7370  -22.6080   -7.2080 C.2     1  UNL1        0.0610
      8  C         16.7640  -23.0780   -8.0200 C.2     1  UNL1        0.1440
      9  F         16.5810  -23.0990   -9.3510 F       1  UNL1       -0.2040
     10  C         14.7810  -22.0930   -4.9850 C.2     1  UNL1        0.2490
     11  N         13.6880  -21.5800   -5.6220 N.am    1  UNL1       -0.3660
     12  H         13.6840  -21.3200   -6.5970 H       1  UNL1        0.1590
     13  H         12.9930  -21.1450   -5.0270 H       1  UNL1        0.1590
     14  O         14.8460  -22.0990   -3.7630 O.2     1  UNL1       -0.2680
     15  S         20.4980  -23.4920   -8.5790 S.O2    1  UNL1        0.2640
     16  O         20.7060  -22.5700   -7.4850 O.2     1  UNL1       -0.2000
     17  O         21.3610  -24.6350   -8.7860 O.2     1  UNL1       -0.2000
     18  C         20.4600  -22.5060  -10.0670 C.2     1  UNL1        0.0900
     19  C         19.2690  -21.8260  -10.3730 C.2     1  UNL1        0.0260
     20  C         19.1660  -21.0900  -11.5450 C.2     1  UNL1        0.0020
     21  C         20.2510  -21.0220  -12.4140 C.2     1  UNL1        0.0120
     22  C         21.4610  -21.6720  -12.1180 C.2     1  UNL1       -0.0240
     23  C         22.5370  -21.5590  -13.0130 C.2     1  UNL1        0.0120
     24  C         21.5960  -22.4260  -10.9220 C.2     1  UNL1       -0.0030
     25  C         23.7620  -22.1670  -12.7480 C.2     1  UNL1        0.0010
     26  C         23.9260  -22.8930  -11.5780 C.2     1  UNL1        0.0010
     27  C         22.8630  -23.0180  -10.6790 C.2     1  UNL1        0.0140
@<TRIPOS>BOND
     1    23    25    2
     2    23    22    1
     3    25    26    1
     4    21    22    2
     5    21    20    1
     6    22    24    1
     7    26    27    2
     8    20    19    2
     9    24    27    1
    10    24    18    2
    11    19    18    1
    12    18    15    1
    13     9     8    1
    14     2     1    1
    15    17    15    2
    16    15     1    1
    17    15    16    2
    18     1     3    1
    19     8     3    2
    20     8     7    1
    21     3     4    1
    22     7     6    2
    23    12    11    1
    24     4     5    2
    25     6     5    1
    26     6    10    1
    27    11    13    1
    28    11    10   am
    29    10    14    2
