@<TRIPOS>MOLECULE
31084_out_ligand_01.pdbqt
 32 35 0 0 0
SMALL
GASTEIGER

@<TRIPOS>ATOM
      1  C         18.2360  -23.4860   -8.3990 C.2     1  UNL1        0.0790
      2  C         18.1020  -22.5950   -9.4670 C.2     1  UNL1        0.0260
      3  C         19.2450  -22.1470  -10.1340 C.2     1  UNL1        0.0180
      4  C         20.5170  -22.5900   -9.7400 C.2     1  UNL1        0.0320
      5  C         20.6360  -23.5180   -8.6940 C.2     1  UNL1        0.0180
      6  C         19.4940  -23.9670   -8.0240 C.2     1  UNL1        0.0260
      7  C         21.7060  -22.0720  -10.4800 C.2     1  UNL1        0.2580
      8  O         22.5630  -21.4690   -9.8450 O.2     1  UNL1       -0.2670
      9  N         21.7290  -22.3710  -11.8210 N.am    1  UNL1       -0.2860
     10  H         21.0380  -22.9650  -12.2500 H       1  UNL1        0.1720
     11  C         22.7380  -21.9620  -12.6400 C.ar    1  UNL1        0.2550
     12  N         22.7320  -21.1700  -13.6880 N.ar    1  UNL1       -0.2060
     13  C         24.0400  -21.1420  -14.0930 C.ar    1  UNL1        0.0980
     14  C         24.6620  -20.4730  -15.1520 C.2     1  UNL1        0.0760
     15  C         24.8030  -21.9380  -13.2540 C.ar    1  UNL1        0.1080
     16  C         26.0390  -20.6520  -15.3030 C.2     1  UNL1        0.1180
     17  F         26.6690  -20.0270  -16.3060 F       1  UNL1       -0.2060
     18  C         26.7840  -21.4630  -14.4410 C.2     1  UNL1        0.0450
     19  C         26.1730  -22.1380  -13.3770 C.2     1  UNL1        0.0430
     20  O         23.9690  -22.4710  -12.3160 O.2     1  UNL1       -0.2760
     21  S         16.7800  -24.0650   -7.5510 S.O2    1  UNL1        0.2630
     22  O         17.1870  -25.1100   -6.6360 O.2     1  UNL1       -0.2000
     23  O         15.7610  -24.3020   -8.5510 O.2     1  UNL1       -0.2000
     24  N         16.2750  -22.7120   -6.6830 N.pl3   1  UNL1       -0.2800
     25  H         15.8200  -22.0180   -7.2730 H       1  UNL1        0.1790
     26  C         17.0130  -22.2650   -5.5490 C.2     1  UNL1        0.0480
     27  C         18.1620  -21.4900   -5.7320 C.2     1  UNL1        0.0300
     28  C         18.8840  -21.0230   -4.6340 C.2     1  UNL1        0.0020
     29  C         18.4650  -21.3370   -3.3450 C.2     1  UNL1        0.0010
     30  C         17.3260  -22.1210   -3.1540 C.2     1  UNL1        0.0090
     31  C         16.5860  -22.5960   -4.2500 C.2     1  UNL1       -0.0350
     32  C         15.3790  -23.4540   -3.9980 C.3     1  UNL1        0.0500
@<TRIPOS>BOND
     1    17    16    1
     2    16    14    1
     3    16    18    2
     4    14    13    2
     5    18    19    1
     6    13    12   ar
     7    13    15   ar
     8    12    11   ar
     9    19    15    2
    10    15    20   ar
    11    11    20   ar
    12    11     9    1
    13    10     9    1
    14     9     7   am
    15     7     8    2
    16     7     4    1
    17     3     4    2
    18     3     2    1
    19     4     5    1
    20     2     1    2
    21     5     6    2
    22    23    21    2
    23     1     6    1
    24     1    21    1
    25    21    24    1
    26    21    22    2
    27    25    24    1
    28    24    26    1
    29    27    26    2
    30    27    28    1
    31    26    31    1
    32    28    29    2
    33    31    32    1
    34    31    30    2
    35    29    30    1
