@<TRIPOS>MOLECULE
31097_out_ligand_01.pdbqt
 34 38 0 0 0
SMALL
GASTEIGER

@<TRIPOS>ATOM
      1  C         22.7980  -22.0110  -12.2830 C.2     1  UNL1        0.0330
      2  C         21.6700  -21.2560  -12.6950 C.2     1  UNL1        0.0180
      3  C         20.4500  -21.3570  -12.0160 C.2     1  UNL1        0.0190
      4  C         20.3920  -22.2200  -10.9390 C.2     1  UNL1        0.0480
      5  C         21.4870  -22.9660  -10.5410 C.2     1  UNL1        0.0490
      6  C         22.7010  -22.8910  -11.1930 C.2     1  UNL1        0.0350
      7  C         21.0810  -23.7600   -9.3830 C.2     1  UNL1        0.2620
      8  O         21.8180  -24.5210   -8.7850 O.2     1  UNL1       -0.2670
      9  N         19.7690  -23.4570   -9.1470 N.am    1  UNL1       -0.2760
     10  C         19.2880  -22.5370  -10.0350 C.2     1  UNL1        0.2620
     11  O         18.1830  -22.0370  -10.1110 O.2     1  UNL1       -0.2670
     12  C         24.1080  -21.9240  -12.9900 C.2     1  UNL1        0.2520
     13  O         24.2660  -22.4890  -14.0650 O.2     1  UNL1       -0.2680
     14  N         25.1070  -21.2180  -12.3650 N.am    1  UNL1       -0.3500
     15  H         25.0340  -20.9720  -11.3870 H       1  UNL1        0.1630
     16  C         26.4460  -21.2040  -12.9050 C.3     1  UNL1        0.2010
     17  C         26.5140  -20.1160  -13.9190 C.ar    1  UNL1        0.1230
     18  N         26.7890  -18.8440  -13.6970 N.ar    1  UNL1       -0.2320
     19  C         26.7300  -18.2310  -14.9270 C.ar    1  UNL1        0.0880
     20  C         26.9520  -16.8930  -15.2720 C.2     1  UNL1        0.0760
     21  C         26.3890  -19.1470  -15.9180 C.ar    1  UNL1        0.0620
     22  C         26.8190  -16.5370  -16.6140 C.2     1  UNL1        0.1180
     23  F         27.0290  -15.2620  -16.9730 F       1  UNL1       -0.2060
     24  C         26.4720  -17.4640  -17.5940 C.2     1  UNL1        0.0440
     25  C         26.2450  -18.8050  -17.2660 C.2     1  UNL1        0.0350
     26  N         26.2540  -20.3370  -15.2500 N.ar    1  UNL1       -0.3410
     27  H         25.9990  -21.2240  -15.6630 H       1  UNL1        0.1670
     28  C         19.0080  -23.9840   -8.0370 C.3     1  UNL1        0.1740
     29  C         18.8830  -22.9700   -6.9240 C.2     1  UNL1       -0.0400
     30  C         19.8000  -21.9150   -6.8150 C.2     1  UNL1        0.0090
     31  C         19.7010  -20.9970   -5.7680 C.2     1  UNL1        0.0010
     32  C         18.6920  -21.1280   -4.8170 C.2     1  UNL1        0.0000
     33  C         17.7830  -22.1810   -4.9050 C.2     1  UNL1        0.0010
     34  C         17.8800  -23.1010   -5.9510 C.2     1  UNL1        0.0090
@<TRIPOS>BOND
     1    24    25    2
     2    24    22    1
     3    25    21    1
     4    23    22    1
     5    22    20    2
     6    21    26   ar
     7    21    19   ar
     8    27    26    1
     9    20    19    1
    10    26    17   ar
    11    19    18   ar
    12    13    12    2
    13    17    18   ar
    14    17    16    1
    15    12    14   am
    16    12     1    1
    17    16    14    1
    18     2     1    2
    19     2     3    1
    20    14    15    1
    21     1     6    1
    22     3     4    2
    23     6     5    2
    24     4     5    1
    25     4    10    1
    26     5     7    1
    27    11    10    2
    28    10     9   am
    29     7     9   am
    30     7     8    2
    31     9    28    1
    32    28    29    1
    33    29    30    2
    34    29    34    1
    35    30    31    1
    36    34    33    2
    37    31    32    2
    38    33    32    1
