@<TRIPOS>MOLECULE
31094_out_ligand_01.pdbqt
 29 31 0 0 0
SMALL
GASTEIGER

@<TRIPOS>ATOM
      1  C         22.5820  -22.0910  -11.7300 C.2     1  UNL1       -0.0210
      2  C         22.0090  -22.6090  -10.5490 C.2     1  UNL1        0.0110
      3  C         20.6440  -22.4590  -10.2720 C.2     1  UNL1        0.0170
      4  C         19.8170  -21.7890  -11.1750 C.2     1  UNL1        0.0320
      5  C         20.3690  -21.2540  -12.3410 C.2     1  UNL1        0.0170
      6  C         21.7330  -21.4080  -12.6170 C.2     1  UNL1        0.0110
      7  C         18.3620  -21.6020  -10.9260 C.2     1  UNL1        0.2510
      8  O         17.7000  -20.8700  -11.6540 O.2     1  UNL1       -0.2680
      9  N         17.8280  -22.3180   -9.8750 N.am    1  UNL1       -0.3570
     10  H         18.3680  -23.0910   -9.5060 H       1  UNL1        0.1620
     11  C         16.3910  -22.3670   -9.6670 C.3     1  UNL1        0.1270
     12  C         15.9470  -23.5860   -8.8510 C.3     1  UNL1        0.0610
     13  C         16.2470  -23.4390   -7.3780 C.2     1  UNL1       -0.0180
     14  C         15.3770  -22.7310   -6.5370 C.2     1  UNL1        0.0100
     15  C         15.6710  -22.5810   -5.1790 C.2     1  UNL1        0.0010
     16  C         16.8380  -23.1320   -4.6480 C.2     1  UNL1        0.0030
     17  C         17.7120  -23.8340   -5.4750 C.2     1  UNL1        0.0430
     18  C         17.4130  -23.9800   -6.8270 C.2     1  UNL1        0.1220
     19  F         18.2780  -24.6430   -7.6070 F       1  UNL1       -0.2060
     20  C         24.0720  -22.2700  -12.0020 C.3     1  UNL1        0.1390
     21  C         25.0350  -21.6570  -10.9810 C.3     1  UNL1        0.0540
     22  N         24.3950  -23.6760  -12.1740 N.am    1  UNL1       -0.3210
     23  C         24.9220  -23.9510  -13.4100 C.2     1  UNL1        0.3240
     24  H         24.1770  -24.4100  -11.5140 H       1  UNL1        0.1650
     25  O         25.2260  -25.0600  -13.8110 O.2     1  UNL1       -0.2470
     26  N         25.0130  -22.7980  -14.1100 N.am    1  UNL1       -0.2770
     27  C         24.4840  -21.7580  -13.4050 C.2     1  UNL1        0.2580
     28  H         25.3310  -22.7400  -15.0620 H       1  UNL1        0.1730
     29  O         24.3760  -20.6180  -13.8310 O.2     1  UNL1       -0.2700
@<TRIPOS>BOND
     1    28    26    1
     2    26    23   am
     3    26    27   am
     4    29    27    2
     5    25    23    2
     6    23    22   am
     7    27    20    1
     8     6     5    1
     9     6     1    2
    10     5     4    2
    11    22    20    1
    12    22    24    1
    13    20     1    1
    14    20    21    1
    15     1     2    1
    16     8     7    2
    17     4     7    1
    18     4     3    1
    19     7     9   am
    20     2     3    2
    21     9    11    1
    22     9    10    1
    23    11    12    1
    24    12    13    1
    25    19    18    1
    26    13    18    2
    27    13    14    1
    28    18    17    1
    29    14    15    2
    30    17    16    2
    31    15    16    1
