@<TRIPOS>MOLECULE
31113_out_ligand_01.pdbqt
 31 34 0 0 0
SMALL
GASTEIGER

@<TRIPOS>ATOM
      1  C         20.5550  -21.8970  -11.5080 C.2     1  UNL1        0.0320
      2  C         21.3040  -22.5910  -10.5540 C.2     1  UNL1        0.0170
      3  C         22.6830  -22.7620  -10.7190 C.2     1  UNL1        0.0110
      4  C         23.3530  -22.2370  -11.8370 C.2     1  UNL1       -0.0210
      5  C         22.5810  -21.5270  -12.7830 C.2     1  UNL1        0.0110
      6  C         21.2020  -21.3550  -12.6200 C.2     1  UNL1        0.0170
      7  C         19.0900  -21.7380  -11.2820 C.2     1  UNL1        0.2510
      8  N         18.4670  -22.7470  -10.5820 N.am    1  UNL1       -0.3510
      9  H         19.0350  -23.3660  -10.0180 H       1  UNL1        0.1630
     10  O         18.5110  -20.7380  -11.6920 O.2     1  UNL1       -0.2680
     11  C         17.1080  -22.5980  -10.1100 C.3     1  UNL1        0.1830
     12  C         17.1570  -22.4840   -8.6240 C.2     1  UNL1        0.0700
     13  N         18.3080  -22.0580   -7.9930 N.2     1  UNL1       -0.2320
     14  C         18.0150  -22.0390   -6.7080 C.2     1  UNL1        0.1340
     15  C         18.8070  -21.6870   -5.5790 C.2     1  UNL1        0.0510
     16  N         16.6990  -22.4330   -6.4710 N.pl3   1  UNL1       -0.3090
     17  C         18.2710  -21.7440   -4.3450 C.2     1  UNL1        0.0060
     18  C         16.8940  -22.1580   -4.1330 C.2     1  UNL1        0.0250
     19  C         16.1240  -22.4970   -5.1880 C.2     1  UNL1        0.0140
     20  C         14.6970  -22.9300   -5.0390 C.3     1  UNL1        0.0680
     21  C         16.1580  -22.7170   -7.7020 C.2     1  UNL1        0.1270
     22  C         24.8560  -22.4040  -12.0430 C.3     1  UNL1        0.1390
     23  C         25.3820  -22.1810  -13.4650 C.3     1  UNL1        0.0540
     24  N         25.2970  -23.7060  -11.5740 N.am    1  UNL1       -0.3210
     25  C         26.2210  -23.6200  -10.5640 C.2     1  UNL1        0.3240
     26  H         24.9140  -24.5950  -11.8700 H       1  UNL1        0.1650
     27  O         26.7050  -24.5700   -9.9760 O.2     1  UNL1       -0.2470
     28  N         26.4730  -22.3150  -10.3170 N.am    1  UNL1       -0.2770
     29  C         25.6840  -21.5130  -11.0860 C.2     1  UNL1        0.2580
     30  H         27.0870  -21.9870   -9.5920 H       1  UNL1        0.1730
     31  O         25.6660  -20.2920  -11.0200 O.2     1  UNL1       -0.2700
@<TRIPOS>BOND
     1    23    22    1
     2     5     6    1
     3     5     4    2
     4     6     1    2
     5    22     4    1
     6    22    24    1
     7    22    29    1
     8    26    24    1
     9     4     3    1
    10    10     7    2
    11    24    25   am
    12     1     7    1
    13     1     2    1
    14     7     8   am
    15    29    31    2
    16    29    28   am
    17     3     2    2
    18     8    11    1
    19     8     9    1
    20    25    28   am
    21    25    27    2
    22    28    30    1
    23    11    12    1
    24    12    13    1
    25    12    21    2
    26    13    14    2
    27    21    16    1
    28    14    16    1
    29    14    15    1
    30    16    19    1
    31    15    17    2
    32    19    20    1
    33    19    18    2
    34    17    18    1
