@<TRIPOS>MOLECULE
31156_out_ligand_01.pdbqt
 23 25 0 0 0
SMALL
GASTEIGER

@<TRIPOS>ATOM
      1  C         19.1930  -23.6790   -8.3690 C.2     1  UNL1        0.2610
      2  O         19.9640  -24.6300   -8.4780 O.2     1  UNL1       -0.2670
      3  N         18.9980  -22.7000   -9.3660 N.am    1  UNL1       -0.3130
      4  C         17.7110  -21.9990   -9.4800 C.3     1  UNL1        0.1330
      5  C         17.2590  -21.8380  -10.9190 C.3     1  UNL1        0.0250
      6  C         18.2910  -21.0270  -11.6740 C.3     1  UNL1        0.0420
      7  C         19.6720  -21.5940  -11.4740 C.2     1  UNL1       -0.0300
      8  C         20.6570  -21.2630  -12.4250 C.2     1  UNL1        0.0260
      9  C         21.9670  -21.7360  -12.3010 C.2     1  UNL1        0.0320
     10  C         22.2890  -22.5520  -11.2190 C.2     1  UNL1        0.0190
     11  C         21.3150  -22.8700  -10.2610 C.2     1  UNL1        0.0310
     12  C         19.9940  -22.4060  -10.3670 C.2     1  UNL1        0.0430
     13  C         18.4080  -23.5500   -7.1410 C.2     1  UNL1        0.0650
     14  C         17.3430  -24.3650   -6.7920 C.2     1  UNL1        0.0890
     15  S         16.6950  -23.8390   -5.3040 S.3     1  UNL1        0.0000
     16  N         17.7290  -22.5660   -5.1090 N.2     1  UNL1       -0.2160
     17  C         18.5560  -22.5080   -6.1550 C.2     1  UNL1        0.0550
     18  C         19.5550  -21.4000   -6.2030 C.3     1  UNL1        0.0720
     19  C         22.9570  -21.3580  -13.3460 C.2     1  UNL1        0.2490
     20  N         22.5730  -20.4470  -14.2890 N.am    1  UNL1       -0.3660
     21  H         23.2240  -20.2950  -15.0490 H       1  UNL1        0.1590
     22  H         21.6080  -20.2010  -14.4500 H       1  UNL1        0.1590
     23  O         24.0700  -21.8680  -13.3890 O.2     1  UNL1       -0.2680
@<TRIPOS>BOND
     1    21    20    1
     2    22    20    1
     3    20    19   am
     4    23    19    2
     5    19     9    1
     6     8     9    1
     7     8     7    2
     8     9    10    2
     9     6     7    1
    10     6     5    1
    11     7    12    1
    12    10    11    1
    13     5     4    1
    14    12    11    2
    15    12     3    1
    16     4     3    1
    17     3     1   am
    18     2     1    2
    19     1    13    1
    20    13    14    2
    21    13    17    1
    22    14    15    1
    23    18    17    1
    24    17    16    2
    25    15    16    1
