@<TRIPOS>MOLECULE
31160_out_ligand_01.pdbqt
 32 35 0 0 0
SMALL
GASTEIGER

@<TRIPOS>ATOM
      1  N         18.5960  -22.4680   -8.3480 N.am    1  UNL1       -0.3520
      2  C         18.5660  -23.1820   -7.1750 C.2     1  UNL1        0.2540
      3  O         18.5570  -24.4090   -7.1580 O.2     1  UNL1       -0.2680
      4  H         18.6790  -21.4610   -8.2910 H       1  UNL1        0.1630
      5  C         18.6670  -23.1060   -9.6440 C.3     1  UNL1        0.1640
      6  C         19.8580  -22.6480  -10.4610 C.ar    1  UNL1       -0.0090
      7  C         21.1620  -23.1320  -10.1950 C.ar    1  UNL1       -0.0330
      8  C         22.1880  -22.6000  -10.9680 C.ar    1  UNL1        0.0810
      9  C         21.4830  -24.1320   -9.1260 C.3     1  UNL1        0.0500
     10  C         21.9530  -21.6810  -11.9770 C.ar    1  UNL1        0.1390
     11  C         23.6300  -22.8400  -10.9860 C.ar    1  UNL1        0.2700
     12  N         20.7240  -21.2590  -12.2950 N.ar    1  UNL1       -0.2380
     13  N         23.1670  -21.2700  -12.6110 N.ar    1  UNL1       -0.1800
     14  C         19.6940  -21.7260  -11.5320 C.ar    1  UNL1        0.0410
     15  C         18.3470  -21.1900  -11.9330 C.3     1  UNL1        0.0710
     16  N         24.1370  -22.1630  -12.0830 N.ar    1  UNL1       -0.2790
     17  C         23.0330  -21.2520  -14.0610 C.3     1  UNL1        0.1440
     18  H         25.0990  -21.8470  -12.0420 H       1  UNL1        0.1840
     19  O         24.2660  -23.4820  -10.1710 O.2     1  UNL1       -0.2660
     20  C         18.5600  -22.4160   -5.8870 C.2     1  UNL1        0.0650
     21  C         19.2430  -21.1850   -5.8930 C.2     1  UNL1        0.0200
     22  C         19.2660  -20.3650   -4.7630 C.2     1  UNL1        0.0010
     23  C         18.5910  -20.7540   -3.6130 C.2     1  UNL1        0.0030
     24  C         17.9130  -21.9730   -3.5860 C.2     1  UNL1        0.0380
     25  C         17.9200  -22.8220   -4.7030 C.2     1  UNL1        0.0840
     26  O         17.2070  -23.9960   -4.6560 O.2     1  UNL1       -0.3480
     27  C         16.2040  -23.9980   -3.6270 C.3     1  UNL1        0.2070
     28  C         14.8300  -23.7840   -4.2730 C.3     1  UNL1        0.1450
     29  C         14.8270  -24.0250   -5.7780 C.3     1  UNL1        0.0360
     30  C         15.0680  -22.6430   -6.3350 C.3     1  UNL1        0.0290
     31  C         14.3140  -21.7760   -5.3530 C.3     1  UNL1        0.1680
     32  O         14.4270  -22.4160   -4.0740 O.3     1  UNL1       -0.3840
@<TRIPOS>BOND
     1    17    13    1
     2    13    16   ar
     3    13    10   ar
     4    12    10   ar
     5    12    14   ar
     6    16    18    1
     7    16    11   ar
     8    10     8   ar
     9    15    14    1
    10    14     6   ar
    11    11     8   ar
    12    11    19    2
    13     8     7   ar
    14     6     7   ar
    15     6     5    1
    16     7     9    1
    17     5     1    1
    18     1     4    1
    19     1     2   am
    20     2     3    2
    21     2    20    1
    22    30    29    1
    23    30    31    1
    24    21    20    2
    25    21    22    1
    26    20    25    1
    27    29    28    1
    28    31    32    1
    29    22    23    2
    30    25    26    1
    31    25    24    2
    32    26    27    1
    33    28    32    1
    34    28    27    1
    35    23    24    1
