@<TRIPOS>MOLECULE
31166_out_ligand_01.pdbqt
 26 28 0 0 0
SMALL
GASTEIGER

@<TRIPOS>ATOM
      1  C         22.4730  -21.6840  -12.8680 C.2     2  UNL2       -0.0300
      2  C         22.8920  -22.3810  -11.7560 C.2     2  UNL2        0.0110
      3  C         22.0100  -22.6020  -10.7110 C.2     2  UNL2        0.0310
      4  C         20.7160  -22.1340  -10.7650 C.2     2  UNL2        0.0510
      5  C         20.2790  -21.4270  -11.8840 C.2     2  UNL2       -0.0300
      6  C         21.1740  -21.2250  -12.9010 C.2     2  UNL2        0.0180
      7  C         18.8870  -20.9250  -11.9550 C.3     2  UNL2        0.0420
      8  C         18.0540  -22.0080  -11.2710 C.3     2  UNL2        0.0260
      9  C         18.4450  -22.1280   -9.8400 C.3     2  UNL2        0.1420
     10  N         19.8860  -22.3960   -9.6570 N.pl3   2  UNL2       -0.2710
     11  S         20.3010  -22.9710   -8.1470 S.O2    2  UNL2        0.2650
     12  O         20.6780  -24.4470   -8.3450 O.2     2  UNL2       -0.2000
     13  O         21.2970  -22.4340   -7.2880 O.2     2  UNL2       -0.2000
     14  C         18.7870  -23.0540   -7.2200 C.2     2  UNL2        0.0800
     15  C         17.9390  -24.1330   -7.3510 C.2     2  UNL2        0.0280
     16  C         16.7580  -24.2330   -6.6450 C.2     2  UNL2        0.0370
     17  C         16.4180  -23.2150   -5.7790 C.2     2  UNL2        0.1020
     18  C         17.2780  -22.1280   -5.6500 C.2     2  UNL2        0.0370
     19  C         18.4570  -22.0360   -6.3590 C.2     2  UNL2        0.0280
     20  N         15.2210  -23.2550   -5.0250 N.pl3   2  UNL2       -0.1160
     21  O         14.3030  -24.0400   -5.2990 O.2     2  UNL2       -0.5320
     22  O         15.0620  -22.4100   -3.9620 O.2     2  UNL2       -0.5320
     23  C         23.3820  -21.4210  -14.0160 C.3     2  UNL2        0.3050
     24  N         23.0000  -20.2790  -14.7860 N.3     2  UNL2        0.0820
     25  H         23.7390  -19.9590  -15.4480 H       2  UNL2        0.3130
     26  H         22.0540  -20.3500  -15.2140 H       2  UNL2        0.3130
@<TRIPOS>BOND
     1    25    24    1
     2    26    24    1
     3    24    23    1
     4    23     1    1
     5     6     1    2
     6     6     5    1
     7     1     2    1
     8     7     5    1
     9     7     8    1
    10     5     4    2
    11     2     3    2
    12     8     9    1
    13     4     3    1
    14     4    10    1
    15     9    10    1
    16    10    11    1
    17    12    11    2
    18    11    13    2
    19    11    14    1
    20    15    14    2
    21    15    16    1
    22    14    19    1
    23    16    17    2
    24    19    18    2
    25    17    18    1
    26    17    20    1
    27    21    20    2
    28    20    22    2
