@<TRIPOS>MOLECULE
31185_out_ligand_01.pdbqt
 28 31 0 0 0
SMALL
GASTEIGER

@<TRIPOS>ATOM
      1  C         20.4110  -22.2250   -7.2830 C.2     1  UNL1        0.0320
      2  C         21.5830  -21.4620   -7.3650 C.2     1  UNL1        0.0170
      3  C         22.6470  -21.8980   -8.1590 C.2     1  UNL1        0.0100
      4  C         22.5540  -23.0990   -8.8780 C.2     1  UNL1       -0.0400
      5  C         21.3900  -23.8720   -8.7680 C.2     1  UNL1        0.0100
      6  C         20.3260  -23.4400   -7.9740 C.2     1  UNL1        0.0170
      7  C         23.7210  -23.5850   -9.7100 C.3     1  UNL1        0.1740
      8  N         23.9180  -22.7540  -10.8760 N.am    1  UNL1       -0.2760
      9  C         22.9250  -22.4310  -11.7590 C.2     1  UNL1        0.2620
     10  O         21.7440  -22.7190  -11.7290 O.2     1  UNL1       -0.2670
     11  C         23.5520  -21.6260  -12.8070 C.2     1  UNL1        0.0480
     12  C         23.0080  -21.0450  -13.9350 C.2     1  UNL1        0.0180
     13  C         24.8940  -21.5050  -12.4940 C.2     1  UNL1        0.0480
     14  C         23.8750  -20.3220  -14.7610 C.2     1  UNL1        0.0010
     15  C         25.2440  -20.1990  -14.4440 C.2     1  UNL1        0.0010
     16  C         25.7700  -20.7970  -13.2930 C.2     1  UNL1        0.0180
     17  C         25.1260  -22.2350  -11.2490 C.2     1  UNL1        0.2620
     18  O         26.2060  -22.3250  -10.6960 O.2     1  UNL1       -0.2670
     19  C         19.2550  -21.8010   -6.4450 C.2     1  UNL1        0.2560
     20  O         19.3380  -20.7430   -5.8340 O.2     1  UNL1       -0.2670
     21  N         18.1970  -22.6940   -6.4240 N.am    1  UNL1       -0.3230
     22  H         18.3410  -23.5850   -6.8800 H       1  UNL1        0.1690
     23  C         16.9630  -22.5450   -5.7580 C.2     1  UNL1        0.0350
     24  C         15.8270  -22.3370   -6.5520 C.2     1  UNL1        0.0290
     25  C         14.5680  -22.1740   -5.9690 C.2     1  UNL1        0.0020
     26  C         14.4320  -22.2150   -4.5860 C.2     1  UNL1        0.0000
     27  C         15.5540  -22.4170   -3.7870 C.2     1  UNL1        0.0020
     28  C         16.8150  -22.5800   -4.3700 C.2     1  UNL1        0.0290
@<TRIPOS>BOND
     1    14    15    2
     2    14    12    1
     3    15    16    1
     4    12    11    2
     5    16    13    2
     6    11    13    1
     7    11     9    1
     8    13    17    1
     9     9    10    2
    10     9     8   am
    11    17     8   am
    12    17    18    2
    13     8     7    1
    14     7     4    1
    15     4     5    2
    16     4     3    1
    17     5     6    1
    18     3     2    2
    19     6     1    2
    20     2     1    1
    21     1    19    1
    22    22    21    1
    23    24    25    1
    24    24    23    2
    25    19    21   am
    26    19    20    2
    27    21    23    1
    28    25    26    2
    29    23    28    1
    30    26    27    1
    31    28    27    2
