@<TRIPOS>MOLECULE
31186_out_ligand_01.pdbqt
 27 30 0 0 0
SMALL
GASTEIGER

@<TRIPOS>ATOM
      1  C         17.9180  -22.3170  -10.3430 C.2     1  UNL1       -0.0400
      2  C         18.2260  -21.3950  -11.3500 C.2     1  UNL1        0.0100
      3  C         19.5440  -21.2310  -11.7890 C.2     1  UNL1        0.0160
      4  C         20.5830  -21.9900  -11.2330 C.2     1  UNL1        0.0170
      5  C         20.2680  -22.9200  -10.2300 C.2     1  UNL1        0.0160
      6  C         18.9490  -23.0860   -9.7920 C.2     1  UNL1        0.0100
      7  C         16.4900  -22.5050   -9.8970 C.3     1  UNL1        0.1610
      8  N         16.3810  -22.3770   -8.4630 N.am    1  UNL1       -0.3530
      9  C         16.0420  -23.4380   -7.6550 C.2     1  UNL1        0.2550
     10  O         15.7100  -24.5340   -8.1000 O.2     1  UNL1       -0.2680
     11  H         16.7490  -21.5320   -8.0420 H       1  UNL1        0.1630
     12  C         16.0930  -23.2240   -6.1810 C.2     1  UNL1        0.0700
     13  C         17.1740  -23.7650   -5.4670 C.2     1  UNL1        0.0200
     14  C         17.2710  -23.5930   -4.0830 C.2     1  UNL1        0.0010
     15  C         16.2900  -22.8790   -3.3970 C.2     1  UNL1        0.0030
     16  C         15.2130  -22.3360   -4.0960 C.2     1  UNL1        0.0430
     17  C         15.1200  -22.5110   -5.4780 C.2     1  UNL1        0.1320
     18  F         14.0640  -21.9690   -6.1070 F       1  UNL1       -0.2050
     19  C         21.9700  -21.8430  -11.6660 C.2     1  UNL1        0.1820
     20  N         22.4430  -21.6950  -12.8930 N.2     1  UNL1       -0.2010
     21  C         23.7900  -21.6080  -12.7080 C.2     1  UNL1        0.1860
     22  N         24.7280  -21.4500  -13.6710 N.2     1  UNL1       -0.2390
     23  C         24.0970  -21.7080  -11.3610 C.2     1  UNL1        0.1250
     24  C         25.9940  -21.3960  -13.1930 C.2     1  UNL1        0.1190
     25  C         26.3670  -21.4890  -11.8500 C.3     1  UNL1        0.0220
     26  C         25.3890  -21.6540  -10.8680 C.2     1  UNL1        0.0430
     27  O         22.9300  -21.8590  -10.6770 O.2     1  UNL1       -0.2870
@<TRIPOS>BOND
     1    22    24    2
     2    22    21    1
     3    24    25    1
     4    20    21    2
     5    20    19    2
     6    21    23    1
     7    25    26    1
     8     3     2    1
     9     3     4    2
    10    19     4    1
    11    19    27    1
    12    23    26    2
    13    23    27    1
    14     2     1    2
    15     4     5    1
    16     1     7    1
    17     1     6    1
    18     5     6    2
    19     7     8    1
    20     8    11    1
    21     8     9   am
    22    10     9    2
    23     9    12    1
    24    12    17    2
    25    12    13    1
    26    18    17    1
    27    17    16    1
    28    13    14    2
    29    16    15    2
    30    14    15    1
