@<TRIPOS>MOLECULE
31207_out_ligand_01.pdbqt
 28 31 0 0 0
SMALL
GASTEIGER

@<TRIPOS>ATOM
      1  C         19.3410  -22.2080  -10.2550 C.2     1  UNL1        0.0330
      2  C         18.9770  -21.3890  -11.3530 C.2     1  UNL1        0.0180
      3  C         19.9150  -21.0510  -12.3380 C.2     1  UNL1        0.0190
      4  C         21.1920  -21.5570  -12.1960 C.2     1  UNL1        0.0480
      5  C         21.5470  -22.3680  -11.1330 C.2     1  UNL1        0.0490
      6  C         20.6450  -22.7170  -10.1470 C.2     1  UNL1        0.0350
      7  C         22.9570  -22.7200  -11.2980 C.2     1  UNL1        0.2620
      8  O         23.5840  -23.3950  -10.5070 O.2     1  UNL1       -0.2670
      9  N         23.3700  -22.1200  -12.4550 N.am    1  UNL1       -0.2740
     10  C         22.3740  -21.3920  -13.0400 C.2     1  UNL1        0.2620
     11  O         22.3990  -20.7180  -14.0520 O.2     1  UNL1       -0.2670
     12  C         18.3560  -22.5830   -9.2050 C.2     1  UNL1        0.2510
     13  O         17.1630  -22.3710   -9.3840 O.2     1  UNL1       -0.2680
     14  N         18.8610  -23.1960   -8.0780 N.am    1  UNL1       -0.3530
     15  H         19.8050  -23.5530   -8.0940 H       1  UNL1        0.1630
     16  C         17.9800  -23.7270   -7.0610 C.3     1  UNL1        0.1620
     17  C         18.0800  -22.9300   -5.7930 C.2     1  UNL1       -0.0230
     18  C         18.7030  -21.6790   -5.7560 C.2     1  UNL1        0.0120
     19  C         18.7890  -20.9870   -4.5520 C.2     1  UNL1        0.0200
     20  C         18.2540  -21.5730   -3.4180 C.2     1  UNL1        0.1160
     21  N         17.6520  -22.7810   -3.4120 N.2     1  UNL1       -0.2730
     22  C         17.5810  -23.4340   -4.5950 C.2     1  UNL1        0.1240
     23  C         24.7040  -22.2440  -12.9980 C.3     1  UNL1        0.2000
     24  C         25.5280  -21.0940  -12.5410 C.2     1  UNL1        0.0700
     25  C         26.0150  -20.7080  -11.3080 C.2     1  UNL1        0.0360
     26  C         26.7320  -19.5070  -11.5190 C.2     1  UNL1        0.0270
     27  C         26.6380  -19.2360  -12.8630 C.2     1  UNL1        0.1420
     28  O         25.9100  -20.1940  -13.4930 O.2     1  UNL1       -0.3250
@<TRIPOS>BOND
     1    11    10    2
     2    28    27    1
     3    28    24    1
     4    10     9   am
     5    10     4    1
     6    23    24    1
     7    23     9    1
     8    27    26    2
     9    24    25    2
    10     9     7   am
    11     3     4    2
    12     3     2    1
    13     4     5    1
    14    26    25    1
    15     2     1    2
    16     7     5    1
    17     7     8    2
    18     5     6    2
    19     1     6    1
    20     1    12    1
    21    13    12    2
    22    12    14   am
    23    15    14    1
    24    14    16    1
    25    16    17    1
    26    17    18    2
    27    17    22    1
    28    18    19    1
    29    22    21    2
    30    19    20    2
    31    20    21    1
