@<TRIPOS>MOLECULE
31211_out_ligand_01.pdbqt
 31 33 0 0 0
SMALL
GASTEIGER

@<TRIPOS>ATOM
      1  C         17.5310  -22.2060   -5.3720 C.2     1  UNL1        0.0650
      2  C         17.4720  -22.2430   -3.9700 C.2     1  UNL1        0.0200
      3  C         16.2710  -22.5080   -3.3110 C.2     1  UNL1        0.0010
      4  C         15.1140  -22.7460   -4.0460 C.2     1  UNL1        0.0030
      5  C         15.1500  -22.7000   -5.4400 C.2     1  UNL1        0.0380
      6  C         16.3460  -22.4050   -6.1020 C.2     1  UNL1        0.0840
      7  C         18.8640  -21.9190   -5.9990 C.2     1  UNL1        0.2590
      8  N         19.3230  -22.8630   -6.8980 N.am    1  UNL1       -0.3230
      9  H         18.7190  -23.6680   -7.0360 H       1  UNL1        0.1690
     10  O         19.4500  -20.8920   -5.6760 O.2     1  UNL1       -0.2670
     11  C         20.5180  -22.8530   -7.6400 C.2     1  UNL1        0.0350
     12  C         21.4090  -21.7780   -7.6760 C.2     1  UNL1        0.0300
     13  C         22.5860  -21.8530   -8.4320 C.2     1  UNL1        0.0190
     14  C         22.8830  -23.0100   -9.1590 C.2     1  UNL1        0.0320
     15  C         21.9830  -24.0800   -9.1450 C.2     1  UNL1        0.0190
     16  C         20.8120  -24.0020   -8.3850 C.2     1  UNL1        0.0300
     17  C         24.1210  -23.1380   -9.9690 C.2     1  UNL1        0.2490
     18  N         25.1030  -23.9600   -9.4880 N.am    1  UNL1       -0.3660
     19  H         24.9290  -24.6390   -8.7630 H       1  UNL1        0.1590
     20  H         25.8880  -24.1270  -10.1060 H       1  UNL1        0.1590
     21  O         24.2460  -22.5650  -11.0430 O.2     1  UNL1       -0.2680
     22  O         16.3740  -22.3660   -7.4740 O.2     1  UNL1       -0.3480
     23  C         15.8560  -23.5520   -8.1000 C.3     1  UNL1        0.2020
     24  C         15.8890  -23.4890   -9.6300 C.3     1  UNL1        0.2020
     25  O         16.0820  -22.1490  -10.0760 O.2     1  UNL1       -0.3490
     26  C         17.2810  -21.8140  -10.6400 C.2     1  UNL1        0.0680
     27  C         18.2400  -22.8310  -10.5970 C.2     1  UNL1        0.0370
     28  C         19.5110  -22.6360  -11.1400 C.2     1  UNL1        0.0030
     29  C         19.8320  -21.4160  -11.7330 C.2     1  UNL1        0.0000
     30  C         18.8830  -20.3950  -11.7790 C.2     1  UNL1        0.0030
     31  C         17.6100  -20.5920  -11.2320 C.2     1  UNL1        0.0370
@<TRIPOS>BOND
     1    30    29    2
     2    30    31    1
     3    29    28    1
     4    31    26    2
     5    28    27    2
     6    21    17    2
     7    26    27    1
     8    26    25    1
     9    20    18    1
    10    25    24    1
    11    17    18   am
    12    17    14    1
    13    24    23    1
    14    18    19    1
    15    14    15    2
    16    14    13    1
    17    15    16    1
    18    13    12    2
    19    16    11    2
    20    23    22    1
    21    12    11    1
    22    11     8    1
    23    22     6    1
    24     9     8    1
    25     8     7   am
    26     6     5    1
    27     6     1    2
    28     7    10    2
    29     7     1    1
    30     5     4    2
    31     1     2    1
    32     4     3    1
    33     2     3    2
