@<TRIPOS>MOLECULE
31223_out_ligand_01.pdbqt
 36 39 0 0 0
SMALL
GASTEIGER

@<TRIPOS>ATOM
      1  C         22.0000  -23.2330   -8.6610 C.2     1  UNL1        0.0340
      2  C         21.5090  -22.1610   -7.9010 C.2     1  UNL1        0.0310
      3  C         20.2380  -22.2160   -7.3230 C.2     1  UNL1        0.0270
      4  C         19.4480  -23.3510   -7.5100 C.2     1  UNL1        0.0790
      5  C         19.9260  -24.4290   -8.2550 C.2     1  UNL1        0.0270
      6  C         21.2000  -24.3660   -8.8310 C.2     1  UNL1        0.0310
      7  N         23.3010  -23.0960   -9.1940 N.am    1  UNL1       -0.3270
      8  C         23.7670  -22.1070  -10.0390 C.2     1  UNL1        0.2280
      9  O         23.1260  -21.1400  -10.4380 O.2     1  UNL1       -0.2730
     10  H         23.9530  -23.8190   -8.9090 H       1  UNL1        0.1690
     11  C         25.2080  -22.2880  -10.5120 C.3     1  UNL1        0.1050
     12  C         25.8560  -20.9670  -10.8870 C.3     1  UNL1        0.1190
     13  C         25.7110  -20.9060  -12.3900 C.2     1  UNL1        0.2250
     14  O         25.9050  -19.8850  -13.0290 O.2     1  UNL1       -0.2730
     15  N         25.3290  -22.1770  -12.8500 N.am    1  UNL1       -0.3170
     16  C         25.3120  -23.1350  -11.7620 C.3     1  UNL1        0.1460
     17  C         25.0980  -22.5530  -14.2030 C.2     1  UNL1        0.0370
     18  C         25.3440  -23.8700  -14.6340 C.2     1  UNL1        0.0330
     19  C         25.0970  -24.2600  -15.9560 C.2     1  UNL1        0.0440
     20  C         24.6010  -23.3370  -16.8610 C.2     1  UNL1        0.1160
     21  F         24.3410  -23.7150  -18.1190 F       1  UNL1       -0.2060
     22  C         24.3530  -22.0310  -16.4710 C.2     1  UNL1        0.0440
     23  C         24.6020  -21.6420  -15.1490 C.2     1  UNL1        0.0330
     24  S         17.8460  -23.4340   -6.7550 S.O2    1  UNL1        0.2580
     25  O         17.9210  -22.7320   -5.4940 O.2     1  UNL1       -0.2010
     26  O         17.3510  -24.7900   -6.8480 O.2     1  UNL1       -0.2010
     27  N         16.9300  -22.4700   -7.7820 N.3     1  UNL1       -0.3150
     28  H         16.4590  -21.7200   -7.2720 H       1  UNL1        0.1720
     29  C         16.1600  -23.1310   -8.8490 C.3     1  UNL1        0.1370
     30  C         16.0550  -22.2170  -10.0740 C.3     1  UNL1        0.0580
     31  C         17.3960  -21.8880  -10.6850 C.2     1  UNL1       -0.0570
     32  C         18.3720  -22.8820  -10.8410 C.2     1  UNL1        0.0070
     33  C         19.6220  -22.5670  -11.3770 C.2     1  UNL1        0.0010
     34  C         19.9060  -21.2600  -11.7660 C.2     1  UNL1        0.0000
     35  C         18.9410  -20.2650  -11.6200 C.2     1  UNL1        0.0010
     36  C         17.6920  -20.5760  -11.0820 C.2     1  UNL1        0.0070
@<TRIPOS>BOND
     1    21    20    1
     2    20    22    2
     3    20    19    1
     4    22    23    1
     5    19    18    2
     6    23    17    2
     7    18    17    1
     8    17    15    1
     9    14    13    2
    10    15    13   am
    11    15    16    1
    12    13    12    1
    13    34    35    2
    14    34    33    1
    15    16    11    1
    16    35    36    1
    17    33    32    2
    18    36    31    2
    19    12    11    1
    20    32    31    1
    21    31    30    1
    22    11     8    1
    23     9     8    2
    24    30    29    1
    25     8     7   am
    26     7    10    1
    27     7     1    1
    28    29    27    1
    29     6     1    2
    30     6     5    1
    31     1     2    1
    32     5     4    2
    33     2     3    2
    34    27    28    1
    35    27    24    1
    36     4     3    1
    37     4    24    1
    38    26    24    2
    39    24    25    2
