@<TRIPOS>MOLECULE
312_out_ligand_01.pdbqt
 25 27 0 0 0
SMALL
GASTEIGER

@<TRIPOS>ATOM
      1  N         18.2710  -22.9730   -9.2930 N.pl3   1  UNL1       -0.2880
      2  H         17.5900  -22.2580   -9.0540 H       1  UNL1        0.1280
      3  C         19.2540  -22.4730  -10.1610 C.2     1  UNL1        0.0150
      4  C         20.5710  -22.9570  -10.1670 C.2     1  UNL1        0.0410
      5  C         21.5260  -22.4840  -11.0780 C.2     1  UNL1        0.0330
      6  C         21.1590  -21.5440  -12.0400 C.2     1  UNL1        0.0170
      7  C         19.8460  -21.0810  -12.0830 C.2     1  UNL1        0.0090
      8  C         18.8880  -21.5460  -11.1640 C.2     1  UNL1       -0.0410
      9  C         17.4760  -21.0300  -11.2800 C.3     1  UNL1        0.0500
     10  C         22.9080  -23.0290  -10.9990 C.2     1  UNL1        0.2490
     11  N         23.3030  -23.5770   -9.8090 N.am    1  UNL1       -0.3660
     12  H         22.6330  -23.8640   -9.1090 H       1  UNL1        0.1590
     13  H         24.1910  -24.0610   -9.8270 H       1  UNL1        0.1590
     14  O         23.6610  -23.0310  -11.9650 O.2     1  UNL1       -0.2680
     15  C         18.6560  -23.7360   -8.1010 C.3     1  UNL1        0.1330
     16  C         18.5970  -22.8440   -6.8770 C.2     1  UNL1       -0.0150
     17  C         19.5890  -21.8570   -6.6980 C.2     1  UNL1        0.0110
     18  C         19.5540  -21.0020   -5.6030 C.2     1  UNL1        0.0020
     19  C         18.5200  -21.1170   -4.6820 C.2     1  UNL1        0.0140
     20  C         17.5160  -22.0820   -4.8560 C.2     1  UNL1       -0.0070
     21  C         16.4650  -22.1940   -3.9370 C.2     1  UNL1        0.0150
     22  C         17.5390  -22.9610   -5.9660 C.2     1  UNL1        0.0740
     23  C         15.4740  -23.1480   -4.1260 C.2     1  UNL1        0.0200
     24  C         15.5710  -23.9610   -5.2360 C.2     1  UNL1        0.1170
     25  N         16.5700  -23.8830   -6.1420 N.2     1  UNL1       -0.2600
@<TRIPOS>BOND
     1     7     6    2
     2     7     8    1
     3     6     5    1
     4    14    10    2
     5     9     8    1
     6     8     3    2
     7     5    10    1
     8     5     4    2
     9    10    11   am
    10     4     3    1
    11     3     1    1
    12    13    11    1
    13    11    12    1
    14     1     2    1
    15     1    15    1
    16    15    16    1
    17    16    17    2
    18    16    22    1
    19    17    18    1
    20    25    22    1
    21    25    24    2
    22    22    20    2
    23    18    19    2
    24    24    23    1
    25    20    19    1
    26    20    21    1
    27    23    21    2
