@<TRIPOS>MOLECULE
31323_out_ligand_01.pdbqt
 32 34 0 0 0
SMALL
GASTEIGER

@<TRIPOS>ATOM
      1  C         19.3850  -22.3630   -9.6010 C.2     1  UNL1        0.0340
      2  C         18.4030  -21.7450  -10.3850 C.2     1  UNL1        0.0170
      3  C         18.7300  -21.2830  -11.6570 C.2     1  UNL1        0.0030
      4  C         20.0300  -21.4420  -12.1420 C.2     1  UNL1        0.0290
      5  C         21.0200  -22.0620  -11.3650 C.2     1  UNL1        0.0350
      6  C         20.6880  -22.5270  -10.0920 C.2     1  UNL1        0.0460
      7  N         22.2970  -22.1980  -11.9560 N.am    1  UNL1       -0.3230
      8  C         23.5130  -21.8320  -11.4190 C.2     1  UNL1        0.2570
      9  O         23.6720  -21.1930  -10.3850 O.2     1  UNL1       -0.2670
     10  H         22.2960  -22.6470  -12.8710 H       1  UNL1        0.1690
     11  C         24.7380  -22.1890  -12.1950 C.2     1  UNL1        0.0490
     12  C         25.6190  -23.1030  -11.5850 C.2     1  UNL1        0.0180
     13  C         26.7620  -23.5550  -12.2470 C.2     1  UNL1        0.0010
     14  C         27.0390  -23.1140  -13.5380 C.2     1  UNL1        0.0010
     15  C         26.1720  -22.2200  -14.1660 C.2     1  UNL1        0.0190
     16  C         25.0250  -21.7590  -13.4980 C.2     1  UNL1        0.0530
     17  C         24.1710  -20.8120  -14.2250 C.2     1  UNL1        0.1770
     18  O         23.0710  -21.0710  -14.6730 O.2     1  UNL1       -0.6460
     19  O         24.7600  -19.6120  -14.3400 O.3     1  UNL1       -0.7730
     20  H         25.1750  -19.4400  -13.4650 H       1  UNL1        0.1670
     21  C         19.0450  -22.9120   -8.2600 C.2     1  UNL1        0.2560
     22  N         18.2590  -22.0710   -7.4910 N.am    1  UNL1       -0.3220
     23  H         18.1120  -21.1450   -7.8650 H       1  UNL1        0.1690
     24  O         19.4780  -24.0180   -7.9640 O.2     1  UNL1       -0.2670
     25  C         17.6850  -22.3310   -6.2220 C.2     1  UNL1        0.0410
     26  C         18.2940  -21.9030   -5.0370 C.2     1  UNL1        0.0300
     27  C         17.7270  -22.1860   -3.7960 C.2     1  UNL1        0.0030
     28  C         16.5410  -22.9070   -3.7210 C.2     1  UNL1        0.0070
     29  C         15.9010  -23.3550   -4.8850 C.2     1  UNL1       -0.0540
     30  C         14.6260  -24.1440   -4.7340 C.3     1  UNL1        0.0490
     31  C         16.4700  -23.0680   -6.1530 C.2     1  UNL1       -0.0290
     32  C         15.7970  -23.5420   -7.4200 C.3     1  UNL1        0.0510
@<TRIPOS>BOND
     1    18    17    2
     2    19    17    1
     3    19    20    1
     4    17    16    1
     5    15    14    2
     6    15    16    1
     7    14    13    1
     8    16    11    2
     9    10     7    1
    10    13    12    2
    11    11    12    1
    12    11     8    1
    13     4     3    2
    14     4     5    1
    15     7     8   am
    16     7     5    1
    17     3     2    1
    18     8     9    2
    19     5     6    2
    20     2     1    2
    21     6     1    1
    22     1    21    1
    23    21    24    2
    24    21    22   am
    25    23    22    1
    26    22    25    1
    27    32    31    1
    28    25    31    2
    29    25    26    1
    30    31    29    1
    31    26    27    2
    32    29    30    1
    33    29    28    2
    34    27    28    1
