@<TRIPOS>MOLECULE
31351_out_ligand_01.pdbqt
 35 38 0 0 0
SMALL
GASTEIGER

@<TRIPOS>ATOM
      1  O         19.1070  -21.2740   -6.3270 O.2     1  UNL1       -0.2670
      2  C         19.2990  -22.4240   -6.7070 C.2     1  UNL1        0.2560
      3  N         18.5110  -23.5230   -6.4280 N.am    1  UNL1       -0.3220
      4  H         18.8570  -24.4360   -6.7280 H       1  UNL1        0.1690
      5  C         17.3240  -23.5900   -5.6540 C.2     1  UNL1        0.0500
      6  C         17.3410  -23.5510   -4.2550 C.2     1  UNL1        0.0300
      7  C         16.1570  -23.6600   -3.5170 C.2     1  UNL1        0.0020
      8  C         14.9380  -23.8170   -4.1660 C.2     1  UNL1        0.0010
      9  C         14.8950  -23.8450   -5.5590 C.2     1  UNL1        0.0190
     10  C         16.0750  -23.7090   -6.3120 C.2     1  UNL1        0.0580
     11  C         15.9980  -23.6930   -7.8080 C.2     1  UNL1        0.2540
     12  O         15.9400  -24.7460   -8.4380 O.2     1  UNL1       -0.2680
     13  N         16.0540  -22.4540   -8.4190 N.am    1  UNL1       -0.3540
     14  H         16.4290  -21.6860   -7.8770 H       1  UNL1        0.1620
     15  C         16.1500  -22.3390   -9.8660 C.3     1  UNL1        0.1550
     16  C         17.3000  -21.4340  -10.3060 C.3     1  UNL1        0.1390
     17  C         17.3570  -21.2060  -11.8090 C.3     1  UNL1        0.0350
     18  C         18.8200  -20.9030  -12.0140 C.3     1  UNL1        0.0290
     19  C         19.4760  -21.8560  -11.0380 C.3     1  UNL1        0.1680
     20  O         18.5650  -22.0170   -9.9400 O.3     1  UNL1       -0.3840
     21  C         20.5100  -22.7000   -7.5390 C.2     1  UNL1        0.0320
     22  C         20.6480  -23.8630   -8.3070 C.2     1  UNL1        0.0200
     23  C         21.8040  -24.0740   -9.0730 C.2     1  UNL1        0.0380
     24  C         22.8260  -23.1260   -9.0840 C.2     1  UNL1        0.0680
     25  C         22.6770  -21.9580   -8.3320 C.2     1  UNL1        0.0380
     26  C         21.5290  -21.7410   -7.5670 C.2     1  UNL1        0.0200
     27  O         23.9960  -23.2000   -9.7830 O.2     1  UNL1       -0.3510
     28  C         24.3560  -22.1270  -10.6570 C.3     1  UNL1        0.1800
     29  C         23.4610  -22.0710  -11.9000 C.3     1  UNL1        0.0650
     30  C         24.1650  -22.5470  -13.1490 C.2     1  UNL1       -0.0560
     31  C         24.0780  -21.8120  -14.3400 C.2     1  UNL1        0.0070
     32  C         24.7210  -22.2590  -15.4960 C.2     1  UNL1        0.0010
     33  C         25.4530  -23.4460  -15.4740 C.2     1  UNL1        0.0000
     34  C         25.5410  -24.1860  -14.2970 C.2     1  UNL1        0.0010
     35  C         24.9000  -23.7400  -13.1400 C.2     1  UNL1        0.0070
@<TRIPOS>BOND
     1    32    33    2
     2    32    31    1
     3    33    34    1
     4    31    30    2
     5    34    35    2
     6    30    35    1
     7    30    29    1
     8    18    17    1
     9    18    19    1
    10    29    28    1
    11    17    16    1
    12    19    20    1
    13    28    27    1
    14    16    20    1
    15    16    15    1
    16    15    13    1
    17    27    24    1
    18    24    23    2
    19    24    25    1
    20    23    22    1
    21    12    11    2
    22    13    14    1
    23    13    11   am
    24    25    26    2
    25    22    21    2
    26    11    10    1
    27    26    21    1
    28    21     2    1
    29     4     3    1
    30     2     3   am
    31     2     1    2
    32     3     5    1
    33    10     5    2
    34    10     9    1
    35     5     6    1
    36     9     8    2
    37     6     7    2
    38     8     7    1
