@<TRIPOS>MOLECULE
31375_out_ligand_01.pdbqt
 33 37 0 0 0
SMALL
GASTEIGER

@<TRIPOS>ATOM
      1  N         22.4050  -22.1530   -9.1340 N.pl3   1  UNL1       -0.3400
      2  H         23.2370  -22.4440   -8.6170 H       1  UNL1        0.1670
      3  C         21.2680  -22.7580   -8.5370 C.2     1  UNL1        0.0330
      4  C         20.4260  -21.9540   -7.7550 C.2     1  UNL1        0.0300
      5  C         19.2690  -22.4780   -7.1700 C.2     1  UNL1        0.0190
      6  C         18.9200  -23.8180   -7.3750 C.2     1  UNL1        0.0320
      7  C         19.7520  -24.6300   -8.1520 C.2     1  UNL1        0.0190
      8  C         20.9090  -24.0990   -8.7340 C.2     1  UNL1        0.0300
      9  C         17.6820  -24.3290   -6.7260 C.2     1  UNL1        0.2510
     10  O         17.7460  -25.2680   -5.9400 O.2     1  UNL1       -0.2680
     11  N         16.5080  -23.6880   -7.0480 N.am    1  UNL1       -0.3540
     12  H         16.4990  -22.9060   -7.6860 H       1  UNL1        0.1620
     13  C         15.2160  -24.1140   -6.5370 C.3     1  UNL1        0.1550
     14  C         14.8700  -23.4800   -5.1820 C.3     1  UNL1        0.1390
     15  C         15.5520  -22.1460   -4.9020 C.3     1  UNL1        0.0350
     16  C         16.6310  -22.4980   -3.9080 C.3     1  UNL1        0.0290
     17  C         16.0040  -23.6450   -3.1530 C.3     1  UNL1        0.1680
     18  O         15.2500  -24.3860   -4.1200 O.3     1  UNL1       -0.3840
     19  C         22.5770  -21.9680  -10.4750 C.ar    1  UNL1        0.1440
     20  C         21.6780  -21.7640  -11.5170 C.ar    1  UNL1        0.1140
     21  N         22.3210  -21.7320  -12.7400 N.ar    1  UNL1       -0.2250
     22  C         23.5860  -21.9190  -12.4430 C.ar    1  UNL1        0.1530
     23  C         24.7100  -21.9890  -13.3360 C.2     1  UNL1        0.1670
     24  N         23.8040  -22.0930  -11.1010 N.ar    1  UNL1       -0.2880
     25  N         25.9200  -22.2300  -12.9040 N.2     1  UNL1       -0.2680
     26  C         26.0840  -22.4290  -11.5420 C.2     1  UNL1        0.1340
     27  C         25.0830  -22.3710  -10.6450 C.2     1  UNL1        0.1190
     28  C         20.2370  -21.6120  -11.3980 C.2     1  UNL1       -0.0040
     29  C         19.6150  -20.3620  -11.5150 C.2     1  UNL1        0.0140
     30  C         18.2300  -20.2460  -11.3900 C.2     1  UNL1        0.0010
     31  C         17.4520  -21.3780  -11.1560 C.2     1  UNL1        0.0000
     32  C         18.0570  -22.6290  -11.0570 C.2     1  UNL1        0.0010
     33  C         19.4430  -22.7460  -11.1810 C.2     1  UNL1        0.0140
@<TRIPOS>BOND
     1    23    25    2
     2    23    22    1
     3    25    26    1
     4    21    22   ar
     5    21    20   ar
     6    22    24   ar
     7    26    27    2
     8    20    28    1
     9    20    19   ar
    10    29    28    2
    11    29    30    1
    12    28    33    1
    13    30    31    2
    14    33    32    2
    15    31    32    1
    16    24    27    1
    17    24    19   ar
    18    19     1    1
    19     1     2    1
    20     1     3    1
    21     8     3    2
    22     8     7    1
    23     3     4    1
    24     7     6    2
    25     4     5    2
    26    12    11    1
    27     6     5    1
    28     6     9    1
    29    11     9   am
    30    11    13    1
    31     9    10    2
    32    13    14    1
    33    14    15    1
    34    14    18    1
    35    15    16    1
    36    18    17    1
    37    16    17    1
