@<TRIPOS>MOLECULE
31396_out_ligand_01.pdbqt
 35 39 0 0 0
SMALL
GASTEIGER

@<TRIPOS>ATOM
      1  N         22.4110  -23.2690   -9.7270 N.pl3   1  UNL1       -0.3400
      2  H         22.5040  -24.2860   -9.7650 H       1  UNL1        0.1670
      3  C         22.4940  -22.6190  -10.9220 C.ar    1  UNL1        0.1440
      4  N         23.6590  -22.5570  -11.6650 N.ar    1  UNL1       -0.2880
      5  C         24.9460  -23.0290  -11.4610 C.2     1  UNL1        0.1190
      6  C         23.3540  -21.9000  -12.8300 C.ar    1  UNL1        0.1530
      7  C         25.8710  -22.7960  -12.4090 C.2     1  UNL1        0.1340
      8  N         25.6210  -22.1130  -13.5890 N.2     1  UNL1       -0.2680
      9  C         24.4010  -21.6880  -13.7910 C.2     1  UNL1        0.1670
     10  N         22.0880  -21.5670  -12.9180 N.ar    1  UNL1       -0.2250
     11  C         21.5360  -22.0150  -11.7330 C.ar    1  UNL1        0.1140
     12  C         20.1230  -21.8550  -11.4330 C.2     1  UNL1       -0.0030
     13  C         19.3600  -22.9800  -11.1050 C.2     1  UNL1        0.0170
     14  C         18.0000  -22.8500  -10.8110 C.2     1  UNL1        0.0370
     15  C         17.3780  -21.6010  -10.8500 C.2     1  UNL1        0.0680
     16  C         18.1300  -20.4780  -11.1930 C.2     1  UNL1        0.0370
     17  C         19.4940  -20.6050  -11.4870 C.2     1  UNL1        0.0170
     18  O         16.0460  -21.6150  -10.5400 O.2     1  UNL1       -0.3560
     19  C         15.5740  -22.7180   -9.7760 C.3     1  UNL1        0.2100
     20  C         21.5150  -22.9310   -8.6790 C.2     1  UNL1        0.0330
     21  C         21.7420  -21.7370   -7.9770 C.2     1  UNL1        0.0300
     22  C         20.8730  -21.3220   -6.9620 C.2     1  UNL1        0.0190
     23  C         19.7570  -22.0960   -6.6290 C.2     1  UNL1        0.0320
     24  C         19.5040  -23.2730   -7.3410 C.2     1  UNL1        0.0190
     25  C         20.3760  -23.6820   -8.3580 C.2     1  UNL1        0.0300
     26  C         18.8600  -21.6140   -5.5430 C.2     1  UNL1        0.2510
     27  O         18.8930  -20.4390   -5.1950 O.2     1  UNL1       -0.2680
     28  N         18.0500  -22.5580   -4.9480 N.am    1  UNL1       -0.3540
     29  H         18.1910  -23.5370   -5.1490 H       1  UNL1        0.1620
     30  C         17.1660  -22.2130   -3.8480 C.3     1  UNL1        0.1550
     31  C         15.7800  -22.8770   -3.9120 C.3     1  UNL1        0.1390
     32  C         15.5600  -23.7300   -5.1560 C.3     1  UNL1        0.0350
     33  C         14.9310  -22.7590   -6.1230 C.3     1  UNL1        0.0290
     34  C         14.0750  -21.9220   -5.2020 C.3     1  UNL1        0.1680
     35  O         14.7820  -21.8320   -3.9600 O.3     1  UNL1       -0.3840
@<TRIPOS>BOND
     1     9     8    2
     2     9     6    1
     3     8     7    1
     4    10     6   ar
     5    10    11   ar
     6     6     4   ar
     7     7     5    2
     8    11    12    1
     9    11     3   ar
    10     4     5    1
    11     4     3   ar
    12    17    12    2
    13    17    16    1
    14    12    13    1
    15    16    15    2
    16    13    14    2
    17     3     1    1
    18    15    14    1
    19    15    18    1
    20    18    19    1
    21     2     1    1
    22     1    20    1
    23    20    25    2
    24    20    21    1
    25    25    24    1
    26    21    22    2
    27    24    23    2
    28    22    23    1
    29    23    26    1
    30    33    34    1
    31    33    32    1
    32    26    27    2
    33    26    28   am
    34    34    35    1
    35    32    31    1
    36    29    28    1
    37    28    30    1
    38    35    31    1
    39    31    30    1
