@<TRIPOS>MOLECULE
31392_out_ligand_01.pdbqt
 34 38 0 0 0
SMALL
GASTEIGER

@<TRIPOS>ATOM
      1  N         22.9980  -22.6800   -9.1760 N.pl3   1  UNL1       -0.3400
      2  H         23.7590  -23.1170   -8.6530 H       1  UNL1        0.1670
      3  C         23.2290  -22.5110  -10.5110 C.ar    1  UNL1        0.1440
      4  N         24.4350  -22.8130  -11.1150 N.ar    1  UNL1       -0.2880
      5  C         25.6530  -23.2780  -10.6410 C.2     1  UNL1        0.1190
      6  C         24.2690  -22.6050  -12.4610 C.ar    1  UNL1        0.1530
      7  C         26.6480  -23.4840  -11.5220 C.2     1  UNL1        0.1340
      8  N         26.5370  -23.2640  -12.8850 N.2     1  UNL1       -0.2680
      9  C         25.3840  -22.8410  -13.3350 C.2     1  UNL1        0.1670
     10  N         23.0530  -22.2280  -12.7790 N.ar    1  UNL1       -0.2250
     11  C         22.3920  -22.1680  -11.5680 C.ar    1  UNL1        0.1140
     12  C         20.9890  -21.8030  -11.4690 C.2     1  UNL1       -0.0040
     13  C         20.0340  -22.7990  -11.2350 C.2     1  UNL1        0.0140
     14  C         18.6790  -22.4740  -11.1220 C.2     1  UNL1        0.0070
     15  C         18.2560  -21.1470  -11.2610 C.2     1  UNL1       -0.0620
     16  C         16.8070  -20.7840  -11.1260 C.3     1  UNL1        0.0480
     17  C         19.2080  -20.1520  -11.5080 C.2     1  UNL1        0.0070
     18  C         20.5640  -20.4780  -11.6180 C.2     1  UNL1        0.0140
     19  C         21.7640  -23.0930   -8.6100 C.2     1  UNL1        0.0330
     20  C         21.0410  -22.1570   -7.8540 C.2     1  UNL1        0.0300
     21  C         19.7970  -22.4790   -7.2970 C.2     1  UNL1        0.0190
     22  C         19.2450  -23.7460   -7.5060 C.2     1  UNL1        0.0320
     23  C         19.9580  -24.6870   -8.2550 C.2     1  UNL1        0.0190
     24  C         21.2010  -24.3590   -8.8090 C.2     1  UNL1        0.0300
     25  C         17.9300  -24.1480   -6.9330 C.2     1  UNL1        0.2510
     26  O         17.8270  -25.2020   -6.3160 O.2     1  UNL1       -0.2680
     27  N         16.8730  -23.2930   -7.1560 N.am    1  UNL1       -0.3540
     28  H         16.9790  -22.5140   -7.7900 H       1  UNL1        0.1620
     29  C         15.5320  -23.5870   -6.6800 C.3     1  UNL1        0.1550
     30  C         15.2990  -23.1520   -5.2310 C.3     1  UNL1        0.1390
     31  C         16.3380  -22.1930   -4.6750 C.3     1  UNL1        0.0350
     32  C         16.2260  -22.4510   -3.1940 C.3     1  UNL1        0.0290
     33  C         16.0090  -23.9470   -3.1530 C.3     1  UNL1        0.1680
     34  O         15.3180  -24.3020   -4.3600 O.3     1  UNL1       -0.3840
@<TRIPOS>BOND
     1     9     8    2
     2     9     6    1
     3     8     7    1
     4    10     6   ar
     5    10    11   ar
     6     6     4   ar
     7    18    17    1
     8    18    12    2
     9    11    12    1
    10    11     3   ar
    11     7     5    2
    12    17    15    2
    13    12    13    1
    14    15    16    1
    15    15    14    1
    16    13    14    2
    17     4     5    1
    18     4     3   ar
    19     3     1    1
    20     1     2    1
    21     1    19    1
    22    24    19    2
    23    24    23    1
    24    19    20    1
    25    23    22    2
    26    20    21    2
    27    28    27    1
    28    22    21    1
    29    22    25    1
    30    27    25   am
    31    27    29    1
    32    25    26    2
    33    29    30    1
    34    30    31    1
    35    30    34    1
    36    31    32    1
    37    34    33    1
    38    32    33    1
