@<TRIPOS>MOLECULE
31437_out_ligand_01.pdbqt
 28 31 0 0 0
SMALL
GASTEIGER

@<TRIPOS>ATOM
      1  C         21.9530  -22.3580  -11.1030 C.2     1  UNL1        0.0340
      2  C         21.5030  -21.5440  -12.1430 C.2     1  UNL1        0.0170
      3  C         20.1960  -21.0730  -12.1240 C.2     1  UNL1        0.0030
      4  C         19.3410  -21.4070  -11.0650 C.2     1  UNL1        0.0300
      5  C         19.7650  -22.2130   -9.9940 C.2     1  UNL1        0.0460
      6  C         21.0920  -22.6750  -10.0360 C.2     1  UNL1        0.0470
      7  N         18.8850  -22.5400   -8.9110 N.am    1  UNL1       -0.2440
      8  C         17.6040  -23.0390   -9.0520 C.2     1  UNL1        0.2660
      9  O         16.9210  -23.2850  -10.0300 O.2     1  UNL1       -0.2670
     10  C         17.0670  -23.2460   -7.7120 C.2     1  UNL1        0.0480
     11  C         15.8420  -23.7360   -7.3040 C.2     1  UNL1        0.0190
     12  C         18.0280  -22.8470   -6.8110 C.2     1  UNL1        0.0500
     13  C         15.6090  -23.8180   -5.9260 C.2     1  UNL1        0.0200
     14  C         16.5990  -23.4110   -5.0090 C.2     1  UNL1        0.0110
     15 BR         16.2540  -23.5420   -3.1530 Br      1  UNL1       -0.0510
     16  C         17.8290  -22.9160   -5.4440 C.2     1  UNL1        0.0370
     17  C         19.1850  -22.3880   -7.5710 C.2     1  UNL1        0.2660
     18  O         20.1740  -21.9750   -6.9920 O.2     1  UNL1       -0.2670
     19  C         23.3470  -22.8850  -11.0650 C.2     1  UNL1        0.2510
     20  O         23.8250  -23.2870  -10.0110 O.2     1  UNL1       -0.2680
     21  N         24.0300  -22.9050  -12.2590 N.am    1  UNL1       -0.3540
     22  H         23.6370  -22.4890  -13.0930 H       1  UNL1        0.1620
     23  C         25.4350  -23.2650  -12.3290 C.3     1  UNL1        0.1550
     24  C         26.3020  -22.0310  -12.5770 C.3     1  UNL1        0.1390
     25  C         26.3290  -21.0670  -11.4050 C.3     1  UNL1        0.0350
     26  C         26.6560  -19.7660  -12.0960 C.3     1  UNL1        0.0290
     27  C         25.8770  -19.8830  -13.3880 C.3     1  UNL1        0.1680
     28  O         25.7900  -21.2810  -13.7020 O.3     1  UNL1       -0.3840
@<TRIPOS>BOND
     1    28    27    1
     2    28    24    1
     3    27    26    1
     4    22    21    1
     5    24    23    1
     6    24    25    1
     7    23    21    1
     8    21    19   am
     9     2     3    1
    10     2     1    2
    11     3     4    2
    12    26    25    1
    13     1    19    1
    14     1     6    1
    15     4     5    1
    16    19    20    2
    17     6     5    2
    18     9     8    2
    19     5     7    1
    20     8     7   am
    21     8    10    1
    22     7    17   am
    23    10    11    2
    24    10    12    1
    25    17    18    2
    26    17    12    1
    27    11    13    1
    28    12    16    2
    29    13    14    2
    30    16    14    1
    31    14    15    1
