@<TRIPOS>MOLECULE
31444_out_ligand_01.pdbqt
 31 34 0 0 0
SMALL
GASTEIGER

@<TRIPOS>ATOM
      1  C         19.8010  -21.7880  -11.3720 C.2     1  UNL1        0.0330
      2  C         18.6040  -21.2030  -11.8600 C.2     1  UNL1        0.0180
      3  C         17.3690  -21.4990  -11.2700 C.2     1  UNL1        0.0190
      4  C         17.3730  -22.3700  -10.1970 C.2     1  UNL1        0.0480
      5  C         18.5410  -22.9310   -9.7110 C.2     1  UNL1        0.0490
      6  C         19.7730  -22.6580  -10.2700 C.2     1  UNL1        0.0350
      7  C         18.1800  -23.7890   -8.5830 C.2     1  UNL1        0.2620
      8  O         18.9760  -24.4400   -7.9330 O.2     1  UNL1       -0.2670
      9  N         16.8240  -23.6970   -8.4450 N.am    1  UNL1       -0.2760
     10  C         16.2690  -22.8670   -9.3790 C.2     1  UNL1        0.2620
     11  O         15.1030  -22.5650   -9.5440 O.2     1  UNL1       -0.2670
     12  C         21.1240  -21.4720  -11.9830 C.2     1  UNL1        0.2560
     13  N         22.1880  -22.1670  -11.4530 N.am    1  UNL1       -0.3210
     14  H         22.0370  -22.7580  -10.6410 H       1  UNL1        0.1690
     15  O         21.1600  -20.6230  -12.8650 O.2     1  UNL1       -0.2670
     16  C         23.5480  -22.1070  -11.8360 C.2     1  UNL1        0.0680
     17  C         24.0180  -22.5150  -13.0850 C.2     1  UNL1        0.0320
     18  C         25.3770  -22.4240  -13.3880 C.2     1  UNL1        0.0020
     19  C         26.2710  -21.9250  -12.4460 C.2     1  UNL1        0.0030
     20  C         25.8140  -21.5170  -11.1900 C.2     1  UNL1        0.0390
     21  C         24.4570  -21.6100  -10.8730 C.2     1  UNL1        0.0950
     22  O         23.8920  -21.2410   -9.6740 O.2     1  UNL1       -0.3490
     23  C         23.3740  -22.2540   -8.8120 C.3     1  UNL1        0.1710
     24  C         22.3000  -21.6880   -7.8990 C.3     1  UNL1        0.0340
     25  C         16.0570  -24.4330   -7.4660 C.3     1  UNL1        0.1750
     26  C         15.9640  -23.6900   -6.1620 C.2     1  UNL1       -0.0220
     27  C         14.8710  -22.8690   -5.8670 C.2     1  UNL1        0.0120
     28  C         14.8320  -22.1790   -4.6590 C.2     1  UNL1        0.0200
     29  C         15.8960  -22.3290   -3.7850 C.2     1  UNL1        0.1160
     30  N         16.9740  -23.1020   -4.0400 N.2     1  UNL1       -0.2730
     31  C         16.9860  -23.7600   -5.2210 C.2     1  UNL1        0.1240
@<TRIPOS>BOND
     1    18    17    1
     2    18    19    2
     3    17    16    2
     4    15    12    2
     5    19    20    1
     6    12    13   am
     7    12     1    1
     8     2     1    2
     9     2     3    1
    10    16    13    1
    11    16    21    1
    12    13    14    1
    13     1     6    1
    14     3     4    2
    15    20    21    2
    16    21    22    1
    17     6     5    2
    18     4     5    1
    19     4    10    1
    20     5     7    1
    21    22    23    1
    22    11    10    2
    23    10     9   am
    24    23    24    1
    25     7     9   am
    26     7     8    2
    27     9    25    1
    28    25    26    1
    29    26    27    2
    30    26    31    1
    31    27    28    1
    32    31    30    2
    33    28    29    2
    34    30    29    1
