@<TRIPOS>MOLECULE
31453_out_ligand_01.pdbqt
 27 30 0 0 0
SMALL
GASTEIGER

@<TRIPOS>ATOM
      1  C         19.9950  -21.9500  -11.1320 C.2     1  UNL1        0.0330
      2  C         18.8580  -21.3580  -11.7380 C.2     1  UNL1        0.0180
      3  C         17.5730  -21.6030  -11.2380 C.2     1  UNL1        0.0190
      4  C         17.4680  -22.4450  -10.1470 C.2     1  UNL1        0.0480
      5  C         18.5750  -23.0370   -9.5660 C.2     1  UNL1        0.0490
      6  C         19.8540  -22.8140  -10.0350 C.2     1  UNL1        0.0350
      7  C         18.1020  -23.8570   -8.4510 C.2     1  UNL1        0.2620
      8  O         18.8360  -24.4730   -7.7050 O.2     1  UNL1       -0.2670
      9  N         16.7400  -23.7350   -8.4330 N.am    1  UNL1       -0.2740
     10  C         16.2890  -22.8930   -9.4090 C.2     1  UNL1        0.2620
     11  O         15.1530  -22.5380   -9.6600 O.2     1  UNL1       -0.2670
     12  C         21.3650  -21.7070  -11.6640 C.2     1  UNL1        0.2560
     13  O         21.4780  -20.9610  -12.6280 O.2     1  UNL1       -0.2670
     14  N         22.3730  -22.3930  -11.0130 N.am    1  UNL1       -0.3230
     15  H         22.0970  -23.0710  -10.3140 H       1  UNL1        0.1690
     16  C         23.7580  -22.3260  -11.2730 C.2     1  UNL1        0.0350
     17  C         24.2730  -23.2090  -12.2330 C.2     1  UNL1        0.0290
     18  C         25.6350  -23.2100  -12.5450 C.2     1  UNL1        0.0020
     19  C         26.4970  -22.3300  -11.8970 C.2     1  UNL1        0.0000
     20  C         25.9960  -21.4520  -10.9390 C.2     1  UNL1        0.0020
     21  C         24.6330  -21.4500  -10.6280 C.2     1  UNL1        0.0290
     22  C         15.8790  -24.4190   -7.4950 C.3     1  UNL1        0.2000
     23  C         15.8400  -23.6550   -6.2200 C.2     1  UNL1        0.0700
     24  C         15.1930  -22.5010   -5.8280 C.2     1  UNL1        0.0360
     25  C         15.5510  -22.2830   -4.4750 C.2     1  UNL1        0.0270
     26  C         16.3920  -23.3140   -4.1310 C.2     1  UNL1        0.1420
     27  O         16.5750  -24.1510   -5.1840 O.2     1  UNL1       -0.3250
@<TRIPOS>BOND
     1    13    12    2
     2    18    17    1
     3    18    19    2
     4    17    16    2
     5    19    20    1
     6     2     3    1
     7     2     1    2
     8    12     1    1
     9    12    14   am
    10    16    14    1
    11    16    21    1
    12     3     4    2
    13     1     6    1
    14    14    15    1
    15    20    21    2
    16     4     5    1
    17     4    10    1
    18     6     5    2
    19    11    10    2
    20     5     7    1
    21    10     9   am
    22     7     9   am
    23     7     8    2
    24     9    22    1
    25    22    23    1
    26    23    24    2
    27    23    27    1
    28    24    25    1
    29    27    26    1
    30    25    26    2
