@<TRIPOS>MOLECULE
31464_out_ligand_01.pdbqt
 36 39 0 0 0
SMALL
GASTEIGER

@<TRIPOS>ATOM
      1  C         19.9360  -21.7740  -11.2300 C.2     1  UNL1        0.0330
      2  C         18.7450  -21.1970  -11.7400 C.2     1  UNL1        0.0180
      3  C         17.5030  -21.4890  -11.1620 C.2     1  UNL1        0.0190
      4  C         17.4930  -22.3620  -10.0920 C.2     1  UNL1        0.0480
      5  C         18.6510  -22.9400   -9.6040 C.2     1  UNL1        0.0490
      6  C         19.8890  -22.6710  -10.1510 C.2     1  UNL1        0.0350
      7  C         18.2730  -23.8080   -8.4890 C.2     1  UNL1        0.2620
      8  O         19.0590  -24.4610   -7.8320 O.2     1  UNL1       -0.2670
      9  N         16.9150  -23.7090   -8.3650 N.am    1  UNL1       -0.2760
     10  C         16.3760  -22.8600   -9.2900 C.2     1  UNL1        0.2620
     11  O         15.2170  -22.5370   -9.4560 O.2     1  UNL1       -0.2670
     12  C         21.2630  -21.4800  -11.8390 C.2     1  UNL1        0.2560
     13  N         22.3420  -22.0640  -11.2000 N.am    1  UNL1       -0.3230
     14  H         22.1390  -22.7050  -10.4440 H       1  UNL1        0.1690
     15  O         21.2870  -20.7850  -12.8460 O.2     1  UNL1       -0.2670
     16  C         23.7060  -21.9470  -11.5480 C.2     1  UNL1        0.0350
     17  C         24.7010  -21.5080  -10.6710 C.2     1  UNL1        0.0290
     18  C         26.0290  -21.3970  -11.0950 C.2     1  UNL1        0.0030
     19  C         26.3790  -21.7370  -12.4000 C.2     1  UNL1        0.0170
     20  C         25.3990  -22.2050  -13.2790 C.2     1  UNL1        0.0340
     21  C         24.0640  -22.2980  -12.8560 C.2     1  UNL1        0.0460
     22  C         25.8000  -22.5690  -14.6640 C.2     1  UNL1        0.2520
     23  N         25.2080  -21.8280  -15.6670 N.am    1  UNL1       -0.3490
     24  H         24.3880  -21.2950  -15.4090 H       1  UNL1        0.1630
     25  O         26.5810  -23.4930  -14.8420 O.2     1  UNL1       -0.2680
     26  C         25.3860  -22.0920  -17.1050 C.3     1  UNL1        0.0220
     27  C         24.9030  -20.8500  -17.8760 C.3     1  UNL1        0.0370
     28  C         24.5480  -23.3000  -17.5460 C.3     1  UNL1        0.0370
     29  C         26.8680  -22.3190  -17.4520 C.3     1  UNL1        0.0370
     30  C         16.1340  -24.4480   -7.3990 C.3     1  UNL1        0.1750
     31  C         16.0350  -23.7130   -6.0910 C.2     1  UNL1       -0.0220
     32  C         14.9430  -22.8920   -5.7960 C.2     1  UNL1        0.0120
     33  C         14.8990  -22.2110   -4.5830 C.2     1  UNL1        0.0200
     34  C         15.9570  -22.3710   -3.7040 C.2     1  UNL1        0.1160
     35  N         17.0340  -23.1440   -3.9580 N.2     1  UNL1       -0.2730
     36  C         17.0520  -23.7920   -5.1450 C.2     1  UNL1        0.1240
@<TRIPOS>BOND
     1    27    26    1
     2    28    26    1
     3    29    26    1
     4    26    23    1
     5    23    24    1
     6    23    22   am
     7    25    22    2
     8    22    20    1
     9    20    21    1
    10    20    19    2
    11    21    16    2
    12    15    12    2
    13    19    18    1
    14    12     1    1
    15    12    13   am
    16     2     1    2
    17     2     3    1
    18    16    13    1
    19    16    17    1
    20     1     6    1
    21    13    14    1
    22     3     4    2
    23    18    17    2
    24     6     5    2
    25     4     5    1
    26     4    10    1
    27     5     7    1
    28    11    10    2
    29    10     9   am
    30     7     9   am
    31     7     8    2
    32     9    30    1
    33    30    31    1
    34    31    32    2
    35    31    36    1
    36    32    33    1
    37    36    35    2
    38    33    34    2
    39    35    34    1
