@<TRIPOS>MOLECULE
31463_out_ligand_01.pdbqt
 29 32 0 0 0
SMALL
GASTEIGER

@<TRIPOS>ATOM
      1  C         20.6630  -22.7400  -10.4100 C.2     1  UNL1        0.0330
      2  C         19.9820  -21.8410  -11.2690 C.2     1  UNL1        0.0180
      3  C         20.6470  -21.2340  -12.3430 C.2     1  UNL1        0.0190
      4  C         21.9780  -21.5570  -12.5270 C.2     1  UNL1        0.0480
      5  C         22.6390  -22.4470  -11.6980 C.2     1  UNL1        0.0490
      6  C         22.0100  -23.0610  -10.6330 C.2     1  UNL1        0.0350
      7  C         24.0140  -22.5590  -12.1830 C.2     1  UNL1        0.2620
      8  O         24.8700  -23.2530  -11.6710 O.2     1  UNL1       -0.2670
      9  N         24.1090  -21.7400  -13.2740 N.am    1  UNL1       -0.2760
     10  C         22.9280  -21.1040  -13.5400 C.2     1  UNL1        0.2620
     11  O         22.6620  -20.3070  -14.4190 O.2     1  UNL1       -0.2670
     12  C         19.9630  -23.4020   -9.2730 C.2     1  UNL1        0.2560
     13  O         20.4080  -24.4710   -8.8740 O.2     1  UNL1       -0.2670
     14  N         18.8870  -22.7010   -8.7610 N.am    1  UNL1       -0.3230
     15  H         18.7290  -21.7670   -9.1190 H       1  UNL1        0.1690
     16  C         18.0240  -23.1040   -7.7190 C.2     1  UNL1        0.0350
     17  C         16.7760  -23.6290   -8.0900 C.2     1  UNL1        0.0320
     18  C         15.8670  -24.0540   -7.1180 C.2     1  UNL1        0.0440
     19  C         16.2060  -23.9580   -5.7760 C.2     1  UNL1        0.1160
     20  F         15.3360  -24.3670   -4.8440 F       1  UNL1       -0.2060
     21  C         17.4360  -23.4450   -5.3890 C.2     1  UNL1        0.0440
     22  C         18.3460  -23.0190   -6.3610 C.2     1  UNL1        0.0320
     23  C         25.3060  -21.5940  -14.0680 C.3     1  UNL1        0.1750
     24  C         25.0940  -22.0600  -15.4820 C.2     1  UNL1       -0.0220
     25  C         25.1110  -21.1660  -16.5560 C.2     1  UNL1        0.0120
     26  C         24.8910  -21.6350  -17.8470 C.2     1  UNL1        0.0200
     27  C         24.6500  -22.9870  -18.0210 C.2     1  UNL1        0.1160
     28  N         24.6140  -23.8780  -17.0090 N.2     1  UNL1       -0.2730
     29  C         24.8290  -23.3970  -15.7640 C.2     1  UNL1        0.1240
@<TRIPOS>BOND
     1    27    26    2
     2    27    28    1
     3    26    25    1
     4    28    29    2
     5    25    24    2
     6    29    24    1
     7    24    23    1
     8    11    10    2
     9    23     9    1
    10    10     9   am
    11    10     4    1
    12     9     7   am
    13     4     3    2
    14     4     5    1
    15     3     2    1
    16     7     5    1
    17     7     8    2
    18     5     6    2
    19     2     1    2
    20     6     1    1
    21     1    12    1
    22    12    13    2
    23    12    14   am
    24    15    14    1
    25    14    16    1
    26    17    16    2
    27    17    18    1
    28    16    22    1
    29    18    19    2
    30    22    21    2
    31    19    21    1
    32    19    20    1
