@<TRIPOS>MOLECULE
31488_out_ligand_01.pdbqt
 33 36 0 0 0
SMALL
GASTEIGER

@<TRIPOS>ATOM
      1  C         20.4010  -22.2210  -10.9670 C.2     1  UNL1        0.0330
      2  C         21.2460  -23.0090  -10.1450 C.2     1  UNL1        0.0180
      3  C         22.5980  -23.1840  -10.4640 C.2     1  UNL1        0.0190
      4  C         23.0670  -22.5520  -11.6000 C.2     1  UNL1        0.0480
      5  C         22.2480  -21.7720  -12.3970 C.2     1  UNL1        0.0490
      6  C         20.9110  -21.5800  -12.1070 C.2     1  UNL1        0.0350
      7  C         23.0620  -21.2610  -13.4980 C.2     1  UNL1        0.2620
      8  O         22.6430  -20.5450  -14.3870 O.2     1  UNL1       -0.2670
      9  N         24.3240  -21.7510  -13.3050 N.am    1  UNL1       -0.2760
     10  C         24.4040  -22.5360  -12.1900 C.2     1  UNL1        0.2620
     11  O         25.3620  -23.1270  -11.7310 O.2     1  UNL1       -0.2670
     12  C         18.9640  -22.0150  -10.6360 C.2     1  UNL1        0.2510
     13  N         18.4020  -22.9170   -9.7610 N.am    1  UNL1       -0.3530
     14  H         18.8760  -23.7890   -9.5730 H       1  UNL1        0.1630
     15  O         18.3400  -21.0980  -11.1570 O.2     1  UNL1       -0.2680
     16  C         16.9850  -22.8650   -9.4790 C.3     1  UNL1        0.1610
     17  C         16.7390  -22.9740   -7.9970 C.2     1  UNL1       -0.0400
     18  C         17.6770  -23.6070   -7.1690 C.2     1  UNL1        0.0100
     19  C         17.4420  -23.7350   -5.7980 C.2     1  UNL1        0.0190
     20  C         16.2600  -23.2370   -5.2390 C.2     1  UNL1        0.0370
     21  C         15.3160  -22.6120   -6.0620 C.2     1  UNL1        0.0190
     22  C         15.5520  -22.4840   -7.4330 C.2     1  UNL1        0.0100
     23  C         15.9640  -23.3500   -3.7900 C.2     1  UNL1        0.1760
     24  O         15.9040  -24.3850   -3.1530 O.2     1  UNL1       -0.6460
     25  O         15.7630  -22.1560   -3.2030 O.3     1  UNL1       -0.7730
     26  H         16.5790  -21.6530   -3.4070 H       1  UNL1        0.1670
     27  C         25.4300  -21.5160  -14.2060 C.3     1  UNL1        0.1750
     28  C         25.1400  -22.0370  -15.5860 C.2     1  UNL1       -0.0220
     29  C         25.1270  -21.1900  -16.6990 C.2     1  UNL1        0.0120
     30  C         24.8320  -21.7080  -17.9550 C.2     1  UNL1        0.0200
     31  C         24.5510  -23.0600  -18.0590 C.2     1  UNL1        0.1160
     32  N         24.5410  -23.9060  -17.0070 N.2     1  UNL1       -0.2730
     33  C         24.8300  -23.3770  -15.7960 C.2     1  UNL1        0.1240
@<TRIPOS>BOND
     1    31    30    2
     2    31    32    1
     3    30    29    1
     4    32    33    2
     5    29    28    2
     6    33    28    1
     7    28    27    1
     8     8     7    2
     9    27     9    1
    10     7     9   am
    11     7     5    1
    12     9    10   am
    13     5     6    1
    14     5     4    2
    15    10    11    2
    16    10     4    1
    17     6     1    2
    18     4     3    1
    19    15    12    2
    20     1    12    1
    21     1     2    1
    22    12    13   am
    23     3     2    2
    24    13    14    1
    25    13    16    1
    26    16    17    1
    27    17    22    2
    28    17    18    1
    29    22    21    1
    30    18    19    2
    31    21    20    2
    32    19    20    1
    33    20    23    1
    34    23    25    1
    35    23    24    2
    36    26    25    1
