@<TRIPOS>MOLECULE
31480_out_ligand_01.pdbqt
 30 34 0 0 0
SMALL
GASTEIGER

@<TRIPOS>ATOM
      1  C         20.3340  -22.7190  -10.1960 C.2     1  UNL1        0.0330
      2  C         19.7030  -21.8950  -11.1630 C.2     1  UNL1        0.0180
      3  C         20.4310  -21.3620  -12.2340 C.2     1  UNL1        0.0190
      4  C         21.7720  -21.6850  -12.3090 C.2     1  UNL1        0.0480
      5  C         22.3850  -22.5010  -11.3760 C.2     1  UNL1        0.0490
      6  C         21.6950  -23.0400  -10.3090 C.2     1  UNL1        0.0350
      7  C         23.7920  -22.6290  -11.7590 C.2     1  UNL1        0.2620
      8  O         24.6150  -23.2490  -11.1140 O.2     1  UNL1       -0.2670
      9  N         23.9460  -21.9050  -12.9080 N.am    1  UNL1       -0.2740
     10  C         22.7840  -21.2960  -13.2900 C.2     1  UNL1        0.2620
     11  O         22.5700  -20.5620  -14.2350 O.2     1  UNL1       -0.2670
     12  C         19.5660  -23.3020   -9.0590 C.2     1  UNL1        0.2560
     13  O         19.9690  -24.3520   -8.5780 O.2     1  UNL1       -0.2670
     14  N         18.4790  -22.5550   -8.6480 N.am    1  UNL1       -0.3230
     15  H         18.3560  -21.6420   -9.0670 H       1  UNL1        0.1690
     16  C         17.5550  -22.8780   -7.6290 C.2     1  UNL1        0.0370
     17  C         16.4990  -23.7970   -7.7930 C.2     1  UNL1        0.0320
     18  C         15.6100  -24.0700   -6.7450 C.2     1  UNL1        0.0420
     19  C         15.7990  -23.4130   -5.5520 C.2     1  UNL1        0.1050
     20  C         16.8230  -22.5140   -5.3830 C.2     1  UNL1        0.1070
     21  O         15.0400  -23.5520   -4.4330 O.2     1  UNL1       -0.3230
     22  C         17.7130  -22.2250   -6.3980 C.2     1  UNL1        0.0690
     23  O         16.8390  -21.9730   -4.1360 O.2     1  UNL1       -0.3230
     24  C         15.7070  -22.6390   -3.5380 C.3     1  UNL1        0.3520
     25  C         25.1910  -21.7960  -13.6350 C.3     1  UNL1        0.2000
     26  C         25.9700  -20.6470  -13.1000 C.2     1  UNL1        0.0700
     27  C         26.3690  -20.2840  -11.8300 C.2     1  UNL1        0.0360
     28  C         27.0860  -19.0710  -11.9690 C.2     1  UNL1        0.0270
     29  C         27.0810  -18.7740  -13.3110 C.2     1  UNL1        0.1420
     30  O         26.4060  -19.7260  -14.0060 O.2     1  UNL1       -0.3250
@<TRIPOS>BOND
     1    11    10    2
     2    30    29    1
     3    30    26    1
     4    25    26    1
     5    25     9    1
     6    29    28    2
     7    10     9   am
     8    10     4    1
     9    26    27    2
    10     9     7   am
    11     4     3    2
    12     4     5    1
    13     3     2    1
    14    28    27    1
    15     7     5    1
    16     7     8    2
    17     5     6    2
    18     2     1    2
    19     6     1    1
    20     1    12    1
    21    15    14    1
    22    12    14   am
    23    12    13    2
    24    14    16    1
    25    17    16    2
    26    17    18    1
    27    16    22    1
    28    18    19    2
    29    22    20    2
    30    19    20    1
    31    19    21    1
    32    20    23    1
    33    21    24    1
    34    23    24    1
