@<TRIPOS>MOLECULE
31485_out_ligand_01.pdbqt
 28 31 0 0 0
SMALL
GASTEIGER

@<TRIPOS>ATOM
      1  C         19.9540  -21.9470  -11.0940 C.2     1  UNL1        0.0330
      2  C         18.8160  -21.3190  -11.6580 C.2     1  UNL1        0.0180
      3  C         17.5350  -21.5680  -11.1510 C.2     1  UNL1        0.0190
      4  C         17.4360  -22.4350  -10.0800 C.2     1  UNL1        0.0480
      5  C         18.5460  -23.0380   -9.5170 C.2     1  UNL1        0.0490
      6  C         19.8220  -22.8120   -9.9960 C.2     1  UNL1        0.0350
      7  C         18.0800  -23.8760   -8.4160 C.2     1  UNL1        0.2620
      8  O         18.8060  -24.5620   -7.7230 O.2     1  UNL1       -0.2670
      9  N         16.7230  -23.7250   -8.3610 N.am    1  UNL1       -0.2740
     10  C         16.2600  -22.8900   -9.3380 C.2     1  UNL1        0.2620
     11  O         15.1220  -22.5650   -9.6140 O.2     1  UNL1       -0.2670
     12  C         21.3240  -21.6800  -11.6150 C.2     1  UNL1        0.2560
     13  N         22.3420  -22.2990  -10.9140 N.am    1  UNL1       -0.3230
     14  H         22.0940  -22.7840  -10.0620 H       1  UNL1        0.1690
     15  O         21.4320  -20.9310  -12.5760 O.2     1  UNL1       -0.2670
     16  C         23.7250  -22.2590  -11.2020 C.2     1  UNL1        0.0350
     17  C         24.6290  -21.4110  -10.5630 C.2     1  UNL1        0.0290
     18  C         25.9810  -21.4230  -10.9190 C.2     1  UNL1        0.0030
     19  C         26.4400  -22.2850  -11.9140 C.2     1  UNL1        0.0070
     20  C         25.5530  -23.1510  -12.5580 C.2     1  UNL1       -0.0600
     21  C         26.0340  -24.0550  -13.6530 C.3     1  UNL1        0.0480
     22  C         24.1950  -23.1200  -12.2040 C.2     1  UNL1        0.0360
     23  C         15.8790  -24.3690   -7.3790 C.3     1  UNL1        0.2000
     24  C         15.9500  -23.6110   -6.1020 C.2     1  UNL1        0.0700
     25  C         15.3500  -22.4500   -5.6570 C.2     1  UNL1        0.0360
     26  C         15.8160  -22.2400   -4.3360 C.2     1  UNL1        0.0270
     27  C         16.6700  -23.2830   -4.0620 C.2     1  UNL1        0.1420
     28  O         16.7580  -24.1190   -5.1290 O.2     1  UNL1       -0.3250
@<TRIPOS>BOND
     1    21    20    1
     2    15    12    2
     3    20    22    1
     4    20    19    2
     5    22    16    2
     6    19    18    1
     7     2     3    1
     8     2     1    2
     9    12     1    1
    10    12    13   am
    11    16    13    1
    12    16    17    1
    13     3     4    2
    14     1     6    1
    15    18    17    2
    16    13    14    1
    17     4     5    1
    18     4    10    1
    19     6     5    2
    20    11    10    2
    21     5     7    1
    22    10     9   am
    23     7     9   am
    24     7     8    2
    25     9    23    1
    26    23    24    1
    27    24    25    2
    28    24    28    1
    29    25    26    1
    30    28    27    1
    31    26    27    2
