@<TRIPOS>MOLECULE
31499_out_ligand_01.pdbqt
 28 31 0 0 0
SMALL
GASTEIGER

@<TRIPOS>ATOM
      1  C         21.2490  -21.7320  -12.1440 C.2     1  UNL1        0.0330
      2  C         20.0360  -21.0270  -12.3530 C.2     1  UNL1        0.0180
      3  C         18.9390  -21.2110  -11.5010 C.2     1  UNL1        0.0190
      4  C         19.0960  -22.0950  -10.4500 C.2     1  UNL1        0.0480
      5  C         20.2790  -22.7770  -10.2370 C.2     1  UNL1        0.0490
      6  C         21.3760  -22.6190  -11.0620 C.2     1  UNL1        0.0350
      7  C         20.1000  -23.6090   -9.0470 C.2     1  UNL1        0.2620
      8  O         20.9550  -24.3390   -8.5830 O.2     1  UNL1       -0.2670
      9  N         18.8260  -23.3840   -8.6060 N.am    1  UNL1       -0.2760
     10  C         18.1630  -22.4850   -9.3950 C.2     1  UNL1        0.2620
     11  O         17.0320  -22.0520   -9.2850 O.2     1  UNL1       -0.2670
     12  C         22.4360  -21.5340  -13.0250 C.2     1  UNL1        0.2520
     13  O         22.3490  -20.8040  -14.0060 O.2     1  UNL1       -0.2680
     14  N         23.5920  -22.1880  -12.6610 N.am    1  UNL1       -0.3510
     15  H         23.6870  -22.5530  -11.7240 H       1  UNL1        0.1630
     16  C         24.8350  -21.9580  -13.3650 C.3     1  UNL1        0.1870
     17  C         25.6020  -20.9240  -12.6290 C.2     1  UNL1        0.0700
     18  C         25.9500  -20.7640  -11.3030 C.2     1  UNL1        0.0360
     19  C         26.6920  -19.5590  -11.2260 C.2     1  UNL1        0.0270
     20  C         26.7600  -19.0690  -12.5100 C.2     1  UNL1        0.1420
     21  O         26.1030  -19.8920  -13.3710 O.2     1  UNL1       -0.3250
     22  C         18.2400  -24.0310   -7.4550 C.3     1  UNL1        0.1750
     23  C         18.2340  -23.1270   -6.2530 C.2     1  UNL1       -0.0220
     24  C         18.9230  -21.9100   -6.2520 C.2     1  UNL1        0.0120
     25  C         18.9110  -21.1100   -5.1130 C.2     1  UNL1        0.0200
     26  C         18.2120  -21.5600   -4.0060 C.2     1  UNL1        0.1160
     27  N         17.5470  -22.7360   -3.9630 N.2     1  UNL1       -0.2730
     28  C         17.5780  -23.4950   -5.0830 C.2     1  UNL1        0.1240
@<TRIPOS>BOND
     1    13    12    2
     2    21    17    1
     3    21    20    1
     4    16    14    1
     5    16    17    1
     6    12    14   am
     7    12     1    1
     8    14    15    1
     9    17    18    2
    10    20    19    2
    11     2     1    2
    12     2     3    1
    13     1     6    1
    14     3     4    2
    15    18    19    1
    16     6     5    2
    17     4     5    1
    18     4    10    1
    19     5     7    1
    20    10    11    2
    21    10     9   am
    22     7     9   am
    23     7     8    2
    24     9    22    1
    25    22    23    1
    26    23    24    2
    27    23    28    1
    28    24    25    1
    29    25    26    2
    30    28    27    2
    31    26    27    1
