@<TRIPOS>MOLECULE
31497_out_ligand_01.pdbqt
 37 40 0 0 0
SMALL
GASTEIGER

@<TRIPOS>ATOM
      1  N         23.3230  -22.1280  -11.3140 N.ar    1  UNL1       -0.1680
      2  C         23.9200  -21.7680  -10.1160 C.ar    1  UNL1        0.7050
      3  N         24.9760  -21.0100  -10.3300 N.ar    1  UNL1       -0.0440
      4  C         25.0360  -20.8500  -11.6760 C.ar    1  UNL1        0.1850
      5  C         24.0230  -21.4960  -12.3130 C.ar    1  UNL1        0.1670
      6  C         23.8470  -21.4510  -13.7230 C.ar    1  UNL1        0.2820
      7  O         22.8790  -21.9420  -14.2980 O.2     1  UNL1       -0.2650
      8  N         24.8700  -20.7570  -14.3790 N.ar    1  UNL1       -0.2690
      9  C         24.7950  -20.6630  -15.8230 C.3     1  UNL1        0.1640
     10  C         25.9030  -20.0370  -13.7480 C.ar    1  UNL1        0.3320
     11  O         26.7000  -19.3570  -14.4030 O.2     1  UNL1       -0.2460
     12  N         25.9760  -20.1160  -12.3570 N.ar    1  UNL1       -0.2850
     13  C         27.0240  -19.4220  -11.6310 C.3     1  UNL1        0.1630
     14  N         23.4540  -22.1840   -8.9170 N.pl3   1  UNL1       -0.2240
     15  H         23.8960  -22.9610   -8.4400 H       1  UNL1        0.1770
     16  C         22.0180  -22.0830   -8.6570 C.3     1  UNL1        0.1420
     17  C         21.7410  -21.3600   -7.3340 C.3     1  UNL1        0.0580
     18  C         20.3840  -21.7210   -6.7760 C.2     1  UNL1       -0.0570
     19  C         19.8020  -20.9500   -5.7590 C.2     1  UNL1        0.0090
     20  C         18.5560  -21.2980   -5.2350 C.2     1  UNL1        0.0250
     21  C         17.8940  -22.4280   -5.7230 C.2     1  UNL1        0.0740
     22  C         18.4580  -23.2000   -6.7410 C.2     1  UNL1        0.0250
     23  C         19.7040  -22.8480   -7.2610 C.2     1  UNL1        0.0090
     24  S         16.3000  -22.8530   -5.0860 S.O2    1  UNL1        0.2390
     25  O         15.2790  -22.2570   -5.9160 O.2     1  UNL1       -0.2060
     26  O         16.2860  -24.2500   -4.7250 O.2     1  UNL1       -0.2060
     27  N         16.2660  -22.0010   -3.6380 N.3     1  UNL1       -0.2250
     28  H         16.9330  -21.2300   -3.6770 H       1  UNL1        0.1360
     29  H         15.3100  -21.7100   -3.4340 H       1  UNL1        0.1360
     30  C         22.1890  -23.0200  -11.4970 C.3     1  UNL1        0.1860
     31  C         20.8720  -22.2850  -11.4080 C.2     1  UNL1       -0.0390
     32  C         20.7490  -20.9670  -11.8700 C.2     1  UNL1        0.0090
     33  C         19.5300  -20.2950  -11.7780 C.2     1  UNL1        0.0010
     34  C         18.4180  -20.9330  -11.2300 C.2     1  UNL1        0.0070
     35  C         18.5130  -22.2530  -10.7780 C.2     1  UNL1       -0.0610
     36  C         17.3290  -22.9290  -10.1510 C.3     1  UNL1        0.0480
     37  C         19.7450  -22.9160  -10.8600 C.2     1  UNL1        0.0150
@<TRIPOS>BOND
     1     9     8    1
     2    11    10    2
     3     8    10   ar
     4     8     6   ar
     5     7     6    2
     6    10    12   ar
     7     6     5   ar
     8    12     4   ar
     9    12    13    1
    10     5     4   ar
    11     5     1   ar
    12    32    33    1
    13    32    31    2
    14    33    34    2
    15     4     3   ar
    16    30    31    1
    17    30     1    1
    18    31    37    1
    19     1     2   ar
    20    34    35    1
    21    37    35    2
    22    35    36    1
    23     3     2   ar
    24     2    14    1
    25    14    16    1
    26    14    15    1
    27    16    17    1
    28    17    18    1
    29    23    18    2
    30    23    22    1
    31    18    19    1
    32    22    21    2
    33    25    24    2
    34    19    20    2
    35    21    20    1
    36    21    24    1
    37    24    26    2
    38    24    27    1
    39    28    27    1
    40    27    29    1
