@<TRIPOS>MOLECULE
31496_out_ligand_01.pdbqt
 29 32 0 0 0
SMALL
GASTEIGER

@<TRIPOS>ATOM
      1  C         19.3300  -22.1920  -10.2720 C.2     1  UNL1        0.0330
      2  C         18.9630  -21.3670  -11.3640 C.2     1  UNL1        0.0180
      3  C         19.8950  -21.0280  -12.3530 C.2     1  UNL1        0.0190
      4  C         21.1720  -21.5380  -12.2200 C.2     1  UNL1        0.0480
      5  C         21.5290  -22.3560  -11.1630 C.2     1  UNL1        0.0490
      6  C         20.6320  -22.7080  -10.1740 C.2     1  UNL1        0.0350
      7  C         22.9350  -22.7150  -11.3410 C.2     1  UNL1        0.2620
      8  O         23.5650  -23.4230  -10.5780 O.2     1  UNL1       -0.2670
      9  N         23.3490  -22.1010  -12.4900 N.am    1  UNL1       -0.2760
     10  C         22.3480  -21.3760  -13.0720 C.2     1  UNL1        0.2620
     11  O         22.3730  -20.7090  -14.0890 O.2     1  UNL1       -0.2670
     12  C         18.3490  -22.5690   -9.2160 C.2     1  UNL1        0.2510
     13  O         17.1570  -22.3530   -9.3940 O.2     1  UNL1       -0.2680
     14  N         18.8630  -23.1840   -8.0970 N.am    1  UNL1       -0.3530
     15  H         19.8050  -23.5490   -8.1260 H       1  UNL1        0.1630
     16  C         17.9960  -23.7410   -7.0820 C.3     1  UNL1        0.1610
     17  C         18.0960  -22.9480   -5.8040 C.2     1  UNL1       -0.0410
     18  C         17.6180  -23.4880   -4.6000 C.2     1  UNL1        0.0090
     19  C         17.7290  -22.7690   -3.4090 C.2     1  UNL1        0.0010
     20  C         18.3230  -21.5090   -3.4080 C.2     1  UNL1        0.0000
     21  C         18.8100  -20.9670   -4.5960 C.2     1  UNL1        0.0010
     22  C         18.6990  -21.6830   -5.7890 C.2     1  UNL1        0.0090
     23  C         24.6760  -22.2350  -13.0460 C.3     1  UNL1        0.1750
     24  C         25.5140  -21.0150  -12.7770 C.2     1  UNL1       -0.0220
     25  C         25.9630  -20.7090  -11.4890 C.2     1  UNL1        0.0120
     26  C         26.7560  -19.5830  -11.2840 C.2     1  UNL1        0.0200
     27  C         27.0800  -18.8030  -12.3810 C.2     1  UNL1        0.1160
     28  N         26.6760  -19.0720  -13.6400 N.2     1  UNL1       -0.2730
     29  C         25.9090  -20.1730  -13.8120 C.2     1  UNL1        0.1240
@<TRIPOS>BOND
     1    11    10    2
     2    29    28    1
     3    29    24    2
     4    28    27    2
     5    10     9   am
     6    10     4    1
     7    23    24    1
     8    23     9    1
     9    24    25    1
    10     9     7   am
    11    27    26    1
    12     3     4    2
    13     3     2    1
    14     4     5    1
    15    25    26    2
    16     2     1    2
    17     7     5    1
    18     7     8    2
    19     5     6    2
    20     1     6    1
    21     1    12    1
    22    13    12    2
    23    12    14   am
    24    15    14    1
    25    14    16    1
    26    16    17    1
    27    17    22    2
    28    17    18    1
    29    22    21    1
    30    18    19    2
    31    21    20    2
    32    19    20    1
