@<TRIPOS>MOLECULE
31501_out_ligand_01.pdbqt
 32 35 0 0 0
SMALL
GASTEIGER

@<TRIPOS>ATOM
      1  C         18.6250  -22.0520  -10.0360 C.2     1  UNL1        0.0330
      2  C         18.4530  -21.2500  -11.1930 C.2     1  UNL1        0.0180
      3  C         19.5070  -21.0540  -12.0940 C.2     1  UNL1        0.0190
      4  C         20.7060  -21.6800  -11.8100 C.2     1  UNL1        0.0480
      5  C         20.8720  -22.4750  -10.6900 C.2     1  UNL1        0.0490
      6  C         19.8510  -22.6870   -9.7850 C.2     1  UNL1        0.0350
      7  C         22.2440  -22.9780  -10.7070 C.2     1  UNL1        0.2620
      8  O         22.7240  -23.6990   -9.8550 O.2     1  UNL1       -0.2670
      9  N         22.8300  -22.4670  -11.8320 N.am    1  UNL1       -0.2760
     10  C         21.9710  -21.6790  -12.5440 C.2     1  UNL1        0.2620
     11  O         22.1590  -21.0690  -13.5780 O.2     1  UNL1       -0.2670
     12  C         17.5070  -22.2800   -9.0740 C.2     1  UNL1        0.2560
     13  O         16.3640  -22.2170   -9.5050 O.2     1  UNL1       -0.2670
     14  N         17.8990  -22.5810   -7.7820 N.am    1  UNL1       -0.3220
     15  H         18.8940  -22.7190   -7.6380 H       1  UNL1        0.1690
     16  C         17.0710  -22.7910   -6.6480 C.2     1  UNL1        0.0500
     17  C         15.8940  -23.5480   -6.7220 C.2     1  UNL1        0.0300
     18  C         15.0820  -23.7430   -5.6000 C.2     1  UNL1        0.0020
     19  C         15.4320  -23.1810   -4.3800 C.2     1  UNL1        0.0010
     20  C         16.5940  -22.4240   -4.2840 C.2     1  UNL1        0.0180
     21  C         17.4230  -22.2130   -5.4090 C.2     1  UNL1        0.0740
     22  C         18.6710  -21.3950   -5.1960 C.3     1  UNL1        0.4190
     23  F         18.4990  -20.0760   -5.4890 F       1  UNL1       -0.1660
     24  F         19.7350  -21.8000   -5.9540 F       1  UNL1       -0.1660
     25  F         19.1080  -21.4370   -3.9060 F       1  UNL1       -0.1660
     26  C         24.1870  -22.7590  -12.2350 C.3     1  UNL1        0.1750
     27  C         25.0630  -21.5400  -12.1530 C.2     1  UNL1       -0.0220
     28  C         25.5430  -20.9060  -13.3040 C.2     1  UNL1        0.0120
     29  C         26.3680  -19.7930  -13.1850 C.2     1  UNL1        0.0200
     30  C         26.6940  -19.3510  -11.9140 C.2     1  UNL1        0.1160
     31  N         26.2610  -19.9420  -10.7800 N.2     1  UNL1       -0.2730
     32  C         25.4640  -21.0250  -10.9240 C.2     1  UNL1        0.1240
@<TRIPOS>BOND
     1    11    10    2
     2    28    29    1
     3    28    27    2
     4    29    30    2
     5    10     9   am
     6    10     4    1
     7    26    27    1
     8    26     9    1
     9    27    32    1
    10     3     4    2
    11     3     2    1
    12    30    31    1
    13     9     7   am
    14     4     5    1
    15     2     1    2
    16    32    31    2
    17     7     5    1
    18     7     8    2
    19     5     6    2
    20     1     6    1
    21     1    12    1
    22    13    12    2
    23    12    14   am
    24    14    15    1
    25    14    16    1
    26    17    16    2
    27    17    18    1
    28    16    21    1
    29    24    22    1
    30    18    19    2
    31    23    22    1
    32    21    22    1
    33    21    20    2
    34    22    25    1
    35    19    20    1
