@<TRIPOS>MOLECULE
31500_out_ligand_01.pdbqt
 33 36 0 0 0
SMALL
GASTEIGER

@<TRIPOS>ATOM
      1  C         21.4590  -22.7190  -10.4770 C.2     1  UNL1        0.0330
      2  C         20.7000  -21.9010  -11.3500 C.2     1  UNL1        0.0180
      3  C         21.2570  -21.4080  -12.5370 C.2     1  UNL1        0.0190
      4  C         22.5690  -21.7460  -12.8070 C.2     1  UNL1        0.0480
      5  C         23.3170  -22.5320  -11.9480 C.2     1  UNL1        0.0490
      6  C         22.7960  -23.0310  -10.7710 C.2     1  UNL1        0.0350
      7  C         24.6470  -22.6850  -12.5370 C.2     1  UNL1        0.2620
      8  O         25.5470  -23.3340  -12.0410 O.2     1  UNL1       -0.2670
      9  N         24.6330  -21.9830  -13.7100 N.am    1  UNL1       -0.2760
     10  C         23.4200  -21.3970  -13.9430 C.2     1  UNL1        0.2620
     11  O         23.0610  -20.7220  -14.8880 O.2     1  UNL1       -0.2670
     12  C         20.8790  -23.2420   -9.2090 C.2     1  UNL1        0.2560
     13  N         19.8090  -22.5180   -8.7190 N.am    1  UNL1       -0.3230
     14  H         19.4440  -21.7740   -9.3010 H       1  UNL1        0.1690
     15  O         21.3640  -24.2620   -8.7380 O.2     1  UNL1       -0.2670
     16  C         19.0900  -22.7570   -7.5280 C.2     1  UNL1        0.0350
     17  C         18.3190  -23.8960   -7.2990 C.2     1  UNL1        0.0300
     18  C         17.6420  -24.0640   -6.0850 C.2     1  UNL1        0.0100
     19  C         17.7210  -23.0910   -5.0800 C.2     1  UNL1       -0.0480
     20  C         18.4960  -21.9490   -5.3110 C.2     1  UNL1        0.0100
     21  C         19.1780  -21.7870   -6.5220 C.2     1  UNL1        0.0300
     22  C         16.9820  -23.2720   -3.7750 C.3     1  UNL1        0.1480
     23  C         15.4790  -23.1830   -3.8950 C.2     1  UNL1        0.1430
     24  O         14.7790  -22.1850   -3.9030 O.2     1  UNL1       -0.6500
     25  O         14.9160  -24.4010   -4.0590 O.3     1  UNL1       -0.7760
     26  H         15.2290  -24.9090   -3.2820 H       1  UNL1        0.1670
     27  C         25.7710  -21.8550  -14.5910 C.3     1  UNL1        0.1750
     28  C         26.2600  -20.4350  -14.6610 C.2     1  UNL1       -0.0220
     29  C         26.6640  -19.7440  -13.5140 C.2     1  UNL1        0.0120
     30  C         27.0890  -18.4230  -13.6180 C.2     1  UNL1        0.0200
     31  C         27.0910  -17.8320  -14.8700 C.2     1  UNL1        0.1160
     32  N         26.6950  -18.4610  -15.9980 N.2     1  UNL1       -0.2730
     33  C         26.2820  -19.7420  -15.8670 C.2     1  UNL1        0.1240
@<TRIPOS>BOND
     1    32    33    1
     2    32    31    2
     3    33    28    2
     4    11    10    2
     5    31    30    1
     6    28    27    1
     7    28    29    1
     8    27     9    1
     9    10     9   am
    10    10     4    1
    11     9     7   am
    12    30    29    2
    13     4     3    2
    14     4     5    1
    15     7     8    2
    16     7     5    1
    17     3     2    1
    18     5     6    2
    19     2     1    2
    20     6     1    1
    21     1    12    1
    22    14    13    1
    23    12    15    2
    24    12    13   am
    25    13    16    1
    26    16    17    2
    27    16    21    1
    28    17    18    1
    29    21    20    2
    30    18    19    2
    31    20    19    1
    32    19    22    1
    33    25    23    1
    34    25    26    1
    35    24    23    2
    36    23    22    1
