@<TRIPOS>MOLECULE
31502_out_ligand_01.pdbqt
 32 35 0 0 0
SMALL
GASTEIGER

@<TRIPOS>ATOM
      1  C         21.0570  -22.8020  -10.3080 C.2     1  UNL1        0.0330
      2  C         20.2830  -21.8500  -11.0240 C.2     1  UNL1        0.0180
      3  C         20.7870  -21.2080  -12.1620 C.2     1  UNL1        0.0190
      4  C         22.0680  -21.5380  -12.5530 C.2     1  UNL1        0.0480
      5  C         22.8300  -22.4570  -11.8540 C.2     1  UNL1        0.0490
      6  C         22.3630  -23.1030  -10.7220 C.2     1  UNL1        0.0350
      7  C         24.1180  -22.5700  -12.5330 C.2     1  UNL1        0.2620
      8  O         24.9950  -23.3330  -12.1780 O.2     1  UNL1       -0.2670
      9  N         24.0770  -21.7040  -13.5890 N.am    1  UNL1       -0.2740
     10  C         22.8760  -21.0530  -13.6700 C.2     1  UNL1        0.2620
     11  O         22.4980  -20.2300  -14.4800 O.2     1  UNL1       -0.2670
     12  C         20.4440  -23.4280   -9.0960 C.2     1  UNL1        0.2560
     13  N         19.4150  -22.7110   -8.5100 N.am    1  UNL1       -0.3220
     14  H         19.2360  -21.7900   -8.8830 H       1  UNL1        0.1690
     15  O         20.9230  -24.4850   -8.7020 O.2     1  UNL1       -0.2670
     16  C         18.6180  -23.0890   -7.3980 C.2     1  UNL1        0.0420
     17  C         18.7020  -22.3320   -6.1990 C.2     1  UNL1       -0.0180
     18  C         19.6950  -21.2060   -6.0520 C.3     1  UNL1        0.0520
     19  C         17.8280  -22.6570   -5.1340 C.2     1  UNL1        0.0450
     20  C         16.9650  -23.7570   -5.2180 C.2     1  UNL1        0.0190
     21  C         16.9200  -24.5150   -6.3810 C.2     1  UNL1        0.0030
     22  C         17.7290  -24.1720   -7.4640 C.2     1  UNL1        0.0300
     23  C         17.7490  -21.8850   -3.8740 C.2     1  UNL1        0.1760
     24  O         18.6920  -21.4630   -3.2320 O.2     1  UNL1       -0.6460
     25  O         16.4840  -21.7740   -3.4310 O.3     1  UNL1       -0.7730
     26  H         16.0140  -21.3250   -4.1650 H       1  UNL1        0.1670
     27  C         25.1760  -21.4790  -14.5000 C.3     1  UNL1        0.2000
     28  C         24.8760  -22.1330  -15.8020 C.2     1  UNL1        0.0700
     29  C         24.7450  -23.4520  -16.1950 C.2     1  UNL1        0.0360
     30  C         24.4380  -23.4270  -17.5750 C.2     1  UNL1        0.0270
     31  C         24.4000  -22.1000  -17.9360 C.2     1  UNL1        0.1420
     32  O         24.6680  -21.3080  -16.8670 O.2     1  UNL1       -0.3250
@<TRIPOS>BOND
     1    31    30    2
     2    31    32    1
     3    30    29    1
     4    32    28    1
     5    29    28    2
     6    28    27    1
     7    27     9    1
     8    11    10    2
     9    10     9   am
    10    10     4    1
    11     9     7   am
    12     4     3    2
    13     4     5    1
    14     7     8    2
    15     7     5    1
    16     3     2    1
    17     5     6    2
    18     2     1    2
    19     6     1    1
    20     1    12    1
    21    12    15    2
    22    12    13   am
    23    14    13    1
    24    13    16    1
    25    22    16    2
    26    22    21    1
    27    16    17    1
    28    21    20    2
    29    17    18    1
    30    17    19    2
    31    20    19    1
    32    19    23    1
    33    26    25    1
    34    23    25    1
    35    23    24    2
