@<TRIPOS>MOLECULE
31505_out_ligand_01.pdbqt
 30 33 0 0 0
SMALL
GASTEIGER

@<TRIPOS>ATOM
      1  C         20.1330  -21.9670  -11.2090 C.2     1  UNL1        0.0330
      2  C         18.9930  -21.3250  -11.7540 C.2     1  UNL1        0.0180
      3  C         17.7190  -21.5530  -11.2220 C.2     1  UNL1        0.0190
      4  C         17.6290  -22.4180  -10.1470 C.2     1  UNL1        0.0480
      5  C         18.7420  -23.0350   -9.6040 C.2     1  UNL1        0.0490
      6  C         20.0110  -22.8280  -10.1070 C.2     1  UNL1        0.0350
      7  C         18.2850  -23.8680   -8.4930 C.2     1  UNL1        0.2620
      8  O         19.0150  -24.5560   -7.8060 O.2     1  UNL1       -0.2670
      9  N         16.9300  -23.7040   -8.4180 N.am    1  UNL1       -0.2760
     10  C         16.4630  -22.8530   -9.3800 C.2     1  UNL1        0.2620
     11  O         15.3230  -22.4950   -9.6030 O.2     1  UNL1       -0.2670
     12  C         21.4960  -21.7190  -11.7580 C.2     1  UNL1        0.2560
     13  N         22.5250  -22.2980  -11.0390 N.am    1  UNL1       -0.3230
     14  H         22.2880  -22.7410  -10.1610 H       1  UNL1        0.1690
     15  O         21.5890  -21.0170  -12.7560 O.2     1  UNL1       -0.2670
     16  C         23.9040  -22.2640  -11.3440 C.2     1  UNL1        0.0350
     17  C         24.8180  -21.4140  -10.7200 C.2     1  UNL1        0.0290
     18  C         26.1670  -21.4460  -11.0780 C.2     1  UNL1        0.0030
     19  C         26.6130  -22.3230  -12.0670 C.2     1  UNL1        0.0110
     20  C         25.7120  -23.1680  -12.7210 C.2     1  UNL1       -0.0350
     21  C         24.3620  -23.1380  -12.3430 C.2     1  UNL1        0.0410
     22  C         26.2230  -24.0980  -13.7380 C.2     1  UNL1        0.0010
     23  C         25.4730  -24.6700  -14.6870 C.2     1  UNL1        0.0120
     24  C         16.0820  -24.3970   -7.4750 C.3     1  UNL1        0.1750
     25  C         15.9900  -23.6590   -6.1680 C.2     1  UNL1       -0.0220
     26  C         14.9110  -22.8190   -5.8800 C.2     1  UNL1        0.0120
     27  C         14.8740  -22.1350   -4.6670 C.2     1  UNL1        0.0200
     28  C         15.9260  -22.3090   -3.7840 C.2     1  UNL1        0.1160
     29  N         16.9910  -23.1010   -4.0330 N.2     1  UNL1       -0.2730
     30  C         17.0030  -23.7530   -5.2180 C.2     1  UNL1        0.1240
@<TRIPOS>BOND
     1    23    22    2
     2    22    20    1
     3    15    12    2
     4    20    21    1
     5    20    19    2
     6    21    16    2
     7    19    18    1
     8    12     1    1
     9    12    13   am
    10     2     3    1
    11     2     1    2
    12    16    13    1
    13    16    17    1
    14     3     4    2
    15     1     6    1
    16    18    17    2
    17    13    14    1
    18     4     5    1
    19     4    10    1
    20     6     5    2
    21     5     7    1
    22    11    10    2
    23    10     9   am
    24     7     9   am
    25     7     8    2
    26     9    24    1
    27    24    25    1
    28    25    26    2
    29    25    30    1
    30    26    27    1
    31    30    29    2
    32    27    28    2
    33    29    28    1
