@<TRIPOS>MOLECULE
31510_out_ligand_01.pdbqt
 24 26 0 0 0
SMALL
GASTEIGER

@<TRIPOS>ATOM
      1  C         18.7650  -23.0050   -7.6740 C.2     1  UNL1        0.0360
      2  C         17.8950  -24.1190   -7.6510 C.2     1  UNL1        0.0300
      3  C         17.0980  -24.4050   -6.5310 C.2     1  UNL1        0.0200
      4  C         17.1960  -23.5540   -5.4540 C.2     1  UNL1        0.0480
      5  C         18.0420  -22.4600   -5.4690 C.2     1  UNL1        0.0500
      6  C         18.8370  -22.1570   -6.5590 C.2     1  UNL1        0.0470
      7  C         17.9010  -21.7770   -4.1860 C.2     1  UNL1        0.2590
      8  O         18.4960  -20.7700   -3.8590 O.2     1  UNL1       -0.2670
      9  N         16.9890  -22.4890   -3.4700 N.am    1  UNL1       -0.2890
     10  C         16.5170  -23.5660   -4.1580 C.2     1  UNL1        0.2590
     11  O         15.6980  -24.3850   -3.7960 O.2     1  UNL1       -0.2670
     12  H         16.6900  -22.2470   -2.5390 H       1  UNL1        0.1720
     13  N         19.5800  -22.6740   -8.7770 N.am    1  UNL1       -0.3230
     14  C         20.6640  -23.3830   -9.2630 C.2     1  UNL1        0.2560
     15  O         21.1560  -24.3950   -8.7780 O.2     1  UNL1       -0.2670
     16  H         19.3910  -21.7810   -9.2140 H       1  UNL1        0.1690
     17  C         21.2990  -22.7990  -10.4780 C.2     1  UNL1        0.0320
     18  C         20.5420  -21.9420  -11.2790 C.2     1  UNL1        0.0170
     19  C         21.1030  -21.3810  -12.4270 C.2     1  UNL1        0.0080
     20  C         22.4320  -21.6590  -12.7860 C.2     1  UNL1       -0.0560
     21  C         23.0030  -21.0300  -14.0280 C.3     1  UNL1        0.0490
     22  C         23.2070  -22.5070  -11.9680 C.2     1  UNL1       -0.0550
     23  C         22.6330  -23.0670  -10.8140 C.2     1  UNL1        0.0240
     24  C         24.6460  -22.8090  -12.2970 C.3     1  UNL1        0.0490
@<TRIPOS>BOND
     1    21    20    1
     2    20    19    2
     3    20    22    1
     4    19    18    1
     5    24    22    1
     6    22    23    2
     7    18    17    2
     8    23    17    1
     9    17    14    1
    10    14    15    2
    11    14    13   am
    12    16    13    1
    13    13     1    1
    14     1     2    2
    15     1     6    1
    16     2     3    1
    17     6     5    2
    18     3     4    2
    19     5     4    1
    20     5     7    1
    21     4    10    1
    22     7     8    2
    23     7     9   am
    24    10    11    2
    25    10     9   am
    26     9    12    1
