@<TRIPOS>MOLECULE
31519_out_ligand_01.pdbqt
 30 33 0 0 0
SMALL
GASTEIGER

@<TRIPOS>ATOM
      1  C         20.1390  -21.9910  -11.2270 C.2     1  UNL1        0.0330
      2  C         18.9880  -21.3280  -11.7250 C.2     1  UNL1        0.0180
      3  C         17.7270  -21.5690  -11.1680 C.2     1  UNL1        0.0190
      4  C         17.6580  -22.4650  -10.1190 C.2     1  UNL1        0.0480
      5  C         18.7820  -23.1020   -9.6220 C.2     1  UNL1        0.0490
      6  C         20.0400  -22.8840  -10.1490 C.2     1  UNL1        0.0350
      7  C         18.3510  -23.9630   -8.5230 C.2     1  UNL1        0.2620
      8  O         19.0960  -24.6770   -7.8810 O.2     1  UNL1       -0.2670
      9  N         16.9980  -23.7970   -8.4100 N.am    1  UNL1       -0.2760
     10  C         16.5110  -22.9190   -9.3360 C.2     1  UNL1        0.2620
     11  O         15.3670  -22.5540   -9.5340 O.2     1  UNL1       -0.2670
     12  C         21.4890  -21.7320  -11.8020 C.2     1  UNL1        0.2560
     13  N         22.5360  -22.3290  -11.1240 N.am    1  UNL1       -0.3230
     14  H         22.3180  -22.7990  -10.2550 H       1  UNL1        0.1690
     15  O         21.5600  -21.0050  -12.7840 O.2     1  UNL1       -0.2670
     16  C         23.9070  -22.2880  -11.4590 C.2     1  UNL1        0.0350
     17  C         24.7110  -21.3970  -10.7390 C.2     1  UNL1        0.0290
     18  C         26.0790  -21.3060  -10.9990 C.2     1  UNL1        0.0030
     19  C         26.6560  -22.1030  -11.9860 C.2     1  UNL1        0.0110
     20  C         25.8700  -22.9910  -12.7290 C.2     1  UNL1       -0.0350
     21  C         24.4970  -23.0850  -12.4450 C.2     1  UNL1        0.0410
     22  C         26.4400  -23.8750  -13.7580 C.2     1  UNL1        0.0010
     23  C         25.7250  -24.6150  -14.6150 C.2     1  UNL1        0.0120
     24  C         16.1870  -24.4440   -7.4030 C.3     1  UNL1        0.1740
     25  C         16.1590  -23.6440   -6.1220 C.2     1  UNL1       -0.0400
     26  C         17.2700  -23.6350   -5.2640 C.2     1  UNL1        0.0090
     27  C         17.2330  -22.9150   -4.0700 C.2     1  UNL1        0.0010
     28  C         16.0880  -22.2040   -3.7160 C.2     1  UNL1        0.0000
     29  C         14.9750  -22.2160   -4.5550 C.2     1  UNL1        0.0010
     30  C         15.0080  -22.9350   -5.7500 C.2     1  UNL1        0.0090
@<TRIPOS>BOND
     1    23    22    2
     2    22    20    1
     3    15    12    2
     4    20    21    1
     5    20    19    2
     6    21    16    2
     7    19    18    1
     8    12     1    1
     9    12    13   am
    10     2     1    2
    11     2     3    1
    12    16    13    1
    13    16    17    1
    14     1     6    1
    15     3     4    2
    16    13    14    1
    17    18    17    2
    18     6     5    2
    19     4     5    1
    20     4    10    1
    21     5     7    1
    22    11    10    2
    23    10     9   am
    24     7     9   am
    25     7     8    2
    26     9    24    1
    27    24    25    1
    28    25    30    2
    29    25    26    1
    30    30    29    1
    31    26    27    2
    32    29    28    2
    33    27    28    1
