@<TRIPOS>MOLECULE
31517_out_ligand_01.pdbqt
 36 40 0 0 0
SMALL
GASTEIGER

@<TRIPOS>ATOM
      1  C         19.9860  -21.9630  -11.1300 C.2     1  UNL1        0.0330
      2  C         18.8360  -21.3230  -11.6620 C.2     1  UNL1        0.0180
      3  C         17.5620  -21.5650  -11.1360 C.2     1  UNL1        0.0190
      4  C         17.4770  -22.4440  -10.0750 C.2     1  UNL1        0.0480
      5  C         18.5990  -23.0590   -9.5470 C.2     1  UNL1        0.0490
      6  C         19.8700  -22.8400  -10.0430 C.2     1  UNL1        0.0350
      7  C         18.1560  -23.9050   -8.4390 C.2     1  UNL1        0.2620
      8  O         18.9050  -24.5920   -7.7720 O.2     1  UNL1       -0.2670
      9  N         16.8010  -23.7560   -8.3560 N.am    1  UNL1       -0.2760
     10  C         16.3200  -22.8970   -9.3050 C.2     1  UNL1        0.2620
     11  O         15.1740  -22.5520   -9.5160 O.2     1  UNL1       -0.2670
     12  C         21.3100  -21.6390  -11.7370 C.2     1  UNL1        0.2560
     13  O         21.3310  -20.8290  -12.6560 O.2     1  UNL1       -0.2670
     14  N         22.3890  -22.3160  -11.2000 N.am    1  UNL1       -0.3230
     15  H         22.1990  -23.0120  -10.4930 H       1  UNL1        0.1690
     16  C         23.7470  -22.1930  -11.5720 C.2     1  UNL1        0.0350
     17  C         24.5890  -21.5140  -10.6780 C.2     1  UNL1        0.0290
     18  C         25.9470  -21.3410  -10.9610 C.2     1  UNL1        0.0030
     19  C         26.4780  -21.8390  -12.1470 C.2     1  UNL1        0.0150
     20  C         25.6430  -22.5060  -13.0490 C.2     1  UNL1        0.0170
     21  C         24.2850  -22.6960  -12.7570 C.2     1  UNL1        0.0450
     22  C         26.1880  -23.0680  -14.3070 C.2     1  UNL1        0.1920
     23  O         27.1040  -23.8820  -14.2470 O.2     1  UNL1       -0.2870
     24  C         25.6540  -22.6510  -15.6310 C.2     1  UNL1        0.0150
     25  C         24.9530  -23.5370  -16.4590 C.2     1  UNL1        0.0150
     26  C         24.4750  -23.1030  -17.6980 C.2     1  UNL1        0.0010
     27  C         24.7030  -21.7910  -18.1160 C.2     1  UNL1        0.0000
     28  C         25.4160  -20.9120  -17.3020 C.2     1  UNL1        0.0010
     29  C         25.8950  -21.3410  -16.0640 C.2     1  UNL1        0.0150
     30  C         15.9740  -24.3990   -7.3590 C.3     1  UNL1        0.1750
     31  C         15.9630  -23.6280   -6.0690 C.2     1  UNL1       -0.0220
     32  C         14.8830  -22.8140   -5.7140 C.2     1  UNL1        0.0120
     33  C         14.9020  -22.1320   -4.5010 C.2     1  UNL1        0.0200
     34  C         16.0020  -22.2940   -3.6760 C.2     1  UNL1        0.1160
     35  N         17.0570  -23.0790   -3.9790 N.2     1  UNL1       -0.2730
     36  C         17.0120  -23.7320   -5.1620 C.2     1  UNL1        0.1240
@<TRIPOS>BOND
     1    27    26    2
     2    27    28    1
     3    26    25    1
     4    28    29    2
     5    25    24    2
     6    29    24    1
     7    24    22    1
     8    22    23    2
     9    22    20    1
    10    20    21    1
    11    20    19    2
    12    21    16    2
    13    13    12    2
    14    19    18    1
    15    12    14   am
    16    12     1    1
    17     2     3    1
    18     2     1    2
    19    16    14    1
    20    16    17    1
    21    14    15    1
    22     3     4    2
    23     1     6    1
    24    18    17    2
    25     4     5    1
    26     4    10    1
    27     6     5    2
    28     5     7    1
    29    11    10    2
    30    10     9   am
    31     7     9   am
    32     7     8    2
    33     9    30    1
    34    30    31    1
    35    31    32    2
    36    31    36    1
    37    32    33    1
    38    36    35    2
    39    33    34    2
    40    35    34    1
