@<TRIPOS>MOLECULE
31527_out_ligand_01.pdbqt
 31 34 0 0 0
SMALL
GASTEIGER

@<TRIPOS>ATOM
      1  C         20.4140  -22.7420  -10.0470 C.2     1  UNL1        0.0330
      2  C         19.7550  -21.9820  -11.0470 C.2     1  UNL1        0.0180
      3  C         20.4500  -21.4860  -12.1570 C.2     1  UNL1        0.0190
      4  C         21.7950  -21.7780  -12.2390 C.2     1  UNL1        0.0480
      5  C         22.4390  -22.5300  -11.2720 C.2     1  UNL1        0.0490
      6  C         21.7810  -23.0340  -10.1640 C.2     1  UNL1        0.0350
      7  C         23.8380  -22.6520  -11.6680 C.2     1  UNL1        0.2620
      8  O         24.6790  -23.2350  -11.0090 O.2     1  UNL1       -0.2670
      9  N         23.9660  -21.9870  -12.8540 N.am    1  UNL1       -0.2740
     10  C         22.7870  -21.4190  -13.2520 C.2     1  UNL1        0.2620
     11  O         22.5470  -20.7220  -14.2180 O.2     1  UNL1       -0.2670
     12  C         19.6020  -23.2470   -8.9010 C.2     1  UNL1        0.2560
     13  N         18.4600  -22.5190   -8.6200 N.am    1  UNL1       -0.3230
     14  H         18.2060  -21.7830   -9.2660 H       1  UNL1        0.1690
     15  O         19.9840  -24.2610   -8.3340 O.2     1  UNL1       -0.2670
     16  C         17.5400  -22.7430   -7.5710 C.2     1  UNL1        0.0360
     17  C         16.3710  -23.4470   -7.8940 C.2     1  UNL1        0.0290
     18  C         15.4030  -23.7110   -6.9220 C.2     1  UNL1        0.0030
     19  C         15.5940  -23.2710   -5.6150 C.2     1  UNL1        0.0180
     20  C         16.7530  -22.5630   -5.2790 C.2     1  UNL1        0.0390
     21  C         17.7230  -22.3010   -6.2600 C.2     1  UNL1        0.0480
     22  C         16.9920  -22.0700   -3.9000 C.2     1  UNL1        0.1760
     23  O         18.0560  -21.7090   -3.4370 O.2     1  UNL1       -0.6460
     24  O         15.8730  -22.0520   -3.1530 O.3     1  UNL1       -0.7730
     25  H         15.6020  -21.1100   -3.1720 H       1  UNL1        0.1670
     26  C         25.2000  -21.8970  -13.6000 C.3     1  UNL1        0.2000
     27  C         25.9550  -20.6970  -13.1530 C.2     1  UNL1        0.0700
     28  C         26.4110  -20.2690  -11.9220 C.2     1  UNL1        0.0360
     29  C         27.0740  -19.0380  -12.1480 C.2     1  UNL1        0.0270
     30  C         26.9790  -18.7940  -13.4980 C.2     1  UNL1        0.1420
     31  O         26.3000  -19.7940  -14.1150 O.2     1  UNL1       -0.3250
@<TRIPOS>BOND
     1    11    10    2
     2    31    30    1
     3    31    27    1
     4    26    27    1
     5    26     9    1
     6    30    29    2
     7    10     9   am
     8    10     4    1
     9    27    28    2
    10     9     7   am
    11     4     3    2
    12     4     5    1
    13     3     2    1
    14    29    28    1
    15     7     5    1
    16     7     8    2
    17     5     6    2
    18     2     1    2
    19     6     1    1
    20     1    12    1
    21    14    13    1
    22    12    13   am
    23    12    15    2
    24    13    16    1
    25    17    16    2
    26    17    18    1
    27    16    21    1
    28    18    19    2
    29    21    20    2
    30    19    20    1
    31    20    22    1
    32    22    23    2
    33    22    24    1
    34    25    24    1
