@<TRIPOS>MOLECULE
31521_out_ligand_01.pdbqt
 34 37 0 0 0
SMALL
GASTEIGER

@<TRIPOS>ATOM
      1  C         22.7460  -22.7890  -10.8730 C.2     1  UNL1        0.0450
      2  C         23.0900  -23.6140   -9.8000 C.2     1  UNL1        0.0300
      3  C         22.1550  -23.9470   -8.8340 C.2     1  UNL1        0.0030
      4  C         20.8560  -23.4570   -8.9250 C.2     1  UNL1        0.0140
      5  C         20.4340  -22.6140   -9.9820 C.2     1  UNL1        0.0030
      6  C         19.0930  -22.1060  -10.0910 C.2     1  UNL1        0.0450
      7  C         18.7480  -21.2790  -11.1610 C.2     1  UNL1        0.0300
      8  C         19.6840  -20.9410  -12.1240 C.2     1  UNL1        0.0030
      9  C         20.9850  -21.4270  -12.0310 C.2     1  UNL1        0.0140
     10  C         21.4070  -22.2710  -10.9750 C.2     1  UNL1        0.0030
     11  N         23.7120  -22.4500  -11.8590 N.am    1  UNL1       -0.3260
     12  C         24.7850  -21.5810  -11.7730 C.2     1  UNL1        0.2310
     13  O         25.0970  -20.9120  -10.7900 O.2     1  UNL1       -0.2720
     14  H         23.6730  -22.9550  -12.7350 H       1  UNL1        0.1690
     15  C         25.5900  -21.4290  -13.0610 C.3     1  UNL1        0.1820
     16  S         24.8350  -20.2700  -14.2560 S.3     1  UNL1       -0.1210
     17  C         24.7760  -21.3220  -15.6950 C.2     1  UNL1        0.0010
     18  C         24.5440  -22.6970  -15.5840 C.2     1  UNL1        0.0180
     19  C         24.4890  -23.4980  -16.7280 C.2     1  UNL1        0.0010
     20  C         24.6590  -22.9260  -17.9880 C.2     1  UNL1        0.0000
     21  C         24.8770  -21.5550  -18.1060 C.2     1  UNL1        0.0010
     22  C         24.9310  -20.7540  -16.9630 C.2     1  UNL1        0.0180
     23  N         18.1280  -22.4530   -9.1090 N.am    1  UNL1       -0.3260
     24  C         16.7450  -22.4410   -9.1950 C.2     1  UNL1        0.2310
     25  O         16.0760  -22.0680  -10.1550 O.2     1  UNL1       -0.2720
     26  H         18.4720  -22.8390   -8.2410 H       1  UNL1        0.1690
     27  C         16.0510  -22.8650   -7.9040 C.3     1  UNL1        0.1820
     28  S         17.0320  -24.0600   -6.9280 S.3     1  UNL1       -0.1210
     29  C         17.5940  -22.9710   -5.6330 C.2     1  UNL1        0.0010
     30  C         17.1830  -23.1690   -4.3110 C.2     1  UNL1        0.0180
     31  C         17.6200  -22.3050   -3.3040 C.2     1  UNL1        0.0010
     32  C         18.4770  -21.2490   -3.6130 C.2     1  UNL1        0.0000
     33  C         18.8990  -21.0560   -4.9270 C.2     1  UNL1        0.0010
     34  C         18.4620  -21.9180   -5.9340 C.2     1  UNL1        0.0180
@<TRIPOS>BOND
     1    21    20    2
     2    21    22    1
     3    20    19    1
     4    22    17    2
     5    19    18    2
     6    17    18    1
     7    17    16    1
     8    16    15    1
     9    15    12    1
    10    14    11    1
    11     8     9    2
    12     8     7    1
    13     9    10    1
    14    11    12   am
    15    11     1    1
    16    12    13    2
    17     7     6    2
    18    10     1    2
    19    10     5    1
    20     1     2    1
    21    25    24    2
    22     6     5    1
    23     6    23    1
    24     5     4    2
    25     2     3    2
    26    24    23   am
    27    24    27    1
    28    23    26    1
    29     4     3    1
    30    27    28    1
    31    28    29    1
    32    34    29    2
    33    34    33    1
    34    29    30    1
    35    33    32    2
    36    30    31    2
    37    32    31    1
