@<TRIPOS>MOLECULE
31520_out_ligand_01.pdbqt
 30 33 0 0 0
SMALL
GASTEIGER

@<TRIPOS>ATOM
      1  C         22.8910  -23.1290   -8.9740 C.2     1  UNL1        0.0340
      2  C         21.9060  -24.0860   -9.2410 C.2     1  UNL1        0.0300
      3  C         20.6160  -23.9490   -8.7150 C.2     1  UNL1        0.0170
      4  C         20.2910  -22.8440   -7.9220 C.2     1  UNL1        0.0100
      5  C         21.2770  -21.8930   -7.6420 C.2     1  UNL1        0.0170
      6  C         22.5670  -22.0350   -8.1700 C.2     1  UNL1        0.0300
      7  N         24.1620  -23.3430   -9.5390 N.am    1  UNL1       -0.3270
      8  C         24.7750  -22.6350  -10.5580 C.2     1  UNL1        0.2310
      9  O         24.2780  -21.7090  -11.1940 O.2     1  UNL1       -0.2720
     10  H         24.7380  -24.0550   -9.1000 H       1  UNL1        0.1690
     11  C         26.1560  -23.1630  -10.9310 C.3     1  UNL1        0.1820
     12  S         26.9610  -22.2070  -12.2660 S.3     1  UNL1       -0.1210
     13  C         26.1720  -22.9050  -13.7080 C.2     1  UNL1        0.0010
     14  C         25.7510  -22.0420  -14.7250 C.2     1  UNL1        0.0180
     15  C         25.1250  -22.5460  -15.8680 C.2     1  UNL1        0.0010
     16  C         24.9290  -23.9180  -16.0060 C.2     1  UNL1        0.0000
     17  C         25.3620  -24.7860  -15.0050 C.2     1  UNL1        0.0010
     18  C         25.9860  -24.2830  -13.8620 C.2     1  UNL1        0.0180
     19  C         18.9090  -22.7330   -7.3830 C.ar    1  UNL1        0.1410
     20  N         18.7040  -22.6350   -6.1060 N.ar    1  UNL1       -0.2300
     21  C         17.3810  -22.5330   -5.6470 C.ar    1  UNL1        0.0740
     22  C         17.1500  -22.4020   -4.2770 C.2     1  UNL1        0.0320
     23  C         16.2800  -22.5550   -6.5080 C.ar    1  UNL1        0.0610
     24  C         15.8470  -22.2980   -3.7790 C.2     1  UNL1        0.0020
     25  C         14.7580  -22.3240   -4.6530 C.2     1  UNL1        0.0010
     26  C         14.9720  -22.4540   -6.0240 C.2     1  UNL1        0.0190
     27  C         16.5530  -22.6970   -7.9460 C.ar    1  UNL1        0.2590
     28  O         15.6570  -22.7650   -8.7800 O.2     1  UNL1       -0.2670
     29  N         17.8770  -22.7590   -8.2960 N.ar    1  UNL1       -0.3070
     30  H         18.0460  -22.9050   -9.2790 H       1  UNL1        0.1700
@<TRIPOS>BOND
     1    16    15    2
     2    16    17    1
     3    15    14    1
     4    17    18    2
     5    14    13    2
     6    18    13    1
     7    13    12    1
     8    12    11    1
     9     9     8    2
    10    11     8    1
    11     8     7   am
    12     7    10    1
    13     7     1    1
    14    30    29    1
    15     2     1    2
    16     2     3    1
    17     1     6    1
    18    28    27    2
    19     3     4    2
    20    29    27   ar
    21    29    19   ar
    22     6     5    2
    23    27    23   ar
    24     4     5    1
    25     4    19    1
    26    19    20   ar
    27    23    26    1
    28    23    21   ar
    29    20    21   ar
    30    26    25    2
    31    21    22    1
    32    25    24    1
    33    22    24    2
