@<TRIPOS>MOLECULE
3153_out_ligand_01.pdbqt
 32 35 0 0 0
SMALL
GASTEIGER

@<TRIPOS>ATOM
      1  C         22.5800  -22.4810  -10.5170 C.2     1  UNL1        0.7300
      2  N         22.2530  -21.7340  -11.5860 N.2     1  UNL1       -0.0740
      3  C         20.9350  -21.4890  -11.7720 C.2     1  UNL1        0.1530
      4  C         19.9540  -21.9570  -10.9270 C.2     1  UNL1        0.0530
      5  C         20.3840  -22.7040   -9.8510 C.2     1  UNL1        0.0690
      6  N         21.6940  -22.9790   -9.6400 N.2     1  UNL1       -0.0660
      7  C         19.3990  -23.2900   -8.8750 C.3     1  UNL1        0.0720
      8  C         18.1300  -22.4330   -8.7980 C.3     1  UNL1        0.0560
      9  C         17.5230  -22.2520  -10.1900 C.3     1  UNL1        0.0950
     10  C         18.5290  -21.6770  -11.1610 C.2     1  UNL1        0.1630
     11  O         18.1930  -21.0390  -12.1530 O.2     1  UNL1       -0.2920
     12  N         23.8990  -22.7810  -10.2530 N.am    1  UNL1       -0.1370
     13  C         24.8610  -23.2390  -11.0970 C.2     1  UNL1        0.3480
     14  N         24.5160  -23.4620  -12.4200 N.am    1  UNL1       -0.2310
     15  O         25.9930  -23.4230  -10.6670 O.2     1  UNL1       -0.2450
     16  H         23.5630  -23.2550  -12.7210 H       1  UNL1        0.1830
     17  H         24.1880  -22.6450   -9.2970 H       1  UNL1        0.1890
     18  S         25.5090  -24.0300  -13.6110 S.O2    1  UNL1        0.2660
     19  O         24.9370  -25.2920  -14.0360 O.2     1  UNL1       -0.2000
     20  O         26.8850  -23.9600  -13.1730 O.2     1  UNL1       -0.2000
     21  C         25.2580  -22.8690  -14.9300 C.2     1  UNL1        0.0800
     22  C         24.9560  -23.3360  -16.2120 C.2     1  UNL1        0.0260
     23  C         24.7860  -22.4240  -17.2540 C.2     1  UNL1        0.0080
     24  C         24.9130  -21.0470  -17.0230 C.2     1  UNL1       -0.0620
     25  C         24.7640  -20.0720  -18.1530 C.3     1  UNL1        0.0480
     26  C         25.2440  -20.5950  -15.7370 C.2     1  UNL1        0.0080
     27  C         25.4180  -21.5020  -14.6900 C.2     1  UNL1        0.0260
     28  C         17.1470  -23.0290   -7.8470 C.2     1  UNL1        0.0570
     29  C         16.8980  -24.3100   -7.3940 C.2     1  UNL1        0.0350
     30  C         15.8200  -24.2070   -6.4820 C.2     1  UNL1        0.0270
     31  C         15.4830  -22.8750   -6.4340 C.2     1  UNL1        0.1420
     32  O         16.2850  -22.1540   -7.2580 O.2     1  UNL1       -0.3270
@<TRIPOS>BOND
     1    25    24    1
     2    23    24    2
     3    23    22    1
     4    24    26    1
     5    22    21    2
     6    26    27    2
     7    21    27    1
     8    21    18    1
     9    19    18    2
    10    18    20    2
    11    18    14    1
    12    16    14    1
    13    14    13   am
    14    11    10    2
    15     3     2    1
    16     3     4    2
    17     2     1    2
    18    10     4    1
    19    10     9    1
    20    13    15    2
    21    13    12   am
    22     4     5    1
    23     1    12    1
    24     1     6    1
    25    12    17    1
    26     9     8    1
    27     5     6    2
    28     5     7    1
    29     7     8    1
    30     8    28    1
    31    28    29    2
    32    28    32    1
    33    29    30    1
    34    32    31    1
    35    30    31    2
