@<TRIPOS>MOLECULE
31543_out_ligand_01.pdbqt
 33 36 0 0 0
SMALL
GASTEIGER

@<TRIPOS>ATOM
      1  C         20.6110  -21.9720  -10.4940 C.2     1  UNL1        0.0330
      2  C         19.6080  -21.3630  -11.2890 C.2     1  UNL1        0.0180
      3  C         18.2500  -21.5720  -11.0160 C.2     1  UNL1        0.0190
      4  C         17.9400  -22.3990   -9.9540 C.2     1  UNL1        0.0480
      5  C         18.9170  -23.0090   -9.1870 C.2     1  UNL1        0.0490
      6  C         20.2640  -22.8210   -9.4300 C.2     1  UNL1        0.0350
      7  C         18.2400  -23.8220   -8.1760 C.2     1  UNL1        0.2620
      8  O         18.8120  -24.4870   -7.3340 O.2     1  UNL1       -0.2670
      9  N         16.8990  -23.6600   -8.3860 N.am    1  UNL1       -0.2760
     10  C         16.6410  -22.8230   -9.4350 C.2     1  UNL1        0.2620
     11  O         15.5720  -22.4670   -9.8900 O.2     1  UNL1       -0.2670
     12  C         22.0590  -21.7710  -10.7850 C.2     1  UNL1        0.2560
     13  N         22.4970  -22.3300  -11.9720 N.am    1  UNL1       -0.3220
     14  H         21.7790  -22.6980  -12.5770 H       1  UNL1        0.1690
     15  O         22.7120  -21.1180   -9.9820 O.2     1  UNL1       -0.2670
     16  C         23.8140  -22.3300  -12.5020 C.2     1  UNL1        0.0420
     17  C         24.8280  -23.1250  -11.9490 C.2     1  UNL1        0.0300
     18  C         26.1300  -23.0890  -12.4460 C.2     1  UNL1        0.0030
     19  C         26.4460  -22.2420  -13.4990 C.2     1  UNL1        0.0180
     20  C         25.4500  -21.4460  -14.0810 C.2     1  UNL1        0.0470
     21  C         24.1120  -21.5030  -13.6160 C.2     1  UNL1       -0.0190
     22  C         23.0400  -20.6780  -14.2870 C.3     1  UNL1        0.0520
     23  C         25.8600  -20.5040  -15.1550 C.2     1  UNL1        0.2930
     24  O         26.1440  -19.3310  -14.9700 O.2     1  UNL1       -0.2590
     25  O         25.8410  -21.1490  -16.3490 O.3     1  UNL1       -0.3230
     26  C         25.2110  -20.4110  -17.3970 C.3     1  UNL1        0.2130
     27  C         15.8740  -24.3450   -7.6310 C.3     1  UNL1        0.1750
     28  C         15.5830  -23.6420   -6.3330 C.2     1  UNL1       -0.0220
     29  C         14.7370  -22.5300   -6.2790 C.2     1  UNL1        0.0120
     30  C         14.5170  -21.8900   -5.0630 C.2     1  UNL1        0.0200
     31  C         15.1570  -22.3810   -3.9380 C.2     1  UNL1        0.1160
     32  N         15.9920  -23.4440   -3.9520 N.2     1  UNL1       -0.2730
     33  C         16.1900  -24.0450   -5.1460 C.2     1  UNL1        0.1240
@<TRIPOS>BOND
     1    26    25    1
     2    25    23    1
     3    23    24    2
     4    23    20    1
     5    22    21    1
     6    20    21    1
     7    20    19    2
     8    21    16    2
     9    19    18    1
    10    14    13    1
    11    16    13    1
    12    16    17    1
    13    18    17    2
    14    13    12   am
    15     2     3    1
    16     2     1    2
    17     3     4    2
    18    12     1    1
    19    12    15    2
    20     1     6    1
    21     4    10    1
    22     4     5    1
    23    11    10    2
    24    10     9   am
    25     6     5    2
    26     5     7    1
    27     9     7   am
    28     9    27    1
    29     7     8    2
    30    27    28    1
    31    28    29    2
    32    28    33    1
    33    29    30    1
    34    33    32    2
    35    30    31    2
    36    32    31    1
