@<TRIPOS>MOLECULE
3154_out_ligand_01.pdbqt
 32 35 0 0 0
SMALL
GASTEIGER

@<TRIPOS>ATOM
      1  C         23.6850  -21.6340  -10.3330 C.ar    1  UNL1        0.1920
      2  N         24.9080  -21.1600  -10.2930 N.ar    1  UNL1       -0.1220
      3  N         25.3940  -21.1630  -11.5780 N.ar    1  UNL1       -0.1280
      4  C         24.4520  -21.6350  -12.3690 C.ar    1  UNL1        0.1710
      5  N         23.3230  -21.8880  -11.6250 N.ar    1  UNL1       -0.3060
      6  S         22.6910  -21.9420   -8.9550 S.3     1  UNL1       -0.0810
      7  C         22.4890  -23.7490   -9.0850 C.3     1  UNL1        0.1850
      8  C         21.1320  -24.2020   -8.5710 C.2     1  UNL1        0.2310
      9  N         20.4960  -23.2700   -7.7640 N.am    1  UNL1       -0.3270
     10  H         21.0250  -22.4260   -7.5350 H       1  UNL1        0.1690
     11  O         20.7200  -25.3260   -8.8470 O.2     1  UNL1       -0.2720
     12  C         19.1890  -23.3340   -7.2380 C.2     1  UNL1        0.0340
     13  C         18.7170  -22.2070   -6.5630 C.2     1  UNL1        0.0300
     14  C         17.4110  -22.1690   -6.0570 C.2     1  UNL1        0.0090
     15  C         16.5530  -23.2640   -6.2160 C.2     1  UNL1       -0.0580
     16  C         17.0340  -24.3970   -6.8770 C.2     1  UNL1        0.0090
     17  C         18.3400  -24.4290   -7.3840 C.2     1  UNL1        0.0300
     18  C         15.1320  -23.2190   -5.7080 C.3     1  UNL1        0.0340
     19  C         14.9540  -22.1870   -4.6000 C.3     1  UNL1        0.0100
     20  C         22.0310  -22.3060  -12.1310 C.3     1  UNL1        0.1380
     21  C         21.0760  -21.1330  -12.3520 C.3     1  UNL1        0.0590
     22  C         19.7240  -21.4200  -11.7470 C.2     1  UNL1       -0.0570
     23  C         19.4710  -22.6440  -11.1160 C.2     1  UNL1        0.0070
     24  C         18.2280  -22.8920  -10.5370 C.2     1  UNL1        0.0010
     25  C         17.2310  -21.9220  -10.5850 C.2     1  UNL1        0.0000
     26  C         17.4750  -20.6980  -11.2030 C.2     1  UNL1        0.0010
     27  C         18.7180  -20.4460  -11.7780 C.2     1  UNL1        0.0070
     28  C         24.6230  -21.9120  -13.7600 C.2     1  UNL1        0.0520
     29  C         24.2890  -21.0790  -14.8090 C.2     1  UNL1        0.0230
     30  C         24.5830  -21.6610  -16.0770 C.2     1  UNL1        0.0090
     31  C         25.1290  -22.9170  -15.9490 C.2     1  UNL1        0.0500
     32  S         25.2750  -23.3920  -14.3090 S.3     1  UNL1       -0.0980
@<TRIPOS>BOND
     1    30    31    2
     2    30    29    1
     3    31    32    1
     4    29    28    2
     5    32    28    1
     6    28     4    1
     7     4     5   ar
     8     4     3   ar
     9    21    20    1
    10    21    22    1
    11    20     5    1
    12    27    22    2
    13    27    26    1
    14    22    23    1
    15     5     1   ar
    16     3     2   ar
    17    26    25    2
    18    23    24    2
    19    25    24    1
    20     1     2   ar
    21     1     6    1
    22     7     6    1
    23     7     8    1
    24    11     8    2
    25     8     9   am
    26     9    10    1
    27     9    12    1
    28    17    12    2
    29    17    16    1
    30    12    13    1
    31    16    15    2
    32    13    14    2
    33    15    14    1
    34    15    18    1
    35    18    19    1
