@<TRIPOS>MOLECULE
31548_out_ligand_01.pdbqt
 36 39 0 0 0
SMALL
GASTEIGER

@<TRIPOS>ATOM
      1  C         20.5090  -22.5100  -10.5130 C.2     1  UNL1        0.0330
      2  C         19.9120  -21.5750  -11.3970 C.2     1  UNL1        0.0180
      3  C         20.6320  -21.0390  -12.4730 C.2     1  UNL1        0.0190
      4  C         21.9400  -21.4560  -12.6270 C.2     1  UNL1        0.0480
      5  C         22.5310  -22.3560  -11.7590 C.2     1  UNL1        0.0490
      6  C         21.8470  -22.9000  -10.6890 C.2     1  UNL1        0.0350
      7  C         23.9050  -22.5660  -12.2110 C.2     1  UNL1        0.2620
      8  O         24.7010  -23.3120  -11.6740 O.2     1  UNL1       -0.2670
      9  N         24.0720  -21.7840  -13.3200 N.am    1  UNL1       -0.2760
     10  C         22.9370  -21.0900  -13.6320 C.2     1  UNL1        0.2620
     11  O         22.7320  -20.3190  -14.5500 O.2     1  UNL1       -0.2670
     12  C         19.7600  -23.0840   -9.3570 C.2     1  UNL1        0.2560
     13  N         18.8430  -22.2350   -8.7720 N.am    1  UNL1       -0.3220
     14  H         18.6840  -21.3380   -9.2300 H       1  UNL1        0.1690
     15  O         19.9890  -24.2460   -9.0460 O.2     1  UNL1       -0.2670
     16  C         18.0090  -22.4730   -7.6450 C.2     1  UNL1        0.0540
     17  C         18.4910  -22.3870   -6.3310 C.2     1  UNL1        0.0700
     18  C         17.6560  -22.6240   -5.2320 C.2     1  UNL1        0.1030
     19  C         16.3030  -22.9530   -5.4380 C.2     1  UNL1        0.1020
     20  C         15.8080  -23.0350   -6.7410 C.2     1  UNL1        0.0600
     21  C         16.6480  -22.7960   -7.8430 C.2     1  UNL1        0.0670
     22  O         18.0620  -22.5570   -3.9210 O.2     1  UNL1       -0.3530
     23  C         18.4860  -21.2940   -3.4240 C.3     1  UNL1        0.2100
     24  O         15.5540  -23.1680   -4.3080 O.2     1  UNL1       -0.3530
     25  C         14.7220  -24.3180   -4.2690 C.3     1  UNL1        0.2100
     26  C         16.0890  -22.8800   -9.2220 C.2     1  UNL1        0.1780
     27  O         15.4670  -23.8280   -9.6740 O.2     1  UNL1       -0.6460
     28  O         16.3250  -21.7870   -9.9670 O.3     1  UNL1       -0.7730
     29  H         17.0180  -22.0600  -10.6050 H       1  UNL1        0.1670
     30  C         25.3120  -21.6850  -14.0560 C.3     1  UNL1        0.1750
     31  C         25.1420  -22.0990  -15.4910 C.2     1  UNL1       -0.0220
     32  C         25.3020  -21.1870  -16.5380 C.2     1  UNL1        0.0120
     33  C         25.1520  -21.6120  -17.8540 C.2     1  UNL1        0.0200
     34  C         24.8510  -22.9440  -18.0820 C.2     1  UNL1        0.1160
     35  N         24.7030  -23.8590  -17.0990 N.2     1  UNL1       -0.2730
     36  C         24.8580  -23.4200  -15.8290 C.2     1  UNL1        0.1240
@<TRIPOS>BOND
     1    34    33    2
     2    34    35    1
     3    33    32    1
     4    35    36    2
     5    32    31    2
     6    36    31    1
     7    31    30    1
     8    11    10    2
     9    30     9    1
    10    10     9   am
    11    10     4    1
    12     9     7   am
    13     4     3    2
    14     4     5    1
    15     3     2    1
    16     7     5    1
    17     7     8    2
    18     5     6    2
    19     2     1    2
    20     6     1    1
    21    29    28    1
    22     1    12    1
    23    28    26    1
    24    27    26    2
    25    12    15    2
    26    12    13   am
    27    14    13    1
    28    26    21    1
    29    13    16    1
    30    21    16    2
    31    21    20    1
    32    16    17    1
    33    20    19    2
    34    17    18    2
    35    19    18    1
    36    19    24    1
    37    18    22    1
    38    24    25    1
    39    22    23    1
