@<TRIPOS>MOLECULE
31542_out_ligand_01.pdbqt
 28 31 0 0 0
SMALL
GASTEIGER

@<TRIPOS>ATOM
      1  C         20.1670  -22.0100  -11.1300 C.2     1  UNL1        0.0330
      2  C         19.0300  -21.3630  -11.6790 C.2     1  UNL1        0.0180
      3  C         17.7440  -21.6000  -11.1780 C.2     1  UNL1        0.0190
      4  C         17.6360  -22.4820  -10.1230 C.2     1  UNL1        0.0480
      5  C         18.7440  -23.1060   -9.5770 C.2     1  UNL1        0.0490
      6  C         20.0260  -22.8910  -10.0480 C.2     1  UNL1        0.0350
      7  C         18.2760  -23.9550   -8.4830 C.2     1  UNL1        0.2620
      8  O         19.0050  -24.6530   -7.8050 O.2     1  UNL1       -0.2670
      9  N         16.9200  -23.8000   -8.4240 N.am    1  UNL1       -0.2760
     10  C         16.4620  -22.9330   -9.3760 C.2     1  UNL1        0.2620
     11  O         15.3240  -22.5740   -9.6060 O.2     1  UNL1       -0.2670
     12  C         21.5040  -21.6900  -11.7120 C.2     1  UNL1        0.2560
     13  O         21.5410  -20.9450  -12.6840 O.2     1  UNL1       -0.2670
     14  N         22.5800  -22.3080  -11.1010 N.am    1  UNL1       -0.3220
     15  H         22.3850  -22.9940  -10.3840 H       1  UNL1        0.1690
     16  C         23.9460  -22.1500  -11.4320 C.2     1  UNL1        0.0520
     17  C         24.8430  -21.3510  -10.7290 C.2     1  UNL1        0.0320
     18  C         26.1740  -21.2730  -11.1420 C.2     1  UNL1        0.0210
     19  C         26.5700  -22.0020  -12.2500 C.2     1  UNL1        0.1160
     20  N         25.7360  -22.7900  -12.9590 N.2     1  UNL1       -0.2710
     21  C         24.4520  -22.8450  -12.5320 C.2     1  UNL1        0.1450
     22  C         16.0780  -24.4450   -7.4420 C.3     1  UNL1        0.1750
     23  C         16.0310  -23.6640   -6.1570 C.2     1  UNL1       -0.0220
     24  C         14.9430  -22.8460   -5.8390 C.2     1  UNL1        0.0120
     25  C         14.9470  -22.1220   -4.6520 C.2     1  UNL1        0.0200
     26  C         16.0480  -22.2360   -3.8190 C.2     1  UNL1        0.1160
     27  N         17.1220  -23.0060   -4.0970 N.2     1  UNL1       -0.2730
     28  C         17.0920  -23.6980   -5.2580 C.2     1  UNL1        0.1240
@<TRIPOS>BOND
     1    20    21    1
     2    20    19    2
     3    13    12    2
     4    21    16    2
     5    19    18    1
     6    12     1    1
     7    12    14   am
     8     2     3    1
     9     2     1    2
    10    16    14    1
    11    16    17    1
    12     3     4    2
    13    18    17    2
    14     1     6    1
    15    14    15    1
    16     4     5    1
    17     4    10    1
    18     6     5    2
    19    11    10    2
    20     5     7    1
    21    10     9   am
    22     7     9   am
    23     7     8    2
    24     9    22    1
    25    22    23    1
    26    23    24    2
    27    23    28    1
    28    24    25    1
    29    28    27    2
    30    25    26    2
    31    27    26    1
