@<TRIPOS>MOLECULE
31553_out_ligand_01.pdbqt
 32 35 0 0 0
SMALL
GASTEIGER

@<TRIPOS>ATOM
      1  C         20.1390  -22.0040  -11.1320 C.2     1  UNL1        0.0330
      2  C         19.0170  -21.3880  -11.7450 C.2     1  UNL1        0.0180
      3  C         17.7200  -21.5910  -11.2600 C.2     1  UNL1        0.0190
      4  C         17.5830  -22.4230  -10.1670 C.2     1  UNL1        0.0480
      5  C         18.6730  -23.0370   -9.5750 C.2     1  UNL1        0.0490
      6  C         19.9650  -22.8570  -10.0320 C.2     1  UNL1        0.0350
      7  C         18.1720  -23.8460   -8.4660 C.2     1  UNL1        0.2620
      8  O         18.8820  -24.5060   -7.7320 O.2     1  UNL1       -0.2670
      9  N         16.8160  -23.6840   -8.4470 N.am    1  UNL1       -0.2760
     10  C         16.3870  -22.8440   -9.4370 C.2     1  UNL1        0.2620
     11  O         15.2580  -22.4800   -9.7020 O.2     1  UNL1       -0.2670
     12  C         21.4860  -21.7490  -11.7210 C.2     1  UNL1        0.2560
     13  N         22.5470  -22.3150  -11.0360 N.am    1  UNL1       -0.3230
     14  H         22.3470  -22.7630  -10.1510 H       1  UNL1        0.1690
     15  O         21.5470  -21.0480  -12.7230 O.2     1  UNL1       -0.2670
     16  C         23.9140  -22.2670  -11.3910 C.2     1  UNL1        0.0360
     17  C         24.8480  -21.4210  -10.7910 C.2     1  UNL1        0.0290
     18  C         26.1840  -21.4300  -11.2020 C.2     1  UNL1        0.0030
     19  C         26.6010  -22.2850  -12.2210 C.2     1  UNL1        0.0180
     20  C         25.6760  -23.1340  -12.8330 C.2     1  UNL1        0.0390
     21  C         24.3360  -23.1210  -12.4170 C.2     1  UNL1        0.0480
     22  C         26.0600  -24.0640  -13.9210 C.2     1  UNL1        0.1760
     23  O         26.9780  -23.8970  -14.7040 O.2     1  UNL1       -0.6460
     24  O         25.2770  -25.1550  -13.9790 O.3     1  UNL1       -0.7730
     25  H         25.3230  -25.5290  -13.0740 H       1  UNL1        0.1670
     26  C         15.9380  -24.3560   -7.5170 C.3     1  UNL1        0.1750
     27  C         15.8450  -23.6180   -6.2100 C.2     1  UNL1       -0.0220
     28  C         14.8080  -22.7170   -5.9520 C.2     1  UNL1        0.0120
     29  C         14.7450  -22.0710   -4.7210 C.2     1  UNL1        0.0200
     30  C         15.7220  -22.3540   -3.7820 C.2     1  UNL1        0.1160
     31  N         16.7310  -23.2270   -3.9900 N.2     1  UNL1       -0.2730
     32  C         16.7680  -23.8420   -5.1930 C.2     1  UNL1        0.1240
@<TRIPOS>BOND
     1    23    22    2
     2    24    22    1
     3    24    25    1
     4    22    20    1
     5    20    21    1
     6    20    19    2
     7    15    12    2
     8    21    16    2
     9    19    18    1
    10     2     3    1
    11     2     1    2
    12    12     1    1
    13    12    13   am
    14    16    13    1
    15    16    17    1
    16     3     4    2
    17    18    17    2
    18     1     6    1
    19    13    14    1
    20     4     5    1
    21     4    10    1
    22     6     5    2
    23    11    10    2
    24     5     7    1
    25    10     9   am
    26     7     9   am
    27     7     8    2
    28     9    26    1
    29    26    27    1
    30    27    28    2
    31    27    32    1
    32    28    29    1
    33    32    31    2
    34    29    30    2
    35    31    30    1
