@<TRIPOS>MOLECULE
31556_out_ligand_01.pdbqt
 31 34 0 0 0
SMALL
GASTEIGER

@<TRIPOS>ATOM
      1  C         20.6330  -22.6950  -10.2690 C.2     1  UNL1        0.0330
      2  C         19.9760  -21.9110  -11.2510 C.2     1  UNL1        0.0180
      3  C         20.6770  -21.4160  -12.3580 C.2     1  UNL1        0.0190
      4  C         22.0200  -21.7300  -12.4480 C.2     1  UNL1        0.0480
      5  C         22.6590  -22.5050  -11.4970 C.2     1  UNL1        0.0490
      6  C         21.9950  -23.0100  -10.3970 C.2     1  UNL1        0.0350
      7  C         24.0560  -22.6450  -11.9070 C.2     1  UNL1        0.2620
      8  O         24.8810  -23.2910  -11.2930 O.2     1  UNL1       -0.2670
      9  N         24.1870  -21.9420  -13.0730 N.am    1  UNL1       -0.2740
     10  C         23.0080  -21.3760  -13.4660 C.2     1  UNL1        0.2620
     11  O         22.7610  -20.7050  -14.4490 O.2     1  UNL1       -0.2670
     12  C         19.8920  -23.2400   -9.0970 C.2     1  UNL1        0.2560
     13  N         18.9320  -22.3960   -8.5730 N.am    1  UNL1       -0.3230
     14  H         18.8850  -21.4570   -8.9480 H       1  UNL1        0.1690
     15  O         20.2080  -24.3500   -8.6890 O.2     1  UNL1       -0.2670
     16  C         18.0590  -22.6630   -7.4960 C.2     1  UNL1        0.0350
     17  C         16.8030  -23.2550   -7.6380 C.2     1  UNL1        0.0300
     18  C         15.9920  -23.4820   -6.5180 C.2     1  UNL1        0.0200
     19  C         16.4290  -23.1150   -5.2420 C.2     1  UNL1        0.0370
     20  C         17.6850  -22.5180   -5.0940 C.2     1  UNL1        0.0200
     21  C         18.4910  -22.2930   -6.2150 C.2     1  UNL1        0.0300
     22  C         15.5360  -23.3730   -4.0880 C.2     1  UNL1        0.1760
     23  O         15.2310  -24.4660   -3.6490 O.2     1  UNL1       -0.6460
     24  O         15.0630  -22.2420   -3.5320 O.3     1  UNL1       -0.7730
     25  H         14.2100  -22.0980   -3.9940 H       1  UNL1        0.1670
     26  C         25.4310  -21.7980  -13.7950 C.3     1  UNL1        0.2000
     27  C         26.1180  -20.5590  -13.3440 C.2     1  UNL1        0.0700
     28  C         26.4990  -20.0850  -12.1040 C.2     1  UNL1        0.0360
     29  C         27.1210  -18.8340  -12.3290 C.2     1  UNL1        0.0270
     30  C         27.0810  -18.6250  -13.6870 C.2     1  UNL1        0.1420
     31  O         26.4740  -19.6660  -14.3110 O.2     1  UNL1       -0.3250
@<TRIPOS>BOND
     1    11    10    2
     2    31    30    1
     3    31    27    1
     4    26    27    1
     5    26     9    1
     6    30    29    2
     7    10     9   am
     8    10     4    1
     9    27    28    2
    10     9     7   am
    11     4     3    2
    12     4     5    1
    13     3     2    1
    14    29    28    1
    15     7     5    1
    16     7     8    2
    17     5     6    2
    18     2     1    2
    19     6     1    1
    20     1    12    1
    21    12    15    2
    22    12    13   am
    23    14    13    1
    24    13    16    1
    25    17    16    2
    26    17    18    1
    27    16    21    1
    28    18    19    2
    29    21    20    2
    30    19    20    1
    31    19    22    1
    32    22    23    2
    33    22    24    1
    34    25    24    1
