@<TRIPOS>MOLECULE
31559_out_ligand_01.pdbqt
 34 38 0 0 0
SMALL
GASTEIGER

@<TRIPOS>ATOM
      1  C         17.2330  -21.5600  -10.3110 C.3     1  UNL1        0.0500
      2  C         18.6820  -21.7580  -10.6600 C.2     1  UNL1       -0.0390
      3  C         19.1450  -21.2550  -11.8890 C.2     1  UNL1        0.0090
      4  C         20.4820  -21.3890  -12.2660 C.2     1  UNL1        0.0140
      5  C         21.3770  -22.0320  -11.4130 C.2     1  UNL1       -0.0030
      6  C         20.9580  -22.5090  -10.1720 C.2     1  UNL1        0.0390
      7  C         19.6100  -22.3820   -9.8000 C.2     1  UNL1        0.0860
      8  C         22.7980  -22.1550  -11.8180 C.ar    1  UNL1        0.0990
      9  N         23.1110  -21.6520  -12.9830 N.ar    1  UNL1       -0.1630
     10  N         24.4330  -21.7300  -13.3170 N.ar    1  UNL1       -0.1970
     11  C         25.0420  -21.2750  -14.4610 C.ar    1  UNL1        0.1480
     12  C         25.4410  -22.2760  -12.5640 C.ar    1  UNL1        0.1850
     13  C         24.3100  -20.6040  -15.5540 C.3     1  UNL1        0.0950
     14  N         26.3350  -21.5350  -14.4000 N.ar    1  UNL1       -0.1330
     15  N         26.5870  -22.1680  -13.2010 N.ar    1  UNL1       -0.1270
     16  C         25.1190  -22.8640  -11.2860 C.ar    1  UNL1        0.0260
     17  C         26.0840  -23.4670  -10.4770 C.2     1  UNL1        0.0160
     18  C         23.7730  -22.8320  -10.8870 C.ar    1  UNL1        0.0090
     19  C         25.7060  -24.0530   -9.2690 C.2     1  UNL1        0.0010
     20  C         24.3660  -24.0480   -8.8780 C.2     1  UNL1        0.0010
     21  C         23.3980  -23.4450   -9.6840 C.2     1  UNL1        0.0150
     22  S         19.1390  -23.0320   -8.2040 S.O2    1  UNL1        0.2600
     23  O         19.3290  -21.9940   -7.2190 O.2     1  UNL1       -0.2000
     24  O         19.7380  -24.3400   -8.0470 O.2     1  UNL1       -0.2000
     25  N         17.4920  -23.2370   -8.3880 N.3     1  UNL1       -0.3070
     26  H         16.9960  -22.4090   -8.7100 H       1  UNL1        0.1730
     27  C         16.7710  -24.2050   -7.5620 C.3     1  UNL1        0.1220
     28  C         15.5560  -24.6920   -8.3570 C.3     1  UNL1        0.0380
     29  C         16.4300  -23.5940   -6.2150 C.2     1  UNL1       -0.0350
     30  C         17.1970  -23.8170   -5.0610 C.2     1  UNL1        0.0090
     31  C         16.8260  -23.2550   -3.8370 C.2     1  UNL1        0.0010
     32  C         15.6760  -22.4760   -3.7440 C.2     1  UNL1        0.0000
     33  C         14.8910  -22.2600   -4.8730 C.2     1  UNL1        0.0010
     34  C         15.2630  -22.8200   -6.0980 C.2     1  UNL1        0.0090
@<TRIPOS>BOND
     1    13    11    1
     2    11    14   ar
     3    11    10   ar
     4    14    15   ar
     5    10     9   ar
     6    10    12   ar
     7    15    12   ar
     8     9     8   ar
     9    12    16   ar
    10     4     3    1
    11     4     5    2
    12     3     2    2
    13     8     5    1
    14     8    18   ar
    15     5     6    1
    16    16    18   ar
    17    16    17    1
    18    18    21    1
    19     2     1    1
    20     2     7    1
    21    17    19    2
    22     6     7    2
    23     7    22    1
    24    21    20    2
    25    19    20    1
    26    26    25    1
    27    25    22    1
    28    25    27    1
    29    28    27    1
    30    22    24    2
    31    22    23    2
    32    27    29    1
    33    29    34    2
    34    29    30    1
    35    34    33    1
    36    30    31    2
    37    33    32    2
    38    31    32    1
