@<TRIPOS>MOLECULE
31563_out_ligand_01.pdbqt
 31 34 0 0 0
SMALL
GASTEIGER

@<TRIPOS>ATOM
      1  C         21.5330  -22.0640  -11.7120 C.2     1  UNL1        0.0330
      2  C         20.5020  -21.3380  -12.3610 C.2     1  UNL1        0.0180
      3  C         19.2240  -21.2390  -11.7980 C.2     1  UNL1        0.0190
      4  C         19.0120  -21.8770  -10.5920 C.2     1  UNL1        0.0480
      5  C         20.0070  -22.6000   -9.9690 C.2     1  UNL1        0.0490
      6  C         21.2790  -22.7220  -10.5000 C.2     1  UNL1        0.0350
      7  C         19.4480  -23.1560   -8.7430 C.2     1  UNL1        0.2660
      8  O         20.1200  -23.8540   -8.0040 O.2     1  UNL1       -0.2670
      9  N         18.1510  -22.7040   -8.6500 N.am    1  UNL1       -0.2410
     10  C         17.8030  -21.9880   -9.7780 C.2     1  UNL1        0.2660
     11  O         16.7320  -21.5820  -10.1940 O.2     1  UNL1       -0.2670
     12  C         22.8660  -22.1390  -12.3780 C.2     1  UNL1        0.2560
     13  N         22.9870  -21.3930  -13.5360 N.am    1  UNL1       -0.3230
     14  H         22.1520  -20.9450  -13.8910 H       1  UNL1        0.1690
     15  O         23.7150  -22.8620  -11.8740 O.2     1  UNL1       -0.2670
     16  C         24.1380  -21.2460  -14.3430 C.2     1  UNL1        0.0370
     17  C         25.1100  -20.2650  -14.1380 C.2     1  UNL1        0.0290
     18  C         26.2180  -20.1830  -14.9850 C.2     1  UNL1        0.0050
     19  C         26.3580  -21.0790  -16.0420 C.2     1  UNL1        0.0370
     20  C         25.3950  -22.0620  -16.2660 C.2     1  UNL1        0.0700
     21  C         24.2880  -22.1420  -15.4150 C.2     1  UNL1        0.0660
     22  O         25.6490  -22.8750  -17.3370 O.2     1  UNL1       -0.3560
     23  C         24.5450  -23.2400  -18.1530 C.3     1  UNL1        0.2100
     24  C         17.2620  -23.0260   -7.5870 C.2     1  UNL1        0.0790
     25  C         16.3530  -24.0890   -7.7350 C.2     1  UNL1        0.0330
     26  C         15.4450  -24.4130   -6.7230 C.2     1  UNL1        0.0020
     27  C         15.4430  -23.6940   -5.5330 C.2     1  UNL1        0.0030
     28  C         16.3570  -22.6590   -5.3500 C.2     1  UNL1        0.0390
     29  C         17.2600  -22.3180   -6.3690 C.2     1  UNL1        0.0950
     30  O         18.2670  -21.4160   -6.1230 O.2     1  UNL1       -0.3540
     31  C         18.6240  -21.3270   -4.7440 C.3     1  UNL1        0.2100
@<TRIPOS>BOND
     1    23    22    1
     2    22    20    1
     3    20    19    2
     4    20    21    1
     5    19    18    1
     6    21    16    2
     7    18    17    2
     8    16    17    1
     9    16    13    1
    10    14    13    1
    11    13    12   am
    12    12    15    2
    13    12     1    1
    14     2     3    1
    15     2     1    2
    16     3     4    2
    17     1     6    1
    18     4     5    1
    19     4    10    1
    20     6     5    2
    21    11    10    2
    22     5     7    1
    23    10     9   am
    24     7     9   am
    25     7     8    2
    26     9    24    1
    27    25    24    2
    28    25    26    1
    29    24    29    1
    30    26    27    2
    31    29    30    1
    32    29    28    2
    33    30    31    1
    34    27    28    1
