@<TRIPOS>MOLECULE
31575_out_ligand_01.pdbqt
 27 30 0 0 0
SMALL
GASTEIGER

@<TRIPOS>ATOM
      1  C         20.1680  -21.8980  -11.1230 C.2     1  UNL1        0.0330
      2  C         19.0190  -21.2740  -11.6750 C.2     1  UNL1        0.0180
      3  C         17.7450  -21.5390  -11.1590 C.2     1  UNL1        0.0190
      4  C         17.6590  -22.4300  -10.1070 C.2     1  UNL1        0.0480
      5  C         18.7770  -23.0490   -9.5760 C.2     1  UNL1        0.0490
      6  C         20.0470  -22.8120  -10.0640 C.2     1  UNL1        0.0350
      7  C         18.3240  -23.9180   -8.4920 C.2     1  UNL1        0.2620
      8  O         19.0570  -24.6000   -7.8030 O.2     1  UNL1       -0.2670
      9  N         16.9640  -23.7870   -8.4320 N.am    1  UNL1       -0.2760
     10  C         16.4920  -22.9090   -9.3660 C.2     1  UNL1        0.2620
     11  O         15.3510  -22.5530   -9.5860 O.2     1  UNL1       -0.2670
     12  C         21.5260  -21.6390  -11.6730 C.2     1  UNL1        0.2570
     13  O         21.6160  -21.0530  -12.7440 O.2     1  UNL1       -0.2670
     14  N         22.5660  -22.1640  -10.9300 N.am    1  UNL1       -0.3020
     15  H         22.3600  -22.7760  -10.1560 H       1  UNL1        0.1710
     16  C         23.8950  -21.9470  -11.1260 C.3     1  UNL1        0.1640
     17  N         24.6560  -21.1070  -10.5220 N.3     1  UNL1       -0.2660
     18  C         26.0380  -21.2660  -11.0150 C.3     1  UNL1        0.1620
     19  C         26.0250  -21.8760  -12.4090 C.3     1  UNL1        0.1040
     20  S         24.5800  -22.9570  -12.3610 S.3     1  UNL1       -0.0910
     21  C         16.1340  -24.4550   -7.4540 C.3     1  UNL1        0.1750
     22  C         16.0750  -23.6890   -6.1620 C.2     1  UNL1       -0.0220
     23  C         14.9730  -22.8910   -5.8360 C.2     1  UNL1        0.0120
     24  C         14.9650  -22.1810   -4.6400 C.2     1  UNL1        0.0200
     25  C         16.0690  -22.2840   -3.8090 C.2     1  UNL1        0.1160
     26  N         17.1560  -23.0310   -4.0960 N.2     1  UNL1       -0.2730
     27  C         17.1370  -23.7110   -5.2640 C.2     1  UNL1        0.1240
@<TRIPOS>BOND
     1    13    12    2
     2    19    20    1
     3    19    18    1
     4    20    16    1
     5     2     3    1
     6     2     1    2
     7    12     1    1
     8    12    14   am
     9     3     4    2
    10    16    14    1
    11    16    17    1
    12     1     6    1
    13    18    17    1
    14    14    15    1
    15     4     5    1
    16     4    10    1
    17     6     5    2
    18    11    10    2
    19     5     7    1
    20    10     9   am
    21     7     9   am
    22     7     8    2
    23     9    21    1
    24    21    22    1
    25    22    23    2
    26    22    27    1
    27    23    24    1
    28    27    26    2
    29    24    25    2
    30    26    25    1
