@<TRIPOS>MOLECULE
31584_out_ligand_01.pdbqt
 34 37 0 0 0
SMALL
GASTEIGER

@<TRIPOS>ATOM
      1  C         23.2010  -22.7100   -9.1920 C.3     1  UNL1        0.1050
      2  C         22.5100  -21.7050   -8.2700 C.3     1  UNL1        0.1180
      3  C         21.2970  -22.4460   -7.7700 C.2     1  UNL1        0.2200
      4  O         20.5310  -22.0370   -6.9130 O.2     1  UNL1       -0.2730
      5  N         21.1860  -23.6310   -8.4720 N.am    1  UNL1       -0.3510
      6  C         22.1310  -23.7240   -9.5550 C.3     1  UNL1        0.1400
      7  C         23.8440  -22.1100  -10.4290 C.2     1  UNL1        0.2280
      8  N         23.5140  -22.7250  -11.6230 N.am    1  UNL1       -0.3270
      9  H         22.8490  -23.4880  -11.5930 H       1  UNL1        0.1690
     10  O         24.6090  -21.1570  -10.3010 O.2     1  UNL1       -0.2730
     11  C         23.9760  -22.3850  -12.9130 C.2     1  UNL1        0.0340
     12  C         25.0020  -23.0530  -13.5830 C.2     1  UNL1        0.0300
     13  C         25.3880  -22.6560  -14.8700 C.2     1  UNL1        0.0190
     14  C         24.7630  -21.5750  -15.4970 C.2     1  UNL1        0.0320
     15  C         23.7290  -20.9060  -14.8360 C.2     1  UNL1        0.0190
     16  C         23.3430  -21.3110  -13.5530 C.2     1  UNL1        0.0300
     17  C         25.2060  -21.1900  -16.8620 C.2     1  UNL1        0.2490
     18  N         24.4520  -20.2640  -17.5290 N.am    1  UNL1       -0.3660
     19  H         24.8560  -19.9180  -18.3910 H       1  UNL1        0.1590
     20  H         23.8190  -19.6480  -17.0420 H       1  UNL1        0.1590
     21  O         26.2230  -21.6530  -17.3640 O.2     1  UNL1       -0.2680
     22  C         20.0580  -24.5430   -8.3410 C.3     1  UNL1        0.1300
     23  C         18.8840  -23.9920   -7.5260 C.3     1  UNL1        0.0600
     24  C         17.7860  -23.4000   -8.3580 C.2     1  UNL1       -0.0290
     25  C         16.4290  -23.5660   -8.1650 C.2     1  UNL1        0.0960
     26  N         15.7640  -22.8520   -9.1230 N.pl3   1  UNL1       -0.3650
     27  C         16.6610  -22.2070   -9.9420 C.2     1  UNL1        0.0430
     28  H         14.7590  -22.7870   -9.2100 H       1  UNL1        0.1650
     29  C         16.4340  -21.3550  -11.0300 C.2     1  UNL1        0.0320
     30  C         17.9400  -22.5370   -9.4920 C.2     1  UNL1       -0.0000
     31  C         17.5520  -20.8190  -11.6740 C.2     1  UNL1        0.0260
     32  C         18.8390  -21.1410  -11.2510 C.2     1  UNL1        0.0350
     33 CL         20.1920  -20.4900  -12.0960 Cl      1  UNL1       -0.0840
     34  C         19.0530  -21.9980  -10.1690 C.2     1  UNL1        0.0380
@<TRIPOS>BOND
     1    19    18    1
     2    18    20    1
     3    18    17   am
     4    21    17    2
     5    17    14    1
     6    14    13    2
     7    14    15    1
     8    13    12    1
     9    15    16    2
    10    12    11    2
    11    16    11    1
    12    11     8    1
    13    33    32    1
    14    31    32    2
    15    31    29    1
    16     8     9    1
    17     8     7   am
    18    32    34    1
    19    29    27    2
    20     7    10    2
    21     7     1    1
    22    34    30    2
    23    27    30    1
    24    27    26    1
    25     6     1    1
    26     6     5    1
    27    30    24    1
    28    28    26    1
    29     1     2    1
    30    26    25    1
    31     5    22    1
    32     5     3   am
    33    24    25    2
    34    24    23    1
    35    22    23    1
    36     2     3    1
    37     3     4    2
