@<TRIPOS>MOLECULE
3159_out_ligand_01.pdbqt
 31 34 0 0 0
SMALL
GASTEIGER

@<TRIPOS>ATOM
      1  C         19.8750  -21.5020  -11.2650 C.2     1  UNL1        0.0950
      2  C         18.5820  -21.1500  -11.7610 C.1     1  UNL1        0.1030
      3  N         17.5400  -20.8600  -12.1830 N.1     1  UNL1       -0.1910
      4  C         20.9330  -21.3810  -12.0980 C.2     1  UNL1        0.1140
      5  C         20.0720  -21.9750   -9.9200 C.2     1  UNL1        0.1200
      6  S         21.6490  -22.4220   -9.3330 S.3     1  UNL1       -0.0780
      7  C         20.9900  -22.8150   -7.8060 C.2     1  UNL1        0.0840
      8  C         19.6270  -22.6150   -7.8200 C.2     1  UNL1        0.0750
      9  N         19.1210  -22.1180   -9.0060 N.2     1  UNL1       -0.2390
     10  C         18.7590  -22.8400   -6.6750 C.2     1  UNL1       -0.0010
     11  C         18.0140  -24.0290   -6.6480 C.2     1  UNL1        0.0150
     12  C         17.1530  -24.3100   -5.5870 C.2     1  UNL1        0.0070
     13  C         17.0140  -23.4040   -4.5340 C.2     1  UNL1       -0.0610
     14  C         16.1120  -23.7160   -3.3770 C.3     1  UNL1        0.0480
     15  C         17.7790  -22.2300   -4.5420 C.2     1  UNL1        0.0140
     16  C         18.6650  -21.9370   -5.5970 C.2     1  UNL1       -0.0490
     17  C         19.4680  -20.6680   -5.5260 C.3     1  UNL1        0.0490
     18  N         22.2560  -21.6640  -11.8410 N.pl3   1  UNL1       -0.3640
     19  H         22.5600  -21.4000  -10.8960 H       1  UNL1        0.1650
     20  C         23.2540  -22.1900  -12.6770 C.2     1  UNL1        0.0330
     21  C         24.1100  -23.2540  -12.2950 C.2     1  UNL1        0.0300
     22  C         25.1100  -23.7450  -13.1460 C.2     1  UNL1        0.0200
     23  C         25.2380  -23.1440  -14.3790 C.2     1  UNL1        0.0480
     24  C         24.4190  -22.1010  -14.7660 C.2     1  UNL1        0.0500
     25  C         26.1660  -23.4080  -15.4790 C.2     1  UNL1        0.2590
     26  C         23.4270  -21.6040  -13.9450 C.2     1  UNL1        0.0470
     27  C         24.8280  -21.6980  -16.1110 C.2     1  UNL1        0.2590
     28  O         24.3290  -20.8040  -16.7630 O.2     1  UNL1       -0.2670
     29  N         25.8580  -22.5160  -16.4600 N.am    1  UNL1       -0.2890
     30  H         26.3410  -22.4650  -17.3430 H       1  UNL1        0.1720
     31  O         27.0300  -24.2610  -15.4830 O.2     1  UNL1       -0.2670
@<TRIPOS>BOND
     1    30    29    1
     2    28    27    2
     3    29    27   am
     4    29    25   am
     5    27    24    1
     6    31    25    2
     7    25    23    1
     8    24    23    2
     9    24    26    1
    10    23    22    1
    11    26    20    2
    12    22    21    2
    13    20    21    1
    14    20    18    1
    15     3     2    3
    16     4    18    1
    17     4     1    2
    18    18    19    1
    19     2     1    1
    20     1     5    1
    21     5     6    1
    22     5     9    2
    23     6     7    1
    24     9     8    1
    25     8     7    2
    26     8    10    1
    27    10    11    2
    28    10    16    1
    29    11    12    1
    30    16    17    1
    31    16    15    2
    32    12    13    2
    33    15    13    1
    34    13    14    1
