@<TRIPOS>MOLECULE
31593_out_ligand_01.pdbqt
 33 37 0 0 0
SMALL
GASTEIGER

@<TRIPOS>ATOM
      1  C         18.9610  -21.5820   -6.2900 C.3     1  UNL1        0.0500
      2  C         20.0060  -21.8930   -7.3260 C.2     1  UNL1       -0.0390
      3  C         21.3370  -21.5280   -7.0490 C.2     1  UNL1        0.0090
      4  C         22.3580  -21.7680   -7.9690 C.2     1  UNL1        0.0140
      5  C         22.0600  -22.3830   -9.1840 C.2     1  UNL1       -0.0030
      6  C         20.7460  -22.7260   -9.5020 C.2     1  UNL1        0.0390
      7  C         19.7200  -22.4890   -8.5730 C.2     1  UNL1        0.0810
      8  C         23.1500  -22.6110  -10.1620 C.ar    1  UNL1        0.0990
      9  N         24.1980  -23.2520   -9.7160 N.ar    1  UNL1       -0.1630
     10  N         25.2080  -23.4190  -10.6190 N.ar    1  UNL1       -0.1970
     11  C         26.4200  -24.0350  -10.4240 C.ar    1  UNL1        0.1480
     12  C         25.2270  -22.9910  -11.9220 C.ar    1  UNL1        0.1850
     13  C         26.8230  -24.6370   -9.1370 C.3     1  UNL1        0.0950
     14  N         27.1200  -23.9840  -11.5420 N.ar    1  UNL1       -0.1330
     15  N         26.3650  -23.3240  -12.4890 N.ar    1  UNL1       -0.1270
     16  C         24.0720  -22.3020  -12.4480 C.ar    1  UNL1        0.0260
     17  C         24.0050  -21.8620  -13.7720 C.2     1  UNL1        0.0160
     18  C         22.9900  -22.1050  -11.5750 C.ar    1  UNL1        0.0090
     19  C         22.8490  -21.2330  -14.2330 C.2     1  UNL1        0.0010
     20  C         21.7620  -21.0520  -13.3760 C.2     1  UNL1        0.0010
     21  C         21.8260  -21.4900  -12.0500 C.2     1  UNL1        0.0150
     22  S         18.0640  -22.9380   -9.0650 S.O2    1  UNL1        0.2420
     23  O         17.1440  -21.8880   -8.7010 O.2     1  UNL1       -0.2060
     24  O         18.1200  -23.4610  -10.4130 O.2     1  UNL1       -0.2060
     25  N         17.7560  -24.2320   -8.0170 N.3     1  UNL1       -0.2110
     26  H         18.3830  -24.1370   -7.2150 H       1  UNL1        0.1400
     27  C         16.3550  -24.2770   -7.5330 C.3     1  UNL1        0.1440
     28  C         16.2960  -24.1010   -6.0400 C.2     1  UNL1       -0.0270
     29  C         15.1120  -23.7210   -5.3960 C.2     1  UNL1        0.0110
     30  C         15.0960  -23.5630   -4.0140 C.2     1  UNL1        0.0200
     31  C         16.2720  -23.7870   -3.3160 C.2     1  UNL1        0.1160
     32  N         17.4340  -24.1510   -3.9010 N.2     1  UNL1       -0.2730
     33  C         17.4220  -24.2960   -5.2460 C.2     1  UNL1        0.1240
@<TRIPOS>BOND
     1    19    17    1
     2    19    20    2
     3    17    16    2
     4    20    21    1
     5    15    12   ar
     6    15    14   ar
     7    16    12   ar
     8    16    18   ar
     9    21    18    2
    10    12    10   ar
    11    18     8   ar
    12    14    11   ar
    13    10    11   ar
    14    10     9   ar
    15    11    13    1
    16    24    22    2
    17     8     9   ar
    18     8     5    1
    19     6     5    2
    20     6     7    1
    21     5     4    1
    22    22    23    2
    23    22     7    1
    24    22    25    1
    25     7     2    2
    26    25    27    1
    27    25    26    1
    28     4     3    2
    29    27    28    1
    30     2     3    1
    31     2     1    1
    32    28    29    2
    33    28    33    1
    34    29    30    1
    35    33    32    2
    36    30    31    2
    37    32    31    1
