@<TRIPOS>MOLECULE
31598_out_ligand_01.pdbqt
 29 31 0 0 0
SMALL
GASTEIGER

@<TRIPOS>ATOM
      1  N         20.8650  -22.9340   -9.3770 N.am    1  UNL1       -0.3270
      2  C         20.4840  -24.1950   -8.9430 C.2     1  UNL1        0.2230
      3  O         20.7230  -25.2560   -9.5080 O.2     1  UNL1       -0.2730
      4  H         20.5950  -22.1500   -8.7970 H       1  UNL1        0.1690
      5  C         19.6360  -24.1350   -7.6790 C.3     1  UNL1        0.1170
      6  C         18.8910  -22.7920   -7.5410 C.3     1  UNL1        0.0600
      7  C         18.5960  -22.3820   -6.0940 C.2     1  UNL1       -0.0490
      8  C         19.0700  -21.1380   -5.6380 C.2     1  UNL1        0.0080
      9  C         18.8230  -20.7090   -4.3340 C.2     1  UNL1        0.0010
     10  C         18.0940  -21.5130   -3.4630 C.2     1  UNL1        0.0000
     11  C         17.6100  -22.7430   -3.8980 C.2     1  UNL1        0.0010
     12  C         17.8550  -23.1750   -5.2040 C.2     1  UNL1        0.0080
     13  C         17.6300  -22.8020   -8.4060 C.2     1  UNL1       -0.0490
     14  C         17.4990  -21.8780   -9.4550 C.2     1  UNL1        0.0080
     15  C         16.3700  -21.8820  -10.2750 C.2     1  UNL1        0.0010
     16  C         15.3560  -22.8120  -10.0620 C.2     1  UNL1        0.0000
     17  C         15.4720  -23.7390   -9.0290 C.2     1  UNL1        0.0010
     18  C         16.6010  -23.7380   -8.2080 C.2     1  UNL1        0.0080
     19  C         21.6270  -22.6120  -10.5190 C.2     1  UNL1        0.0340
     20  C         22.9440  -23.0260  -10.7240 C.2     1  UNL1        0.0300
     21  C         23.6360  -22.6640  -11.8880 C.2     1  UNL1        0.0190
     22  C         23.0150  -21.8730  -12.8590 C.2     1  UNL1        0.0320
     23  C         21.6900  -21.4710  -12.6660 C.2     1  UNL1        0.0190
     24  C         21.0030  -21.8350  -11.5040 C.2     1  UNL1        0.0300
     25  C         23.7030  -21.4590  -14.1120 C.2     1  UNL1        0.2490
     26  N         23.2480  -20.3360  -14.7440 N.am    1  UNL1       -0.3660
     27  H         22.3450  -19.9320  -14.5470 H       1  UNL1        0.1590
     28  H         23.6500  -20.1500  -15.6540 H       1  UNL1        0.1590
     29  O         24.6210  -22.1160  -14.5860 O.2     1  UNL1       -0.2680
@<TRIPOS>BOND
     1    28    26    1
     2    26    27    1
     3    26    25   am
     4    29    25    2
     5    25    22    1
     6    22    23    2
     7    22    21    1
     8    23    24    1
     9    21    20    2
    10    24    19    2
    11    20    19    1
    12    19     1    1
    13    15    16    2
    14    15    14    1
    15    16    17    1
    16     3     2    2
    17    14    13    2
    18     1     2   am
    19     1     4    1
    20    17    18    2
    21     2     5    1
    22    13    18    1
    23    13     6    1
    24     5     6    1
    25     6     7    1
    26     7     8    2
    27     7    12    1
    28     8     9    1
    29    12    11    2
    30     9    10    2
    31    11    10    1
