@<TRIPOS>MOLECULE
315_out_ligand_01.pdbqt
 33 36 0 0 0
SMALL
GASTEIGER

@<TRIPOS>ATOM
      1  C         17.5600  -22.5140   -9.7950 C.2     1  UNL1        0.0800
      2  C         17.1520  -21.5680  -10.7390 C.2     1  UNL1        0.0250
      3  C         18.0900  -21.0320  -11.6220 C.2     1  UNL1        0.0030
      4  C         19.4230  -21.4490  -11.5670 C.2     1  UNL1        0.0170
      5  C         19.8240  -22.4170  -10.6320 C.2     1  UNL1        0.0330
      6  C         18.8880  -22.9470   -9.7380 C.2     1  UNL1        0.0420
      7  C         21.2350  -22.8790  -10.5310 C.2     1  UNL1        0.2510
      8  O         21.5700  -23.6150   -9.6090 O.2     1  UNL1       -0.2680
      9  N         22.0920  -22.4570  -11.5230 N.am    1  UNL1       -0.3530
     10  H         21.7060  -22.0550  -12.3650 H       1  UNL1        0.1630
     11  C         23.4470  -22.9530  -11.6090 C.3     1  UNL1        0.1610
     12  C         24.3710  -21.8840  -12.1320 C.2     1  UNL1       -0.0380
     13  C         25.3110  -21.2850  -11.2800 C.2     1  UNL1        0.0120
     14  C         26.1820  -20.3050  -11.7610 C.2     1  UNL1        0.0400
     15  C         26.1220  -19.9180  -13.0970 C.2     1  UNL1        0.1020
     16  C         25.2140  -20.5350  -13.9630 C.2     1  UNL1        0.1020
     17  O         26.9890  -18.9340  -13.4960 O.2     1  UNL1       -0.3460
     18  C         24.3330  -21.5030  -13.4810 C.2     1  UNL1        0.0480
     19  O         25.1260  -20.2360  -15.3000 O.2     1  UNL1       -0.3460
     20  C         26.2750  -19.5050  -15.7450 C.3     1  UNL1        0.2020
     21  C         26.6160  -18.3930  -14.7670 C.3     1  UNL1        0.2020
     22  S         16.3790  -23.1980   -8.6600 S.O2    1  UNL1        0.2630
     23  O         15.6870  -24.2630   -9.3550 O.2     1  UNL1       -0.2000
     24  O         15.6430  -22.1150   -8.0420 O.2     1  UNL1       -0.2000
     25  N         17.3650  -23.9450   -7.5080 N.pl3   1  UNL1       -0.2810
     26  H         17.1710  -24.9450   -7.4510 H       1  UNL1        0.1790
     27  C         17.6100  -23.2530   -6.2930 C.2     1  UNL1        0.0430
     28  C         17.1280  -23.7760   -5.0950 C.2     1  UNL1        0.0300
     29  C         17.3900  -23.1150   -3.8950 C.2     1  UNL1        0.0030
     30  C         18.1430  -21.9410   -3.8960 C.2     1  UNL1        0.0070
     31  C         18.6500  -21.4200   -5.0950 C.2     1  UNL1       -0.0600
     32  C         19.4380  -20.1440   -5.0950 C.3     1  UNL1        0.0480
     33  C         18.3670  -22.0810   -6.2980 C.2     1  UNL1        0.0370
@<TRIPOS>BOND
     1    20    19    1
     2    20    21    1
     3    19    16    1
     4    21    17    1
     5    16    18    1
     6    16    15    2
     7    17    15    1
     8    18    12    2
     9    15    14    1
    10    10     9    1
    11    12    11    1
    12    12    13    1
    13    14    13    2
    14     3     4    2
    15     3     2    1
    16    11     9    1
    17     4     5    1
    18     9     7   am
    19     2     1    2
    20     5     7    1
    21     5     6    2
    22     7     8    2
    23     1     6    1
    24     1    22    1
    25    23    22    2
    26    22    24    2
    27    22    25    1
    28    25    26    1
    29    25    27    1
    30    33    27    2
    31    33    31    1
    32    27    28    1
    33    28    29    2
    34    31    32    1
    35    31    30    2
    36    30    29    1
