@<TRIPOS>MOLECULE
31603_out_ligand_01.pdbqt
 28 31 0 0 0
SMALL
GASTEIGER

@<TRIPOS>ATOM
      1  C         21.0860  -22.2960  -10.5850 C.2     1  UNL1        0.0320
      2  C         21.5360  -22.7800   -9.3580 C.2     1  UNL1        0.0190
      3  C         20.6560  -22.9000   -8.2710 C.2     1  UNL1        0.0310
      4  C         19.2990  -22.5500   -8.3780 C.2     1  UNL1        0.0460
      5  C         18.8640  -22.0840   -9.6300 C.2     1  UNL1        0.0310
      6  C         19.7400  -21.9590  -10.7220 C.2     1  UNL1        0.0190
      7  C         22.0550  -22.1860  -11.7100 C.2     1  UNL1        0.2510
      8  O         21.7120  -21.6690  -12.7670 O.2     1  UNL1       -0.2680
      9  N         23.3060  -22.7250  -11.4940 N.am    1  UNL1       -0.3530
     10  H         23.4440  -23.3350  -10.7010 H       1  UNL1        0.1630
     11  C         24.2910  -22.7900  -12.5530 C.3     1  UNL1        0.1620
     12  C         25.1430  -21.5550  -12.5790 C.2     1  UNL1       -0.0230
     13  C         25.7720  -21.0800  -11.4240 C.2     1  UNL1        0.0120
     14  C         26.5420  -19.9230  -11.4820 C.2     1  UNL1        0.0200
     15  C         26.6570  -19.2730  -12.6990 C.2     1  UNL1        0.1160
     16  N         26.0630  -19.6960  -13.8360 N.2     1  UNL1       -0.2730
     17  C         25.3220  -20.8240  -13.7490 C.2     1  UNL1        0.1240
     18  N         18.4020  -22.6720   -7.2680 N.am    1  UNL1       -0.2440
     19  C         18.5240  -21.9940   -6.0690 C.2     1  UNL1        0.2660
     20  O         19.3460  -21.1920   -5.6630 O.2     1  UNL1       -0.2670
     21  C         17.4100  -22.4040   -5.2220 C.2     1  UNL1        0.0480
     22  C         17.0730  -22.0200   -3.9370 C.2     1  UNL1        0.0180
     23  C         16.6580  -23.3130   -5.9290 C.2     1  UNL1        0.0480
     24  C         15.9290  -22.5940   -3.3740 C.2     1  UNL1        0.0010
     25  C         15.1590  -23.5240   -4.0980 C.2     1  UNL1        0.0010
     26  C         15.5220  -23.8950   -5.3960 C.2     1  UNL1        0.0180
     27  C         17.2870  -23.4900   -7.2340 C.2     1  UNL1        0.2660
     28  O         16.8080  -24.2570   -8.0500 O.2     1  UNL1       -0.2670
@<TRIPOS>BOND
     1    16    17    1
     2    16    15    2
     3    17    12    2
     4     8     7    2
     5    15    14    1
     6    12    11    1
     7    12    13    1
     8    11     9    1
     9     7     9   am
    10     7     1    1
    11     9    10    1
    12    14    13    2
    13     6     1    2
    14     6     5    1
    15     1     2    1
    16     5     4    2
    17     2     3    2
    18     4     3    1
    19     4    18    1
    20    28    27    2
    21    18    27   am
    22    18    19   am
    23    27    23    1
    24    19    20    2
    25    19    21    1
    26    23    26    1
    27    23    21    2
    28    26    25    2
    29    21    22    1
    30    25    24    1
    31    22    24    2
