@<TRIPOS>MOLECULE
3160_out_ligand_01.pdbqt
 34 37 0 0 0
SMALL
GASTEIGER

@<TRIPOS>ATOM
      1  C         22.2800  -22.6810  -10.5320 C.ar    1  UNL1        0.1000
      2  N         22.5660  -23.6390   -9.6240 N.ar    1  UNL1       -0.1470
      3  N         21.5600  -24.2500   -8.9300 N.ar    1  UNL1       -0.1310
      4  C         20.2670  -23.9160   -9.1310 C.ar    1  UNL1        0.1610
      5  C         19.9190  -22.9240  -10.0790 C.ar    1  UNL1        0.0240
      6  C         18.5790  -22.5500  -10.3590 C.2     1  UNL1        0.0160
      7  C         18.2700  -21.5520  -11.2820 C.2     1  UNL1        0.0010
      8  C         19.2890  -20.8980  -11.9550 C.2     1  UNL1        0.0010
      9  C         20.6160  -21.2550  -11.7140 C.2     1  UNL1        0.0150
     10  C         20.9570  -22.2760  -10.7910 C.ar    1  UNL1        0.0090
     11  N         19.2400  -24.5490   -8.3780 N.pl3   1  UNL1       -0.3390
     12  H         18.6800  -25.1160   -9.0090 H       1  UNL1        0.1670
     13  C         18.4530  -24.0050   -7.3410 C.2     1  UNL1        0.0340
     14  C         17.1500  -24.4250   -7.0730 C.2     1  UNL1        0.0320
     15  C         16.3790  -23.8150   -6.0750 C.2     1  UNL1        0.0400
     16  C         16.8810  -22.7420   -5.3300 C.2     1  UNL1        0.0840
     17  C         18.1760  -22.2710   -5.6200 C.2     1  UNL1        0.0670
     18  C         18.9360  -22.9010   -6.6260 C.2     1  UNL1        0.0490
     19  O         16.1680  -22.1130   -4.3410 O.2     1  UNL1       -0.3550
     20  C         14.7470  -22.1750   -4.4050 C.3     1  UNL1        0.2100
     21  C         18.8420  -21.1180   -4.9330 C.2     1  UNL1        0.2520
     22  N         18.5780  -20.9030   -3.6140 N.am    1  UNL1       -0.3660
     23  H         19.0360  -20.1350   -3.1450 H       1  UNL1        0.1590
     24  H         17.9620  -21.5160   -3.0940 H       1  UNL1        0.1590
     25  O         19.6110  -20.3710   -5.5320 O.2     1  UNL1       -0.2680
     26  C         23.4630  -22.1310  -11.2080 C.2     1  UNL1       -0.0050
     27  C         23.6130  -22.2250  -12.6010 C.2     1  UNL1        0.0160
     28  C         24.7410  -21.6980  -13.2440 C.2     1  UNL1        0.0370
     29  C         25.7420  -21.0730  -12.5020 C.2     1  UNL1        0.0680
     30  C         25.6060  -20.9840  -11.1160 C.2     1  UNL1        0.0370
     31  C         24.4830  -21.5110  -10.4730 C.2     1  UNL1        0.0160
     32  O         26.8870  -20.5170  -13.0010 O.2     1  UNL1       -0.3520
     33  C         26.9160  -19.0980  -13.1370 C.3     1  UNL1        0.1710
     34  C         26.6110  -18.7600  -14.5860 C.3     1  UNL1        0.0340
@<TRIPOS>BOND
     1    34    33    1
     2    28    27    1
     3    28    29    2
     4    33    32    1
     5    32    29    1
     6    27    26    2
     7    29    30    1
     8     8     9    2
     9     8     7    1
    10     9    10    1
    11     7     6    2
    12    26     1    1
    13    26    31    1
    14    30    31    2
    15    10     1   ar
    16    10     5   ar
    17     1     2   ar
    18     6     5    1
    19     5     4   ar
    20     2     3   ar
    21     4     3   ar
    22     4    11    1
    23    12    11    1
    24    11    13    1
    25    13    14    2
    26    13    18    1
    27    14    15    1
    28    18    17    2
    29    15    16    2
    30    17    16    1
    31    17    21    1
    32    25    21    2
    33    16    19    1
    34    21    22   am
    35    20    19    1
    36    22    23    1
    37    22    24    1
