@<TRIPOS>MOLECULE
31650_out_ligand_01.pdbqt
 31 35 0 0 0
SMALL
GASTEIGER

@<TRIPOS>ATOM
      1  S         22.0170  -23.1220   -9.6460 S.3     1  UNL1       -0.0790
      2  C         23.1510  -21.7070   -9.5130 C.3     1  UNL1        0.1850
      3  C         24.1540  -21.7030  -10.6580 C.2     1  UNL1        0.2310
      4  O         25.1080  -20.9280  -10.6470 O.2     1  UNL1       -0.2720
      5  N         23.8510  -22.6140  -11.6540 N.am    1  UNL1       -0.3260
      6  H         23.0550  -23.2290  -11.4760 H       1  UNL1        0.1690
      7  C         24.5530  -22.8650  -12.8490 C.2     1  UNL1        0.0370
      8  C         25.5900  -23.7950  -12.9650 C.2     1  UNL1        0.0320
      9  C         26.2590  -23.9660  -14.1820 C.2     1  UNL1        0.0420
     10  C         25.8960  -23.2070  -15.2870 C.2     1  UNL1        0.1020
     11  C         24.8330  -22.3050  -15.1920 C.2     1  UNL1        0.1040
     12  O         26.6170  -23.3950  -16.4400 O.2     1  UNL1       -0.3460
     13  C         24.1770  -22.1230  -13.9750 C.2     1  UNL1        0.0690
     14  O         24.3800  -21.5590  -16.2520 O.2     1  UNL1       -0.3460
     15  C         24.9530  -21.9890  -17.4940 C.3     1  UNL1        0.2020
     16  C         26.4330  -22.2920  -17.3350 C.3     1  UNL1        0.2020
     17  C         20.7120  -22.4150  -10.5420 C.ar    1  UNL1        0.2130
     18  N         20.7970  -21.8580  -11.7330 N.ar    1  UNL1       -0.1200
     19  N         19.5440  -21.4100  -12.0790 N.ar    1  UNL1       -0.1280
     20  C         18.7290  -21.7030  -11.0840 C.ar    1  UNL1        0.1750
     21  C         17.3510  -21.4880  -10.8890 C.2     1  UNL1        0.0570
     22  N         19.4170  -22.3690  -10.0830 N.ar    1  UNL1       -0.1870
     23  C         16.7710  -21.9180   -9.7610 C.2     1  UNL1        0.0380
     24  C         17.6350  -22.6050   -8.7500 C.2     1  UNL1        0.0890
     25  N         18.9040  -22.8430   -8.9040 N.2     1  UNL1       -0.1630
     26  C         16.9690  -23.0570   -7.5020 C.2     1  UNL1        0.0120
     27  C         15.7580  -22.4770   -7.1130 C.2     1  UNL1        0.0170
     28  C         15.1440  -22.8980   -5.9320 C.2     1  UNL1        0.0200
     29  C         15.7540  -23.8990   -5.1930 C.2     1  UNL1        0.1160
     30  N         16.9110  -24.4990   -5.5540 N.2     1  UNL1       -0.2720
     31  C         17.4850  -24.0720   -6.7070 C.2     1  UNL1        0.1300
@<TRIPOS>BOND
     1    15    16    1
     2    15    14    1
     3    16    12    1
     4    12    10    1
     5    14    11    1
     6    10    11    2
     7    10     9    1
     8    11    13    1
     9     9     8    2
    10    13     7    2
    11     8     7    1
    12     7     5    1
    13    19    18   ar
    14    19    20   ar
    15    18    17   ar
    16     5     6    1
    17     5     3   am
    18    20    21    1
    19    20    22   ar
    20    21    23    2
    21     3     4    2
    22     3     2    1
    23    17    22   ar
    24    17     1    1
    25    22    25    1
    26    23    24    1
    27     1     2    1
    28    25    24    2
    29    24    26    1
    30    26    27    2
    31    26    31    1
    32    27    28    1
    33    31    30    2
    34    28    29    2
    35    30    29    1
