@<TRIPOS>MOLECULE
31687_out_ligand_01.pdbqt
 30 33 0 0 0
SMALL
GASTEIGER

@<TRIPOS>ATOM
      1  O         19.3790  -21.8040  -10.8420 O.2     1  UNL1       -0.2670
      2  C         20.4610  -22.2150  -10.4400 C.2     1  UNL1        0.2560
      3  N         20.7290  -22.7780   -9.2050 N.am    1  UNL1       -0.3230
      4  H         21.6420  -23.1970   -9.0840 H       1  UNL1        0.1690
      5  C         21.6230  -22.1510  -11.3660 C.2     1  UNL1        0.0320
      6  C         21.5670  -21.4290  -12.5660 C.2     1  UNL1        0.0180
      7  C         22.6770  -21.4010  -13.4150 C.2     1  UNL1        0.0260
      8  C         23.8310  -22.1150  -13.0740 C.2     1  UNL1        0.0790
      9  C         23.8990  -22.8240  -11.8710 C.2     1  UNL1        0.0260
     10  C         22.7870  -22.8560  -11.0260 C.2     1  UNL1        0.0180
     11  S         25.2620  -22.0410  -14.1400 S.O2    1  UNL1        0.2600
     12  O         26.0700  -23.2060  -13.8520 O.2     1  UNL1       -0.2000
     13  O         25.8030  -20.7030  -14.0260 O.2     1  UNL1       -0.2000
     14  N         24.6190  -22.2130  -15.6820 N.3     1  UNL1       -0.3070
     15  C         24.8540  -21.1740  -16.7050 C.3     1  UNL1        0.1350
     16  C         25.1260  -21.9510  -17.9870 C.3     1  UNL1        0.0220
     17  C         24.3360  -23.2310  -17.7880 C.3     1  UNL1        0.0220
     18  C         24.5820  -23.5430  -16.3170 C.3     1  UNL1        0.1350
     19  C         19.8320  -22.9290   -8.1260 C.2     1  UNL1        0.0360
     20  C         19.0580  -24.1170   -8.1050 C.2     1  UNL1        0.0300
     21  C         18.1400  -24.3760   -7.0790 C.2     1  UNL1        0.0200
     22  C         18.0250  -23.4270   -6.0880 C.2     1  UNL1        0.0480
     23  C         18.7790  -22.2660   -6.0960 C.2     1  UNL1        0.0500
     24  C         17.1780  -23.3960   -4.8960 C.2     1  UNL1        0.2590
     25  C         19.6910  -21.9880   -7.0980 C.2     1  UNL1        0.0470
     26  C         18.4120  -21.5000   -4.9050 C.2     1  UNL1        0.2590
     27  O         18.8790  -20.4300   -4.5760 O.2     1  UNL1       -0.2670
     28  N         17.4610  -22.2290   -4.2570 N.am    1  UNL1       -0.2890
     29  H         17.0270  -21.9400   -3.3950 H       1  UNL1        0.1720
     30  O         16.3910  -24.2610   -4.5710 O.2     1  UNL1       -0.2670
@<TRIPOS>BOND
     1    16    17    1
     2    16    15    1
     3    17    18    1
     4    15    14    1
     5    18    14    1
     6    14    11    1
     7    11    13    2
     8    11    12    2
     9    11     8    1
    10     7     8    2
    11     7     6    1
    12     8     9    1
    13     6     5    2
    14     9    10    2
    15     5    10    1
    16     5     2    1
    17     1     2    2
    18     2     3   am
    19     3     4    1
    20     3    19    1
    21    19    20    2
    22    19    25    1
    23    20    21    1
    24    25    23    2
    25    21    22    2
    26    23    22    1
    27    23    26    1
    28    22    24    1
    29    26    27    2
    30    26    28   am
    31    24    30    2
    32    24    28   am
    33    28    29    1
