@<TRIPOS>MOLECULE
31695_out_ligand_01.pdbqt
 28 31 0 0 0
SMALL
GASTEIGER

@<TRIPOS>ATOM
      1  C         21.8860  -23.4120   -8.7920 C.2     1  UNL1        0.0320
      2  C         21.4620  -22.3280   -8.0140 C.2     1  UNL1        0.0180
      3  C         20.2110  -22.3690   -7.3970 C.2     1  UNL1        0.0260
      4  C         19.3990  -23.4980   -7.5610 C.2     1  UNL1        0.0790
      5  C         19.8360  -24.5960   -8.3130 C.2     1  UNL1        0.0260
      6  C         21.0870  -24.5530   -8.9280 C.2     1  UNL1        0.0180
      7  C         23.2180  -23.3920   -9.4330 C.2     1  UNL1        0.2580
      8  O         24.1230  -23.9600   -8.8290 O.2     1  UNL1       -0.2670
      9  N         23.3120  -22.7620  -10.6620 N.am    1  UNL1       -0.3130
     10  C         22.1990  -22.1920  -11.4430 C.2     1  UNL1        0.1370
     11  C         24.4980  -22.5980  -11.4030 C.2     1  UNL1        0.0430
     12  C         22.7540  -21.7790  -12.8130 C.2     1  UNL1        0.0610
     13  C         24.2200  -22.0090  -12.6370 C.2     1  UNL1       -0.0300
     14  C         25.2280  -21.7370  -13.5500 C.2     1  UNL1        0.0090
     15  C         26.5400  -22.0630  -13.2050 C.2     1  UNL1        0.0010
     16  C         26.8230  -22.6560  -11.9660 C.2     1  UNL1        0.0020
     17  C         25.7970  -22.9300  -11.0550 C.2     1  UNL1        0.0300
     18  S         17.8100  -23.5720   -6.7670 S.O2    1  UNL1        0.2580
     19  O         17.6840  -24.8740   -6.1530 O.2     1  UNL1       -0.2010
     20  O         17.6240  -22.3480   -6.0180 O.2     1  UNL1       -0.2010
     21  N         16.7540  -23.5440   -8.0630 N.3     1  UNL1       -0.3130
     22  H         16.8600  -24.3210   -8.7180 H       1  UNL1        0.1720
     23  C         16.3410  -22.2600   -8.6440 C.3     1  UNL1        0.1640
     24  C         16.5420  -22.2750  -10.1660 C.3     1  UNL1        0.1400
     25  C         17.7710  -23.0460  -10.6350 C.3     1  UNL1        0.0350
     26  C         18.7510  -21.9640  -11.0150 C.3     1  UNL1        0.0290
     27  C         17.8370  -20.8580  -11.4870 C.3     1  UNL1        0.1680
     28  O         16.6800  -20.9170  -10.6420 O.3     1  UNL1       -0.3840
@<TRIPOS>BOND
     1    14    15    2
     2    14    13    1
     3    15    16    1
     4    12    13    1
     5    12    10    2
     6    13    11    2
     7    16    17    2
     8    27    26    1
     9    27    28    1
    10    10     9    1
    11    11    17    1
    12    11     9    1
    13    26    25    1
    14     9     7   am
    15    28    24    1
    16    25    24    1
    17    24    23    1
    18     7     8    2
    19     7     1    1
    20     6     1    2
    21     6     5    1
    22     1     2    1
    23    22    21    1
    24    23    21    1
    25     5     4    2
    26    21    18    1
    27     2     3    2
    28     4     3    1
    29     4    18    1
    30    18    19    2
    31    18    20    2
