@<TRIPOS>MOLECULE
31693_out_ligand_01.pdbqt
 34 37 0 0 0
SMALL
GASTEIGER

@<TRIPOS>ATOM
      1  C         23.3220  -22.6920  -11.2210 C.2     1  UNL1        0.0810
      2  C         22.7570  -23.4930  -10.3050 C.2     1  UNL1        0.1130
      3  N         21.4190  -23.4980   -9.9500 N.pl3   1  UNL1       -0.3310
      4  C         20.5100  -22.6560  -10.6210 C.2     1  UNL1        0.1440
      5  N         19.1860  -22.7100  -10.3110 N.2     1  UNL1       -0.2350
      6  C         18.3280  -21.8790  -10.9580 C.2     1  UNL1        0.0330
      7  C         16.8800  -21.9480  -10.5710 C.3     1  UNL1        0.0700
      8  C         18.7410  -20.9870  -11.9390 C.2     1  UNL1        0.0280
      9  C         20.0890  -20.9440  -12.2740 C.2     1  UNL1        0.0210
     10  C         20.9830  -21.7860  -11.6080 C.2     1  UNL1        0.0610
     11  C         22.4220  -21.7690  -11.9550 C.2     1  UNL1        0.2010
     12  O         22.8280  -21.0190  -12.8370 O.2     1  UNL1       -0.2860
     13  C         20.8700  -24.3830   -8.9060 C.3     1  UNL1        0.2330
     14  C         20.0550  -23.6040   -7.8680 C.2     1  UNL1        0.2400
     15  O         20.5230  -22.6070   -7.3240 O.2     1  UNL1       -0.2710
     16  N         18.7920  -24.1340   -7.6670 N.am    1  UNL1       -0.3260
     17  H         18.6060  -25.0050   -8.1650 H       1  UNL1        0.1690
     18  C         17.7780  -23.6720   -6.8060 C.2     1  UNL1        0.0350
     19  C         16.7530  -22.9160   -7.3810 C.2     1  UNL1        0.0300
     20  C         15.7070  -22.4230   -6.5970 C.2     1  UNL1        0.0090
     21  C         15.6620  -22.6770   -5.2200 C.2     1  UNL1       -0.0560
     22  C         14.5230  -22.1320   -4.4050 C.3     1  UNL1        0.0490
     23  C         16.7010  -23.4220   -4.6300 C.2     1  UNL1       -0.0540
     24  C         16.7080  -23.7300   -3.1550 C.3     1  UNL1        0.0490
     25  C         17.7440  -23.9200   -5.4340 C.2     1  UNL1        0.0370
     26  C         24.7810  -22.8310  -11.4590 C.2     1  UNL1        0.1970
     27  O         25.5710  -22.9160  -10.5200 O.2     1  UNL1       -0.2860
     28  C         25.3070  -22.8380  -12.8460 C.2     1  UNL1        0.0150
     29  C         24.9950  -23.8580  -13.7520 C.2     1  UNL1        0.0160
     30  C         25.4760  -23.8000  -15.0630 C.2     1  UNL1        0.0070
     31  C         26.2690  -22.7250  -15.4830 C.2     1  UNL1       -0.0620
     32  C         26.7660  -22.6470  -16.8960 C.3     1  UNL1        0.0480
     33  C         26.5510  -21.6910  -14.5820 C.2     1  UNL1        0.0070
     34  C         26.0690  -21.7450  -13.2720 C.2     1  UNL1        0.0160
@<TRIPOS>BOND
     1    32    31    1
     2    31    30    2
     3    31    33    1
     4    30    29    1
     5    33    34    2
     6    29    28    2
     7    34    28    1
     8    28    26    1
     9    12    11    2
    10     9     8    2
    11     9    10    1
    12    11    10    1
    13    11     1    1
    14     8     6    1
    15    10     4    2
    16    26     1    1
    17    26    27    2
    18     1     2    2
    19     6     7    1
    20     6     5    2
    21     4     5    1
    22     4     3    1
    23     2     3    1
    24     3    13    1
    25    13    14    1
    26    17    16    1
    27    14    16   am
    28    14    15    2
    29    16    18    1
    30    19    18    2
    31    19    20    1
    32    18    25    1
    33    20    21    2
    34    25    23    2
    35    21    23    1
    36    21    22    1
    37    23    24    1
