@<TRIPOS>MOLECULE
31710_out_ligand_01.pdbqt
 30 33 0 0 0
SMALL
GASTEIGER

@<TRIPOS>ATOM
      1  C         22.7770  -22.8760  -10.4160 C.2     1  UNL1        0.0340
      2  C         22.6710  -23.7570   -9.3300 C.2     1  UNL1        0.0180
      3  C         21.4190  -24.0220   -8.7670 C.2     1  UNL1        0.0200
      4  C         20.2780  -23.4000   -9.2860 C.ar    1  UNL1        0.0590
      5  C         18.9440  -23.6560   -8.7120 C.ar    1  UNL1        0.2640
      6  O         18.8370  -24.4490   -7.7790 O.2     1  UNL1       -0.2670
      7  N         17.8720  -22.9670   -9.2770 N.ar    1  UNL1       -0.2650
      8  C         17.9840  -22.1030  -10.3570 C.ar    1  UNL1        0.3290
      9  O         17.0370  -21.5310  -10.8950 O.2     1  UNL1       -0.2460
     10  N         19.2420  -21.9040  -10.8540 N.ar    1  UNL1       -0.3070
     11  C         20.3860  -22.5160  -10.3510 C.ar    1  UNL1        0.0530
     12  C         21.6300  -22.2460  -10.9190 C.2     1  UNL1        0.0470
     13  H         19.2990  -21.2550  -11.6300 H       1  UNL1        0.1700
     14  C         24.0870  -22.5570  -11.0480 C.2     1  UNL1        0.2520
     15  O         24.7180  -21.5750  -10.6770 O.2     1  UNL1       -0.2680
     16  N         24.4970  -23.3940  -12.0660 N.am    1  UNL1       -0.3520
     17  H         23.8170  -24.0130  -12.4830 H       1  UNL1        0.1630
     18  C         25.6980  -23.0980  -12.8340 C.3     1  UNL1        0.0840
     19  C         25.4030  -22.1800  -14.0180 C.3     1  UNL1        0.0250
     20  C         24.8470  -23.1110  -15.0920 C.3     1  UNL1        0.0020
     21  C         25.4290  -24.4920  -14.7980 C.3     1  UNL1        0.0020
     22  C         26.2460  -24.3490  -13.5150 C.3     1  UNL1        0.0250
     23  C         16.5530  -23.1550   -8.6780 C.3     1  UNL1        0.1420
     24  C         16.2210  -22.1180   -7.5920 C.3     1  UNL1        0.0590
     25  C         16.1800  -22.6810   -6.1910 C.2     1  UNL1       -0.0570
     26  C         17.2900  -22.5470   -5.3430 C.2     1  UNL1        0.0070
     27  C         17.2520  -23.0510   -4.0430 C.2     1  UNL1        0.0010
     28  C         16.1070  -23.6930   -3.5760 C.2     1  UNL1        0.0000
     29  C         15.0000  -23.8320   -4.4090 C.2     1  UNL1        0.0010
     30  C         15.0360  -23.3300   -5.7120 C.2     1  UNL1        0.0070
@<TRIPOS>BOND
     1    20    21    1
     2    20    19    1
     3    21    22    1
     4    19    18    1
     5    22    18    1
     6    18    16    1
     7    17    16    1
     8    16    14   am
     9    13    10    1
    10    14    15    2
    11    14     1    1
    12    12     1    2
    13    12    11    1
    14     9     8    2
    15    10     8   ar
    16    10    11   ar
    17     1     2    1
    18     8     7   ar
    19    11     4   ar
    20     2     3    2
    21     4     3    1
    22     4     5   ar
    23     7     5   ar
    24     7    23    1
    25     5     6    2
    26    23    24    1
    27    24    25    1
    28    25    30    2
    29    25    26    1
    30    30    29    1
    31    26    27    2
    32    29    28    2
    33    27    28    1
