@<TRIPOS>MOLECULE
31726_out_ligand_01.pdbqt
 31 34 0 0 0
SMALL
GASTEIGER

@<TRIPOS>ATOM
      1  O         19.2320  -21.7580  -10.6140 O.2     1  UNL1       -0.2670
      2  C         20.3010  -22.2140  -10.2310 C.2     1  UNL1        0.2560
      3  N         20.5580  -22.8150   -9.0110 N.am    1  UNL1       -0.3230
      4  H         21.4570  -23.2670   -8.9070 H       1  UNL1        0.1690
      5  C         21.4610  -22.1710  -11.1640 C.2     1  UNL1        0.0320
      6  C         21.3990  -21.4710  -12.3790 C.2     1  UNL1        0.0180
      7  C         22.5040  -21.4610  -13.2340 C.2     1  UNL1        0.0260
      8  C         23.6610  -22.1580  -12.8740 C.2     1  UNL1        0.0790
      9  C         23.7280  -22.8650  -11.6700 C.2     1  UNL1        0.0260
     10  C         22.6220  -22.8790  -10.8200 C.2     1  UNL1        0.0180
     11  S         25.0780  -22.1550  -13.9490 S.O2    1  UNL1        0.2600
     12  O         26.2630  -22.0320  -13.1290 O.2     1  UNL1       -0.2000
     13  O         24.9070  -23.2710  -14.8560 O.2     1  UNL1       -0.2000
     14  N         24.8810  -20.7080  -14.8220 N.3     1  UNL1       -0.3070
     15  C         25.5850  -19.4950  -14.3370 C.3     1  UNL1        0.1350
     16  C         27.0130  -19.4080  -14.8670 C.3     1  UNL1        0.0210
     17  C         27.0640  -19.5550  -16.3840 C.3     1  UNL1        0.0030
     18  C         26.3300  -20.8130  -16.8350 C.3     1  UNL1        0.0210
     19  C         24.9040  -20.8310  -16.3020 C.3     1  UNL1        0.1350
     20  C         19.6640  -22.9590   -7.9290 C.2     1  UNL1        0.0360
     21  C         18.8760  -24.1390   -7.9090 C.2     1  UNL1        0.0300
     22  C         17.9590  -24.3920   -6.8830 C.2     1  UNL1        0.0200
     23  C         17.8580  -23.4440   -5.8870 C.2     1  UNL1        0.0480
     24  C         18.6240  -22.2920   -5.8950 C.2     1  UNL1        0.0500
     25  C         17.0140  -23.4080   -4.6940 C.2     1  UNL1        0.2590
     26  C         19.5360  -22.0200   -6.8980 C.2     1  UNL1        0.0470
     27  C         18.2680  -21.5250   -4.7000 C.2     1  UNL1        0.2590
     28  O         18.7470  -20.4600   -4.3690 O.2     1  UNL1       -0.2670
     29  N         17.3120  -22.2460   -4.0510 N.am    1  UNL1       -0.2890
     30  H         16.8840  -21.9550   -3.1870 H       1  UNL1        0.1720
     31  O         16.2190  -24.2650   -4.3680 O.2     1  UNL1       -0.2670
@<TRIPOS>BOND
     1    18    17    1
     2    18    19    1
     3    17    16    1
     4    19    14    1
     5    16    15    1
     6    13    11    2
     7    14    15    1
     8    14    11    1
     9    11    12    2
    10    11     8    1
    11     7     8    2
    12     7     6    1
    13     8     9    1
    14     6     5    2
    15     9    10    2
    16     5    10    1
    17     5     2    1
    18     1     2    2
    19     2     3   am
    20     3     4    1
    21     3    20    1
    22    20    21    2
    23    20    26    1
    24    21    22    1
    25    26    24    2
    26    22    23    2
    27    24    23    1
    28    24    27    1
    29    23    25    1
    30    27    28    2
    31    27    29   am
    32    25    31    2
    33    25    29   am
    34    29    30    1
