@<TRIPOS>MOLECULE
31794_out_ligand_01.pdbqt
 32 35 0 0 0
SMALL
GASTEIGER

@<TRIPOS>ATOM
      1  C         22.7050  -21.9140  -12.6650 C.2     1  UNL1        0.0740
      2  C         23.3490  -22.8300  -11.8290 C.2     1  UNL1        0.0260
      3  C         22.7110  -23.2580  -10.6620 C.2     1  UNL1        0.0180
      4  C         21.4460  -22.7540  -10.3250 C.2     1  UNL1        0.0320
      5  C         20.8040  -21.8400  -11.1730 C.2     1  UNL1        0.0180
      6  C         21.4370  -21.4140  -12.3420 C.2     1  UNL1        0.0260
      7  C         20.8040  -23.2350   -9.0710 C.2     1  UNL1        0.2560
      8  O         21.3450  -24.1450   -8.4550 O.2     1  UNL1       -0.2670
      9  N         19.6550  -22.5540   -8.7080 N.am    1  UNL1       -0.3230
     10  H         19.4210  -21.7340   -9.2540 H       1  UNL1        0.1690
     11  C         18.8300  -22.8120   -7.5930 C.2     1  UNL1        0.0360
     12  C         17.9110  -23.8850   -7.7200 C.2     1  UNL1        0.0300
     13  C         17.0420  -24.2330   -6.6780 C.2     1  UNL1        0.0200
     14  C         17.1230  -23.4900   -5.5210 C.2     1  UNL1        0.0480
     15  C         18.0220  -22.4450   -5.3860 C.2     1  UNL1        0.0500
     16  C         16.3740  -23.5940   -4.2700 C.2     1  UNL1        0.2590
     17  C         18.8880  -22.0830   -6.4000 C.2     1  UNL1        0.0470
     18  C         17.8440  -21.8900   -4.0430 C.2     1  UNL1        0.2590
     19  O         18.4710  -20.9670   -3.5660 O.2     1  UNL1       -0.2670
     20  N         16.8530  -22.6170   -3.4540 N.am    1  UNL1       -0.2890
     21  H         16.5240  -22.4550   -2.5170 H       1  UNL1        0.1720
     22  O         15.5040  -24.4090   -4.0380 O.2     1  UNL1       -0.2670
     23  S         23.4980  -21.3450  -14.1500 S.O2    1  UNL1        0.2430
     24  O         22.6380  -20.3710  -14.7860 O.2     1  UNL1       -0.2060
     25  O         23.9550  -22.5190  -14.8600 O.2     1  UNL1       -0.2060
     26  N         24.8650  -20.5160  -13.5430 N.3     1  UNL1       -0.2060
     27  C         25.3800  -19.4140  -14.4100 C.3     1  UNL1        0.1070
     28  C         26.8350  -19.0580  -14.0880 C.3     1  UNL1        0.0160
     29  C         27.1180  -19.1980  -12.5980 C.3     1  UNL1        0.0060
     30  C         26.8770  -20.6410  -12.1210 C.3     1  UNL1       -0.0040
     31  C         26.3560  -20.6450  -10.6820 C.3     1  UNL1        0.0110
     32  C         25.9410  -21.4190  -13.0610 C.3     1  UNL1        0.1110
@<TRIPOS>BOND
     1    25    23    2
     2    24    23    2
     3    27    28    1
     4    27    26    1
     5    23    26    1
     6    23     1    1
     7    28    29    1
     8    26    32    1
     9    32    30    1
    10     1     6    2
    11     1     2    1
    12    29    30    1
    13     6     5    1
    14    30    31    1
    15     2     3    2
    16     5     4    2
    17     3     4    1
    18     4     7    1
    19    10     9    1
    20     7     9   am
    21     7     8    2
    22     9    11    1
    23    12    11    2
    24    12    13    1
    25    11    17    1
    26    13    14    2
    27    17    15    2
    28    14    15    1
    29    14    16    1
    30    15    18    1
    31    16    22    2
    32    16    20   am
    33    18    19    2
    34    18    20   am
    35    20    21    1
