@<TRIPOS>MOLECULE
31814_out_ligand_01.pdbqt
 27 30 0 0 0
SMALL
GASTEIGER

@<TRIPOS>ATOM
      1  C         21.9170  -21.6770  -12.4040 C.2     1  UNL1        0.0320
      2  C         20.6850  -21.0280  -12.3250 C.2     1  UNL1        0.0190
      3  C         19.8040  -21.3120  -11.2700 C.2     1  UNL1        0.0310
      4  C         20.1170  -22.2520  -10.2710 C.2     1  UNL1        0.0460
      5  C         21.3550  -22.9060  -10.3860 C.2     1  UNL1        0.0310
      6  C         22.2410  -22.6280  -11.4380 C.2     1  UNL1        0.0190
      7  N         19.2140  -22.5330   -9.1960 N.am    1  UNL1       -0.2440
      8  C         19.5300  -22.4510   -7.8510 C.2     1  UNL1        0.2660
      9  O         20.5540  -22.1440   -7.2680 O.2     1  UNL1       -0.2670
     10  C         18.3340  -22.8210   -7.1010 C.2     1  UNL1        0.0480
     11  C         18.1240  -22.9020   -5.7370 C.2     1  UNL1        0.0180
     12  C         17.3410  -23.1070   -8.0090 C.2     1  UNL1        0.0480
     13  C         16.8520  -23.2910   -5.3050 C.2     1  UNL1        0.0010
     14  C         15.8340  -23.5840   -6.2360 C.2     1  UNL1        0.0010
     15  C         16.0750  -23.4930   -7.6100 C.2     1  UNL1        0.0180
     16  C         17.8950  -22.9210   -9.3450 C.2     1  UNL1        0.2660
     17  O         17.2030  -23.1010  -10.3330 O.2     1  UNL1       -0.2670
     18  C         22.8850  -21.4100  -13.5050 C.2     1  UNL1        0.2560
     19  O         22.6200  -20.5230  -14.3070 O.2     1  UNL1       -0.2670
     20  N         23.9890  -22.2410  -13.5250 N.am    1  UNL1       -0.3220
     21  H         23.9980  -23.0130  -12.8710 H       1  UNL1        0.1690
     22  C         25.0750  -22.1910  -14.4270 C.2     1  UNL1        0.0520
     23  C         26.0470  -21.1940  -14.4370 C.2     1  UNL1        0.0320
     24  C         27.0840  -21.2450  -15.3700 C.2     1  UNL1        0.0210
     25  C         27.1180  -22.2980  -16.2680 C.2     1  UNL1        0.1160
     26  N         26.2010  -23.2870  -16.2920 N.2     1  UNL1       -0.2710
     27  C         25.2070  -23.2080  -15.3740 C.2     1  UNL1        0.1450
@<TRIPOS>BOND
     1    26    25    2
     2    26    27    1
     3    25    24    1
     4    27    22    2
     5    24    23    2
     6    23    22    1
     7    22    20    1
     8    19    18    2
     9    20    18   am
    10    20    21    1
    11    18     1    1
    12     1     2    2
    13     1     6    1
    14     2     3    1
    15     6     5    2
    16     3     4    2
    17     5     4    1
    18    17    16    2
    19     4     7    1
    20    16     7   am
    21    16    12    1
    22     7     8   am
    23    12    15    1
    24    12    10    2
    25     8     9    2
    26     8    10    1
    27    15    14    2
    28    10    11    1
    29    14    13    1
    30    11    13    2
