@<TRIPOS>MOLECULE
31813_out_ligand_01.pdbqt
 32 35 0 0 0
SMALL
GASTEIGER

@<TRIPOS>ATOM
      1  C         21.0090  -22.0660  -11.1290 C.2     1  UNL1        0.0320
      2  C         22.2390  -22.7090  -10.9250 C.2     1  UNL1        0.0180
      3  C         23.2470  -22.6070  -11.8880 C.2     1  UNL1        0.0260
      4  C         23.0300  -21.8440  -13.0420 C.2     1  UNL1        0.0790
      5  C         21.8020  -21.2100  -13.2550 C.2     1  UNL1        0.0260
      6  C         20.7980  -21.3100  -12.2900 C.2     1  UNL1        0.0180
      7  C         19.9130  -22.1420  -10.1240 C.2     1  UNL1        0.2560
      8  O         18.8160  -21.6960  -10.4310 O.2     1  UNL1       -0.2670
      9  N         20.2570  -22.7580   -8.9330 N.am    1  UNL1       -0.3230
     10  H         21.1680  -23.1990   -8.8940 H       1  UNL1        0.1690
     11  C         19.4370  -22.9320   -7.7980 C.2     1  UNL1        0.0360
     12  C         18.6880  -24.1340   -7.7350 C.2     1  UNL1        0.0300
     13  C         17.8440  -24.4170   -6.6540 C.2     1  UNL1        0.0200
     14  C         17.7770  -23.4760   -5.6500 C.2     1  UNL1        0.0480
     15  C         18.5070  -22.3010   -5.6990 C.2     1  UNL1        0.0500
     16  C         17.0090  -23.4670   -4.4060 C.2     1  UNL1        0.2590
     17  C         19.3460  -21.9990   -6.7570 C.2     1  UNL1        0.0470
     18  C         18.2030  -21.5480   -4.4820 C.2     1  UNL1        0.2590
     19  O         18.6710  -20.4700   -4.1780 O.2     1  UNL1       -0.2670
     20  N         17.3110  -22.2990   -3.7790 N.am    1  UNL1       -0.2890
     21  H         16.9300  -22.0240   -2.8880 H       1  UNL1        0.1720
     22  O         16.2610  -24.3480   -4.0350 O.2     1  UNL1       -0.2670
     23  S         24.3030  -21.7470  -14.2880 S.O2    1  UNL1        0.2600
     24  O         24.7100  -23.1040  -14.5870 O.2     1  UNL1       -0.2000
     25  O         23.8170  -20.8660  -15.3290 O.2     1  UNL1       -0.2000
     26  N         25.5810  -20.9750  -13.4770 N.3     1  UNL1       -0.3070
     27  C         26.7270  -21.7990  -13.0480 C.3     1  UNL1        0.1350
     28  C         27.0660  -21.5380  -11.5760 C.3     1  UNL1        0.0210
     29  C         26.5370  -20.2320  -10.9810 C.3     1  UNL1        0.0020
     30  C         27.0330  -18.9540  -11.6560 C.3     1  UNL1        0.0020
     31  C         27.1000  -18.9760  -13.1820 C.3     1  UNL1        0.0210
     32  C         25.8830  -19.5790  -13.8840 C.3     1  UNL1        0.1350
@<TRIPOS>BOND
     1    25    23    2
     2    24    23    2
     3    23    26    1
     4    23     4    1
     5    32    26    1
     6    32    31    1
     7    26    27    1
     8     5     4    2
     9     5     6    1
    10    31    30    1
    11    27    28    1
    12     4     3    1
    13     6     1    2
    14     3     2    2
    15    30    29    1
    16    28    29    1
    17     1     2    1
    18     1     7    1
    19     8     7    2
    20     7     9   am
    21     9    10    1
    22     9    11    1
    23    11    12    2
    24    11    17    1
    25    12    13    1
    26    17    15    2
    27    13    14    2
    28    15    14    1
    29    15    18    1
    30    14    16    1
    31    18    19    2
    32    18    20   am
    33    16    22    2
    34    16    20   am
    35    20    21    1
