@<TRIPOS>MOLECULE
31811_out_ligand_01.pdbqt
 32 35 0 0 0
SMALL
GASTEIGER

@<TRIPOS>ATOM
      1  C         17.9640  -23.4300   -8.3910 C.2     1  UNL1        0.0790
      2  C         19.2740  -23.9120   -8.4770 C.2     1  UNL1        0.0260
      3  C         20.1190  -23.4250   -9.4750 C.2     1  UNL1        0.0180
      4  C         19.6490  -22.4740  -10.3920 C.2     1  UNL1        0.0320
      5  C         18.3360  -21.9900  -10.2930 C.2     1  UNL1        0.0180
      6  C         17.4880  -22.4730   -9.2930 C.2     1  UNL1        0.0260
      7  C         20.5840  -21.9780  -11.4390 C.2     1  UNL1        0.2560
      8  O         20.1920  -21.0980  -12.1970 O.2     1  UNL1       -0.2670
      9  N         21.8410  -22.5550  -11.4190 N.am    1  UNL1       -0.3230
     10  H         22.0480  -23.1660  -10.6390 H       1  UNL1        0.1690
     11  C         22.9060  -22.3090  -12.3120 C.2     1  UNL1        0.0360
     12  C         22.6620  -21.3730  -13.3490 C.2     1  UNL1        0.0300
     13  C         23.6470  -21.0470  -14.2900 C.2     1  UNL1        0.0200
     14  C         24.8660  -21.6750  -14.1620 C.2     1  UNL1        0.0480
     15  C         25.1160  -22.5860  -13.1510 C.2     1  UNL1        0.0500
     16  C         26.0840  -21.5550  -14.9620 C.2     1  UNL1        0.2590
     17  C         24.1600  -22.9240  -12.2100 C.2     1  UNL1        0.0470
     18  C         26.4980  -23.0430  -13.3090 C.2     1  UNL1        0.2590
     19  O         27.0700  -23.8400  -12.5940 O.2     1  UNL1       -0.2670
     20  N         26.9950  -22.3960  -14.3990 N.am    1  UNL1       -0.2890
     21  H         27.9340  -22.5170  -14.7390 H       1  UNL1        0.1720
     22  O         26.2220  -20.8360  -15.9300 O.2     1  UNL1       -0.2670
     23  S         16.9010  -24.0540   -7.1030 S.O2    1  UNL1        0.2610
     24  O         15.7300  -24.6270   -7.7320 O.2     1  UNL1       -0.2000
     25  O         17.7530  -24.8430   -6.2420 O.2     1  UNL1       -0.2000
     26  N         16.4120  -22.6190   -6.3010 N.3     1  UNL1       -0.3020
     27  C         14.9790  -22.6190   -5.8430 C.3     1  UNL1        0.1360
     28  C         14.8180  -22.3560   -4.3460 C.3     1  UNL1        0.0210
     29  C         15.8440  -23.1310   -3.5320 C.3     1  UNL1        0.0040
     30  C         17.2770  -22.8250   -3.9740 C.3     1  UNL1        0.0260
     31  C         17.3320  -22.0250   -5.2790 C.3     1  UNL1        0.0920
     32  C         18.7620  -21.8220   -5.7630 C.3     1  UNL1        0.0330
@<TRIPOS>BOND
     1    22    16    2
     2    16    20   am
     3    16    14    1
     4    21    20    1
     5    20    18   am
     6    13    14    2
     7    13    12    1
     8    14    15    1
     9    12    11    2
    10    18    15    1
    11    18    19    2
    12    15    17    2
    13    11    17    1
    14    11     9    1
    15     8     7    2
    16     7     9   am
    17     7     4    1
    18     9    10    1
    19     4     5    2
    20     4     3    1
    21     5     6    1
    22     3     2    2
    23     6     1    2
    24     2     1    1
    25     1    23    1
    26    24    23    2
    27    23    26    1
    28    23    25    2
    29    26    27    1
    30    26    31    1
    31    27    28    1
    32    32    31    1
    33    31    30    1
    34    28    29    1
    35    30    29    1
