@<TRIPOS>MOLECULE
31820_out_ligand_01.pdbqt
 33 36 0 0 0
SMALL
GASTEIGER

@<TRIPOS>ATOM
      1  C         17.4030  -20.9360  -12.0080 C.3     1  UNL1        0.0490
      2  C         18.7660  -21.4840  -11.6850 C.2     1  UNL1       -0.0540
      3  C         19.8940  -20.9390  -12.3120 C.2     1  UNL1        0.0410
      4  C         21.1970  -21.3960  -12.0540 C.2     1  UNL1        0.0840
      5  C         21.3880  -22.4360  -11.1180 C.2     1  UNL1        0.0670
      6  C         20.2490  -22.9730  -10.4840 C.2     1  UNL1        0.0390
      7  C         18.9460  -22.5130  -10.7540 C.2     1  UNL1       -0.0540
      8  C         17.7770  -23.1420  -10.0430 C.3     1  UNL1        0.0490
      9  N         22.6890  -22.9360  -10.7560 N.am    1  UNL1       -0.3060
     10  C         23.7760  -23.0230  -11.6290 C.2     1  UNL1        0.2340
     11  O         24.9000  -23.3390  -11.2340 O.2     1  UNL1       -0.2720
     12  C         23.5100  -22.7380  -13.0920 C.3     1  UNL1        0.1260
     13  C         24.7540  -22.8900  -13.9860 C.3     1  UNL1        0.0200
     14  C         24.7170  -21.7060  -14.9470 C.3     1  UNL1        0.0070
     15  C         24.2020  -20.5560  -14.1000 C.3     1  UNL1        0.0560
     16  C         23.2060  -21.2830  -13.2490 C.2     1  UNL1        0.0260
     17  N         22.2050  -20.6680  -12.7160 N.2     1  UNL1       -0.2550
     18  C         22.9550  -23.2510   -9.3370 C.3     1  UNL1        0.2350
     19  C         22.0220  -22.5580   -8.3260 C.2     1  UNL1        0.2400
     20  O         22.3110  -21.4420   -7.8990 O.2     1  UNL1       -0.2710
     21  N         20.8820  -23.2750   -8.0110 N.am    1  UNL1       -0.3260
     22  H         20.8010  -24.1900   -8.4380 H       1  UNL1        0.1690
     23  C         19.8450  -22.9190   -7.1300 C.2     1  UNL1        0.0340
     24  C         19.7660  -21.6950   -6.4640 C.2     1  UNL1        0.0300
     25  C         18.6960  -21.4190   -5.6030 C.2     1  UNL1        0.0190
     26  C         17.6860  -22.3670   -5.4050 C.2     1  UNL1        0.0320
     27  C         17.7710  -23.6020   -6.0580 C.2     1  UNL1        0.0190
     28  C         18.8410  -23.8730   -6.9170 C.2     1  UNL1        0.0300
     29  C         16.5290  -22.1220   -4.5030 C.2     1  UNL1        0.2490
     30  N         16.7980  -21.8290   -3.1940 N.am    1  UNL1       -0.3660
     31  H         17.7120  -21.5260   -2.8880 H       1  UNL1        0.1590
     32  H         16.0040  -21.5390   -2.6370 H       1  UNL1        0.1590
     33  O         15.3760  -22.1420   -4.9150 O.2     1  UNL1       -0.2680
@<TRIPOS>BOND
     1    14    15    1
     2    14    13    1
     3    15    16    1
     4    13    12    1
     5    16    12    1
     6    16    17    2
     7    12    10    1
     8    17     4    1
     9     3     4    1
    10     3     2    2
    11     4     5    2
    12     1     2    1
    13     2     7    1
    14    10    11    2
    15    10     9   am
    16     5     9    1
    17     5     6    1
    18     9    18    1
    19     7     6    2
    20     7     8    1
    21    18    19    1
    22    22    21    1
    23    19    21   am
    24    19    20    2
    25    21    23    1
    26    23    28    2
    27    23    24    1
    28    28    27    1
    29    24    25    2
    30    27    26    2
    31    25    26    1
    32    26    29    1
    33    33    29    2
    34    29    30   am
    35    30    31    1
    36    30    32    1
