@<TRIPOS>MOLECULE
31850_out_ligand_01.pdbqt
 33 36 0 0 0
SMALL
GASTEIGER

@<TRIPOS>ATOM
      1  C         22.8340  -21.8380  -12.8900 C.2     1  UNL1        0.0790
      2  C         21.5110  -21.4540  -12.6450 C.2     1  UNL1        0.0260
      3  C         20.8560  -21.9210  -11.5010 C.2     1  UNL1        0.0180
      4  C         21.5230  -22.7770  -10.6120 C.2     1  UNL1        0.0320
      5  C         22.8590  -23.1320  -10.8560 C.2     1  UNL1        0.0180
      6  C         23.5170  -22.6660  -11.9950 C.2     1  UNL1        0.0260
      7  C         20.8670  -23.2970   -9.3780 C.2     1  UNL1        0.2560
      8  O         21.3020  -24.3270   -8.8790 O.2     1  UNL1       -0.2670
      9  N         19.7760  -22.5660   -8.9380 N.am    1  UNL1       -0.3230
     10  H         19.4530  -21.8200   -9.5390 H       1  UNL1        0.1690
     11  C         18.9990  -22.8080   -7.7840 C.2     1  UNL1        0.0360
     12  C         18.1210  -23.9220   -7.8350 C.2     1  UNL1        0.0300
     13  C         17.2980  -24.2560   -6.7520 C.2     1  UNL1        0.0200
     14  C         17.3750  -23.4540   -5.6350 C.2     1  UNL1        0.0480
     15  C         18.2260  -22.3630   -5.5780 C.2     1  UNL1        0.0500
     16  C         16.6630  -23.5280   -4.3620 C.2     1  UNL1        0.2590
     17  C         19.0480  -22.0130   -6.6340 C.2     1  UNL1        0.0470
     18  C         18.0480  -21.7430   -4.2640 C.2     1  UNL1        0.2590
     19  O         18.6280  -20.7570   -3.8580 O.2     1  UNL1       -0.2670
     20  N         17.1160  -22.4890   -3.6090 N.am    1  UNL1       -0.2890
     21  H         16.7950  -22.2870   -2.6760 H       1  UNL1        0.1720
     22  O         15.8340  -24.3650   -4.0670 O.2     1  UNL1       -0.2670
     23  S         23.6550  -21.2140  -14.3380 S.O2    1  UNL1        0.2600
     24  O         23.1120  -19.9090  -14.6480 O.2     1  UNL1       -0.2000
     25  O         23.6560  -22.2800  -15.3170 O.2     1  UNL1       -0.2000
     26  N         25.2500  -20.9920  -13.7920 N.3     1  UNL1       -0.3090
     27  C         25.7800  -19.6120  -13.8700 C.3     1  UNL1        0.1630
     28  C         26.2360  -22.0200  -14.2520 C.3     1  UNL1        0.1660
     29  C         27.0560  -22.6710  -13.1270 C.3     1  UNL1        0.1400
     30  C         26.6800  -24.1140  -12.8180 C.3     1  UNL1        0.0360
     31  C         27.1200  -24.2430  -11.3810 C.3     1  UNL1        0.0290
     32  C         26.7480  -22.8900  -10.8160 C.3     1  UNL1        0.1680
     33  O         26.8380  -21.9450  -11.8940 O.3     1  UNL1       -0.3840
@<TRIPOS>BOND
     1    25    23    2
     2    24    23    2
     3    23    26    1
     4    23     1    1
     5    28    26    1
     6    28    29    1
     7    27    26    1
     8    29    30    1
     9    29    33    1
    10     1     2    2
    11     1     6    1
    12    30    31    1
    13     2     3    1
    14     6     5    2
    15    33    32    1
    16     3     4    2
    17    31    32    1
    18     5     4    1
    19     4     7    1
    20    10     9    1
    21     7     9   am
    22     7     8    2
    23     9    11    1
    24    12    11    2
    25    12    13    1
    26    11    17    1
    27    13    14    2
    28    17    15    2
    29    14    15    1
    30    14    16    1
    31    15    18    1
    32    16    22    2
    33    16    20   am
    34    18    19    2
    35    18    20   am
    36    20    21    1
