@<TRIPOS>MOLECULE
318_out_ligand_01.pdbqt
 40 42 0 0 0
SMALL
GASTEIGER

@<TRIPOS>ATOM
      1  C         17.2660  -22.5890   -9.9460 C.2     1  UNL1        0.0810
      2  C         16.8820  -21.5050  -10.7420 C.2     1  UNL1        0.0270
      3  C         17.8470  -20.8250  -11.4910 C.2     1  UNL1        0.0260
      4  C         19.1890  -21.2200  -11.4410 C.2     1  UNL1        0.0490
      5 CL         20.3130  -20.3530  -12.4240 Cl      1  UNL1       -0.0830
      6  C         19.5680  -22.2960  -10.6250 C.2     1  UNL1        0.0550
      7  C         18.6040  -22.9840   -9.8750 C.2     1  UNL1        0.0440
      8  C         20.9570  -22.7990  -10.5300 C.2     1  UNL1        0.2570
      9  O         21.1620  -23.7380   -9.7710 O.2     1  UNL1       -0.2670
     10  N         21.8840  -22.0890  -11.2670 N.am    1  UNL1       -0.3230
     11  H         21.5380  -21.3010  -11.8030 H       1  UNL1        0.1690
     12  C         23.2770  -22.3080  -11.3280 C.2     1  UNL1        0.0360
     13  C         24.1860  -21.8200  -10.3830 C.2     1  UNL1        0.0290
     14  C         25.5580  -22.0650  -10.5130 C.2     1  UNL1        0.0040
     15  C         26.0370  -22.8020  -11.5930 C.2     1  UNL1        0.0250
     16  C         25.1310  -23.2980  -12.5310 C.2     1  UNL1        0.0760
     17  C         23.7580  -23.0600  -12.4050 C.2     1  UNL1        0.0540
     18  S         25.7420  -24.2380  -13.9050 S.O2    1  UNL1        0.2430
     19  O         24.7490  -25.2470  -14.2020 O.2     1  UNL1       -0.2060
     20  O         27.1210  -24.5890  -13.6430 O.2     1  UNL1       -0.2060
     21  N         25.7480  -23.0900  -15.1770 N.3     1  UNL1       -0.2060
     22  C         27.0910  -22.6010  -15.5820 C.3     1  UNL1        0.1070
     23  C         27.0480  -21.1200  -15.9820 C.3     1  UNL1        0.0150
     24  C         25.6620  -20.5320  -16.2540 C.3     1  UNL1        0.0010
     25  C         24.9010  -21.1680  -17.4170 C.3     1  UNL1        0.0010
     26  C         25.0630  -22.6760  -17.5860 C.3     1  UNL1        0.0150
     27  C         24.8690  -23.4980  -16.3130 C.3     1  UNL1        0.1070
     28  S         16.0530  -23.4730   -8.9900 S.O2    1  UNL1        0.2630
     29  O         15.4760  -24.4960   -9.8350 O.2     1  UNL1       -0.2000
     30  O         15.2240  -22.4800   -8.3420 O.2     1  UNL1       -0.2000
     31  N         16.9730  -24.1950   -7.7790 N.pl3   1  UNL1       -0.2810
     32  H         16.7670  -25.1870   -7.6600 H       1  UNL1        0.1790
     33  C         17.3450  -23.4450   -6.6310 C.2     1  UNL1        0.0430
     34  C         16.7200  -23.6480   -5.4050 C.2     1  UNL1        0.0300
     35  C         17.1290  -22.9210   -4.2880 C.2     1  UNL1        0.0090
     36  C         18.1710  -21.9860   -4.3800 C.2     1  UNL1       -0.0560
     37  C         18.5660  -21.2070   -3.1530 C.3     1  UNL1        0.0490
     38  C         18.7980  -21.7710   -5.6240 C.2     1  UNL1       -0.0540
     39  C         18.3750  -22.5100   -6.7430 C.2     1  UNL1        0.0370
     40  C         19.9010  -20.7590   -5.7820 C.3     1  UNL1        0.0490
@<TRIPOS>BOND
     1    26    25    1
     2    26    27    1
     3    25    24    1
     4    27    21    1
     5    24    23    1
     6    23    22    1
     7    22    21    1
     8    21    18    1
     9    19    18    2
    10    18    20    2
    11    18    16    1
    12    16    17    1
    13    16    15    2
    14    17    12    2
    15    11    10    1
    16    15    14    1
    17     3     4    2
    18     3     2    1
    19     4     6    1
    20    12    10    1
    21    12    13    1
    22    10     8   am
    23     2     1    2
    24     6     8    1
    25     6     7    2
    26     8     9    2
    27    14    13    2
    28     1     7    1
    29     1    28    1
    30    29    28    2
    31    28    30    2
    32    28    31    1
    33    31    32    1
    34    31    33    1
    35    39    33    2
    36    39    38    1
    37    33    34    1
    38    40    38    1
    39    38    36    2
    40    34    35    2
    41    36    35    1
    42    36    37    1
