@<TRIPOS>MOLECULE
31901_out_ligand_01.pdbqt
 32 35 0 0 0
SMALL
GASTEIGER

@<TRIPOS>ATOM
      1  C         22.3950  -23.0860  -10.2400 C.ar    1  UNL1        0.1960
      2  N         23.6320  -23.2990  -10.6310 N.ar    1  UNL1       -0.1220
      3  N         23.7820  -22.7560  -11.8740 N.ar    1  UNL1       -0.1330
      4  C         22.6340  -22.2120  -12.2300 C.ar    1  UNL1        0.1410
      5  N         21.6920  -22.4120  -11.2240 N.ar    1  UNL1       -0.2750
      6  C         22.4600  -21.3530  -13.4440 C.3     1  UNL1        0.1380
      7  C         23.6520  -21.3110  -14.3770 C.2     1  UNL1        0.0260
      8  C         24.5120  -20.2840  -14.4180 C.2     1  UNL1        0.1000
      9  C         25.6530  -20.3310  -15.3540 C.2     1  UNL1        0.2510
     10  O         26.4500  -19.4020  -15.4180 O.2     1  UNL1       -0.2680
     11  N         25.7510  -21.4530  -16.1230 N.am    1  UNL1       -0.2750
     12  C         24.8780  -22.5020  -16.0970 C.2     1  UNL1        0.3270
     13  H         26.5200  -21.5110  -16.7720 H       1  UNL1        0.1730
     14  O         25.0150  -23.4840  -16.8180 O.2     1  UNL1       -0.2470
     15  N         23.8420  -22.3890  -15.2120 N.am    1  UNL1       -0.3120
     16  H         23.1980  -23.1760  -15.1900 H       1  UNL1        0.1700
     17  C         20.3460  -21.9670  -11.2160 C.2     1  UNL1        0.0430
     18  C         20.0150  -20.7170  -11.7490 C.2     1  UNL1        0.0300
     19  C         18.6840  -20.3040  -11.7690 C.2     1  UNL1        0.0030
     20  C         17.6820  -21.1310  -11.2600 C.2     1  UNL1        0.0070
     21  C         18.0010  -22.3840  -10.7260 C.2     1  UNL1       -0.0600
     22  C         16.9270  -23.2480  -10.1310 C.3     1  UNL1        0.0480
     23  C         19.3410  -22.7930  -10.6930 C.2     1  UNL1        0.0370
     24  S         21.7100  -23.7110   -8.7750 S.3     1  UNL1       -0.0850
     25  C         21.4180  -22.1680   -7.8590 C.3     1  UNL1        0.1210
     26  C         20.1300  -22.2310   -7.0760 C.2     1  UNL1       -0.0490
     27  C         19.8260  -21.2500   -6.1210 C.2     1  UNL1        0.0080
     28  C         18.6400  -21.3160   -5.3880 C.2     1  UNL1        0.0070
     29  C         17.7420  -22.3710   -5.5820 C.2     1  UNL1       -0.0620
     30  C         16.4530  -22.4230   -4.8180 C.3     1  UNL1        0.0480
     31  C         18.0400  -23.3480   -6.5380 C.2     1  UNL1        0.0070
     32  C         19.2260  -23.2840   -7.2720 C.2     1  UNL1        0.0080
@<TRIPOS>BOND
     1    14    12    2
     2    13    11    1
     3    11    12   am
     4    11     9   am
     5    12    15   am
     6    10     9    2
     7     9     8    1
     8    15    16    1
     9    15     7    1
    10     8     7    2
    11     7     6    1
    12     6     4    1
    13     4     3   ar
    14     4     5   ar
    15     3     2   ar
    16    19    18    1
    17    19    20    2
    18    18    17    2
    19    20    21    1
    20     5    17    1
    21     5     1   ar
    22    17    23    1
    23    21    23    2
    24    21    22    1
    25     2     1   ar
    26     1    24    1
    27    24    25    1
    28    25    26    1
    29    32    26    2
    30    32    31    1
    31    26    27    1
    32    31    29    2
    33    27    28    2
    34    29    28    1
    35    29    30    1
