@<TRIPOS>MOLECULE
31926_out_ligand_01.pdbqt
 33 36 0 0 0
SMALL
GASTEIGER

@<TRIPOS>ATOM
      1  C         18.1590  -23.4800   -8.1010 C.2     1  UNL1        0.0740
      2  C         19.5020  -23.8580   -8.1560 C.2     1  UNL1        0.0260
      3  C         20.3000  -23.4010   -9.2070 C.2     1  UNL1        0.0180
      4  C         19.7500  -22.5850  -10.2060 C.2     1  UNL1        0.0320
      5  C         18.4020  -22.2040  -10.1390 C.2     1  UNL1        0.0180
      6  C         17.6030  -22.6570   -9.0870 C.2     1  UNL1        0.0260
      7  C         20.6380  -22.1170  -11.3060 C.2     1  UNL1        0.2560
      8  O         20.1940  -21.2930  -12.0970 O.2     1  UNL1       -0.2670
      9  N         21.9140  -22.6510  -11.2940 N.am    1  UNL1       -0.3230
     10  H         22.1640  -23.2150  -10.4900 H       1  UNL1        0.1690
     11  C         22.9480  -22.4200  -12.2260 C.2     1  UNL1        0.0360
     12  C         22.8990  -21.4110  -13.2150 C.2     1  UNL1        0.0300
     13  C         23.9520  -21.2230  -14.1240 C.2     1  UNL1        0.0200
     14  C         25.0360  -22.0650  -14.0170 C.2     1  UNL1        0.0480
     15  C         25.0900  -23.0580  -13.0570 C.2     1  UNL1        0.0500
     16  C         26.2730  -22.1380  -14.7950 C.2     1  UNL1        0.2590
     17  C         24.0670  -23.2640  -12.1500 C.2     1  UNL1        0.0470
     18  C         26.3590  -23.7610  -13.2240 C.2     1  UNL1        0.2590
     19  O         26.7340  -24.6980  -12.5490 O.2     1  UNL1       -0.2670
     20  N         26.9980  -23.1590  -14.2630 N.am    1  UNL1       -0.2890
     21  H         27.9030  -23.4410  -14.6060 H       1  UNL1        0.1720
     22  O         26.5650  -21.4180  -15.7270 O.2     1  UNL1       -0.2670
     23  S         17.1210  -24.0490   -6.7760 S.O2    1  UNL1        0.2440
     24  O         17.7200  -25.2320   -6.1960 O.2     1  UNL1       -0.2060
     25  O         15.7670  -24.0630   -7.2870 O.2     1  UNL1       -0.2060
     26  N         17.2530  -22.7880   -5.6260 N.3     1  UNL1       -0.2020
     27  C         18.4670  -21.9350   -5.7560 C.3     1  UNL1        0.1080
     28  C         18.4470  -20.8360   -4.7010 C.3     1  UNL1        0.0150
     29  C         18.4590  -21.4040   -3.2840 C.3     1  UNL1        0.0030
     30  C         18.0480  -22.8730   -3.2470 C.3     1  UNL1        0.0210
     31  C         16.9090  -23.2040   -4.2200 C.3     1  UNL1        0.0740
     32  C         15.5630  -22.5440   -3.8640 C.3     1  UNL1        0.0160
     33  C         14.7710  -22.0840   -5.0790 C.3     1  UNL1        0.0060
@<TRIPOS>BOND
     1    22    16    2
     2    16    20   am
     3    16    14    1
     4    21    20    1
     5    20    18   am
     6    13    14    2
     7    13    12    1
     8    14    15    1
     9    18    15    1
    10    18    19    2
    11    12    11    2
    12    15    17    2
    13    11    17    1
    14    11     9    1
    15     8     7    2
    16     7     9   am
    17     7     4    1
    18     9    10    1
    19     4     5    2
    20     4     3    1
    21     5     6    1
    22     3     2    2
    23     6     1    2
    24     2     1    1
    25     1    23    1
    26    25    23    2
    27    23    24    2
    28    23    26    1
    29    27    26    1
    30    27    28    1
    31    26    31    1
    32    33    32    1
    33    28    29    1
    34    31    32    1
    35    31    30    1
    36    29    30    1
