@<TRIPOS>MOLECULE
31982_out_ligand_01.pdbqt
 30 33 0 0 0
SMALL
GASTEIGER

@<TRIPOS>ATOM
      1  C         16.8160  -22.5390   -9.2150 C.2     1  UNL1        0.1430
      2  C         16.2560  -23.8040   -9.2720 C.2     1  UNL1        0.0450
      3  C         15.4120  -23.9350   -8.1400 C.2     1  UNL1        0.0360
      4  C         15.5190  -22.7580   -7.4330 C.2     1  UNL1        0.0680
      5  O         16.3490  -21.9050   -8.0950 O.2     1  UNL1       -0.3080
      6  C         17.7410  -21.8150  -10.0700 C.2     1  UNL1        0.2760
      7  O         17.3920  -21.1080  -11.0130 O.2     1  UNL1       -0.2650
      8  N         19.0760  -21.9850   -9.7610 N.am    1  UNL1       -0.3470
      9  H         19.3520  -22.6670   -9.0720 H       1  UNL1        0.1630
     10  C         20.1100  -21.3930  -10.5750 C.3     1  UNL1        0.1190
     11  C         19.9510  -21.7480  -12.0680 C.3     1  UNL1        0.0340
     12  C         21.3640  -21.7760  -12.6620 C.3     1  UNL1        0.0410
     13  C         22.1750  -22.1890  -11.4740 C.2     1  UNL1       -0.0500
     14  C         23.4690  -22.6800  -11.4570 C.2     1  UNL1        0.0070
     15  C         21.4690  -21.9640  -10.2850 C.2     1  UNL1       -0.0290
     16  C         24.0580  -22.9550  -10.2210 C.2     1  UNL1        0.0010
     17  C         23.3580  -22.7220   -9.0280 C.2     1  UNL1        0.0010
     18  C         22.0570  -22.2150   -9.0530 C.2     1  UNL1        0.0100
     19  C         14.9180  -22.2240   -6.1890 C.3     1  UNL1        0.2050
     20  S         15.2010  -23.3350   -4.8090 S.O2    1  UNL1        0.1540
     21  O         14.3250  -24.4840   -4.9860 O.2     1  UNL1       -0.2270
     22  O         15.1250  -22.5890   -3.5620 O.2     1  UNL1       -0.2270
     23  C         16.8920  -23.9030   -4.9640 C.3     1  UNL1        0.1820
     24  C         17.8510  -22.7570   -5.1290 C.2     1  UNL1       -0.0060
     25  C         17.8460  -21.6710   -4.2410 C.2     1  UNL1        0.0110
     26  C         18.7400  -20.6100   -4.4090 C.2     1  UNL1        0.0010
     27  C         19.6450  -20.6170   -5.4690 C.2     1  UNL1        0.0030
     28  C         19.6550  -21.6850   -6.3630 C.2     1  UNL1        0.0430
     29  C         18.7630  -22.7380   -6.1870 C.2     1  UNL1        0.1230
     30  F         18.7940  -23.7590   -7.0520 F       1  UNL1       -0.2060
@<TRIPOS>BOND
     1    12    11    1
     2    12    13    1
     3    11    10    1
     4    13    14    2
     5    13    15    1
     6    14    16    1
     7     7     6    2
     8    10    15    1
     9    10     8    1
    10    15    18    2
    11    16    17    2
    12     6     8   am
    13     6     1    1
    14     8     9    1
    15     2     1    2
    16     2     3    1
    17     1     5    1
    18    18    17    1
    19     3     4    2
    20     5     4    1
    21     4    19    1
    22    30    29    1
    23    28    29    1
    24    28    27    2
    25    19    20    1
    26    29    24    2
    27    27    26    1
    28    24    23    1
    29    24    25    1
    30    21    20    2
    31    23    20    1
    32    20    22    2
    33    26    25    2
