@<TRIPOS>MOLECULE
31997_out_ligand_01.pdbqt
 33 36 0 0 0
SMALL
GASTEIGER

@<TRIPOS>ATOM
      1  C         21.9520  -21.9690  -10.6970 C.2     1  UNL1        0.0810
      2  C         21.5850  -22.7990   -9.7090 C.2     1  UNL1        0.1130
      3  N         20.2830  -23.0700   -9.3230 N.pl3   1  UNL1       -0.3310
      4  C         19.2060  -22.4930  -10.0250 C.2     1  UNL1        0.1440
      5  N         17.9270  -22.7910   -9.6640 N.2     1  UNL1       -0.2350
      6  C         16.9040  -22.2080  -10.3420 C.2     1  UNL1        0.0330
      7  C         15.5090  -22.5300   -9.8920 C.3     1  UNL1        0.0700
      8  C         17.1060  -21.3340  -11.4030 C.2     1  UNL1        0.0280
      9  C         18.4080  -21.0430  -11.7860 C.2     1  UNL1        0.0210
     10  C         19.4680  -21.6260  -11.0910 C.2     1  UNL1        0.0610
     11  C         20.8660  -21.3280  -11.4780 C.2     1  UNL1        0.2010
     12  O         21.0950  -20.5820  -12.4230 O.2     1  UNL1       -0.2860
     13  C         19.9500  -23.9410   -8.1840 C.3     1  UNL1        0.2330
     14  C         19.1730  -23.1920   -7.1000 C.2     1  UNL1        0.2400
     15  O         19.6210  -22.1580   -6.6070 O.2     1  UNL1       -0.2710
     16  N         17.9630  -23.7900   -6.7930 N.am    1  UNL1       -0.3260
     17  H         17.8170  -24.7080   -7.2130 H       1  UNL1        0.1690
     18  C         16.9720  -23.3400   -5.9000 C.2     1  UNL1        0.0350
     19  C         17.1650  -23.6180   -4.5420 C.2     1  UNL1        0.0290
     20  C         16.2240  -23.2140   -3.5900 C.2     1  UNL1        0.0030
     21  C         15.0770  -22.5300   -3.9890 C.2     1  UNL1        0.0070
     22  C         14.8730  -22.2320   -5.3400 C.2     1  UNL1       -0.0600
     23  C         13.6280  -21.5150   -5.7780 C.3     1  UNL1        0.0480
     24  C         15.8190  -22.6520   -6.2910 C.2     1  UNL1        0.0360
     25  C         23.4010  -21.7800  -10.9480 C.2     1  UNL1        0.1970
     26  O         24.1180  -21.2200  -10.1220 O.2     1  UNL1       -0.2860
     27  C         23.9870  -22.2450  -12.2340 C.2     1  UNL1        0.0150
     28  C         24.0910  -21.4050  -13.3490 C.2     1  UNL1        0.0160
     29  C         24.6870  -21.8740  -14.5240 C.2     1  UNL1        0.0070
     30  C         25.1840  -23.1830  -14.6000 C.2     1  UNL1       -0.0620
     31  C         25.8440  -23.6720  -15.8570 C.3     1  UNL1        0.0480
     32  C         25.1080  -24.0060  -13.4710 C.2     1  UNL1        0.0070
     33  C         24.5160  -23.5380  -12.2920 C.2     1  UNL1        0.0160
@<TRIPOS>BOND
     1    31    30    1
     2    30    29    2
     3    30    32    1
     4    29    28    1
     5    32    33    2
     6    28    27    2
     7    12    11    2
     8    33    27    1
     9    27    25    1
    10     9     8    2
    11     9    10    1
    12    11    10    1
    13    11     1    1
    14     8     6    1
    15    10     4    2
    16    25     1    1
    17    25    26    2
    18     1     2    2
    19     6     7    1
    20     6     5    2
    21     4     5    1
    22     4     3    1
    23     2     3    1
    24     3    13    1
    25    13    14    1
    26    17    16    1
    27    14    16   am
    28    14    15    2
    29    16    18    1
    30    24    18    2
    31    24    22    1
    32    18    19    1
    33    23    22    1
    34    22    21    2
    35    19    20    2
    36    21    20    1
