@<TRIPOS>MOLECULE
32022_out_ligand_01.pdbqt
 30 33 0 0 0
SMALL
GASTEIGER

@<TRIPOS>ATOM
      1  C         23.2950  -23.0650   -9.7310 C.2     1  UNL1        0.2560
      2  O         24.2660  -23.6890   -9.3230 O.2     1  UNL1       -0.2670
      3  N         23.2590  -22.1940  -10.8050 N.am    1  UNL1       -0.3230
      4  H         22.4280  -21.6260  -10.9010 H       1  UNL1        0.1690
      5  C         22.0130  -23.1890   -8.9830 C.2     1  UNL1        0.0320
      6  C         21.6630  -22.1790   -8.0800 C.2     1  UNL1        0.0180
      7  C         20.4680  -22.2630   -7.3580 C.2     1  UNL1        0.0160
      8  C         19.6110  -23.3620   -7.5190 C.2     1  UNL1        0.0150
      9  C         19.9790  -24.3800   -8.4130 C.2     1  UNL1        0.0160
     10  C         21.1730  -24.2980   -9.1400 C.2     1  UNL1        0.0180
     11  C         18.3670  -23.4560   -6.7640 C.2     1  UNL1        0.1980
     12  N         17.6440  -24.6230   -6.6590 N.2     1  UNL1       -0.1360
     13  N         16.5850  -24.3550   -5.9090 N.pl3   1  UNL1        0.0250
     14  N         16.7110  -23.0560   -5.5960 N.3     1  UNL1       -0.1870
     15  N         17.7930  -22.4350   -6.1040 N.pl3   1  UNL1       -0.1360
     16  C         15.7300  -22.3720   -4.7690 C.3     1  UNL1        0.1190
     17  C         14.4020  -22.2010   -5.5050 C.3     1  UNL1        0.0350
     18  C         15.5370  -23.0860   -3.4330 C.3     1  UNL1        0.0350
     19  C         24.2920  -21.9310  -11.7290 C.2     1  UNL1        0.0350
     20  C         25.3850  -21.1910  -11.2630 C.2     1  UNL1        0.0290
     21  C         26.4440  -20.8760  -12.1130 C.2     1  UNL1        0.0030
     22  C         26.4210  -21.2970  -13.4440 C.2     1  UNL1        0.0150
     23  C         25.3370  -22.0350  -13.9390 C.2     1  UNL1        0.0140
     24  C         24.2760  -22.3430  -13.0650 C.2     1  UNL1        0.0440
     25  C         25.2710  -22.4790  -15.3350 C.2     1  UNL1        0.1610
     26  N         26.2570  -22.9750  -16.0600 N.2     1  UNL1       -0.1300
     27  N         25.7830  -23.2630  -17.3200 N.2     1  UNL1       -0.1430
     28  C         24.5170  -22.9310  -17.3460 C.2     1  UNL1        0.2330
     29  N         24.1520  -22.4400  -16.1320 N.pl3   1  UNL1       -0.3320
     30  H         23.2410  -22.0990  -15.8740 H       1  UNL1        0.1680
@<TRIPOS>BOND
     1    28    27    2
     2    28    29    1
     3    27    26    1
     4    29    30    1
     5    29    25    1
     6    26    25    2
     7    25    23    1
     8    23    22    2
     9    23    24    1
    10    22    21    1
    11    24    19    2
    12    21    20    2
    13    19    20    1
    14    19     3    1
    15     4     3    1
    16     3     1   am
    17     1     2    2
    18     1     5    1
    19    10     5    2
    20    10     9    1
    21     5     6    1
    22     9     8    2
    23     6     7    2
    24     8     7    1
    25     8    11    1
    26    11    12    2
    27    11    15    1
    28    12    13    1
    29    15    14    1
    30    13    14    1
    31    14    16    1
    32    17    16    1
    33    16    18    1
