@<TRIPOS>MOLECULE
3203_out_ligand_01.pdbqt
 37 40 0 0 0
SMALL
GASTEIGER

@<TRIPOS>ATOM
      1  C         23.0280  -21.9220   -9.0380 C.3     1  UNL1        0.1640
      2  C         23.7420  -23.2520   -9.2490 C.3     1  UNL1        0.1250
      3  C         24.7780  -23.1260  -10.3500 C.2     1  UNL1        0.2230
      4  N         24.4070  -22.2190  -11.3300 N.am    1  UNL1       -0.3270
      5  H         23.4970  -21.7850  -11.2240 H       1  UNL1        0.1690
      6  O         25.8350  -23.7490  -10.3020 O.2     1  UNL1       -0.2730
      7  C         25.1230  -21.8690  -12.4920 C.2     1  UNL1        0.0350
      8  C         24.8600  -22.6030  -13.6530 C.2     1  UNL1        0.0490
      9  C         25.5160  -22.3200  -14.8700 C.2     1  UNL1        0.0670
     10  C         26.4590  -21.2750  -14.9200 C.2     1  UNL1        0.0840
     11  C         26.7340  -20.5600  -13.7460 C.2     1  UNL1        0.0400
     12  C         26.0690  -20.8510  -12.5490 C.2     1  UNL1        0.0320
     13  C         25.1290  -23.1820  -16.0390 C.2     1  UNL1        0.2540
     14  N         24.2350  -22.6620  -16.9460 N.am    1  UNL1       -0.3610
     15  C         23.8650  -23.3600  -18.1520 C.3     1  UNL1        0.1490
     16  H         23.9850  -21.6840  -16.8540 H       1  UNL1        0.1620
     17  O         25.5970  -24.3130  -16.1510 O.2     1  UNL1       -0.2680
     18  O         27.0840  -21.0190  -16.1150 O.2     1  UNL1       -0.3550
     19  C         26.6390  -19.8940  -16.8660 C.3     1  UNL1        0.2100
     20  N         21.5710  -21.9850   -9.1610 N.ar    1  UNL1       -0.2330
     21  N         20.8510  -22.3050   -8.0360 N.ar    1  UNL1       -0.1680
     22  C         19.5540  -22.3650   -8.1060 C.ar    1  UNL1        0.0980
     23  C         18.7940  -22.0800   -9.3420 C.ar    1  UNL1        0.0110
     24  C         17.3920  -22.0130   -9.3970 C.2     1  UNL1        0.0150
     25  C         19.5360  -21.8280  -10.4920 C.ar    1  UNL1        0.0460
     26  C         16.7490  -21.7130  -10.6030 C.2     1  UNL1        0.0010
     27  C         17.4980  -21.4720  -11.7560 C.2     1  UNL1        0.0010
     28  C         18.8920  -21.5290  -11.7010 C.2     1  UNL1        0.0180
     29  C         21.0070  -21.8250  -10.4250 C.ar    1  UNL1        0.2740
     30  O         21.6630  -21.6650  -11.4540 O.2     1  UNL1       -0.2660
     31  C         18.8460  -22.7540   -6.8630 C.2     1  UNL1       -0.0050
     32  C         18.2990  -24.0380   -6.7560 C.2     1  UNL1        0.0150
     33  C         17.5950  -24.3930   -5.6020 C.2     1  UNL1        0.0240
     34  C         17.4360  -23.4620   -4.5730 C.2     1  UNL1        0.0340
     35 CL         16.5680  -23.9030   -3.1530 Cl      1  UNL1       -0.0840
     36  C         17.9680  -22.1740   -4.6880 C.2     1  UNL1        0.0240
     37  C         18.6720  -21.8130   -5.8410 C.2     1  UNL1        0.0150
@<TRIPOS>BOND
     1    15    14    1
     2    14    16    1
     3    14    13   am
     4    19    18    1
     5    17    13    2
     6    18    10    1
     7    13     9    1
     8    10     9    2
     9    10    11    1
    10     9     8    1
    11    11    12    2
    12     8     7    2
    13    12     7    1
    14     7     4    1
    15    27    28    2
    16    27    26    1
    17    28    25    1
    18    30    29    2
    19     4     5    1
    20     4     3   am
    21    26    24    2
    22    25    29   ar
    23    25    23   ar
    24    29    20   ar
    25     3     6    2
    26     3     2    1
    27    24    23    1
    28    23    22   ar
    29     2     1    1
    30    20     1    1
    31    20    21   ar
    32    22    21   ar
    33    22    31    1
    34    31    32    2
    35    31    37    1
    36    32    33    1
    37    37    36    2
    38    33    34    2
    39    36    34    1
    40    34    35    1
