@<TRIPOS>MOLECULE
32032_out_ligand_01.pdbqt
 36 40 0 0 0
SMALL
GASTEIGER

@<TRIPOS>ATOM
      1  N         15.1400  -22.1640   -9.4520 N.1     1  UNL1       -0.1910
      2  C         16.2480  -22.1240   -9.7980 C.1     1  UNL1        0.1060
      3  C         17.6200  -22.0900  -10.1720 C.2     1  UNL1        0.1230
      4  C         18.6340  -22.4220   -9.3370 C.2     1  UNL1        0.0030
      5  C         20.0130  -22.3620   -9.8070 C.2     1  UNL1        0.0440
      6  C         20.3000  -21.9770  -11.0600 C.2     1  UNL1        0.0460
      7  N         19.2770  -21.6410  -11.9080 N.am    1  UNL1       -0.3220
      8  C         17.9480  -21.6630  -11.5650 C.2     1  UNL1        0.2670
      9  O         17.0850  -21.3420  -12.3770 O.2     1  UNL1       -0.2660
     10  H         19.4840  -21.3330  -12.8520 H       1  UNL1        0.1690
     11  C         18.3500  -22.8500   -7.9500 C.2     1  UNL1       -0.0240
     12  C         17.9110  -24.1560   -7.6910 C.2     1  UNL1        0.0140
     13  C         17.6310  -24.5560   -6.3810 C.2     1  UNL1        0.0240
     14  C         17.7840  -23.6500   -5.3330 C.2     1  UNL1        0.0340
     15 CL         17.4340  -24.1410   -3.7220 Cl      1  UNL1       -0.0840
     16  C         18.2140  -22.3480   -5.5810 C.2     1  UNL1        0.0240
     17  C         18.4950  -21.9460   -6.8900 C.2     1  UNL1        0.0140
     18  C         21.6790  -21.9160  -11.5660 C.2     1  UNL1       -0.0090
     19  C         21.9700  -21.3110  -12.7940 C.2     1  UNL1        0.0160
     20  C         23.2840  -21.2700  -13.2740 C.2     1  UNL1        0.0300
     21  C         24.3400  -21.8110  -12.5300 C.2     1  UNL1        0.0320
     22  C         24.0390  -22.4450  -11.3190 C.2     1  UNL1        0.0300
     23  C         22.7260  -22.4910  -10.8350 C.2     1  UNL1        0.0160
     24  N         25.6490  -21.7980  -13.0600 N.pl3   1  UNL1       -0.3550
     25  H         26.2850  -22.3760  -12.5130 H       1  UNL1        0.1660
     26  C         26.0380  -21.8490  -14.4290 C.2     1  UNL1        0.0460
     27  C         26.2870  -23.0700  -15.0580 C.2     1  UNL1        0.0490
     28  C         26.7360  -23.0600  -16.3620 C.2     1  UNL1        0.1190
     29  N         26.9690  -21.9360  -17.0680 N.2     1  UNL1       -0.2600
     30  C         26.7530  -20.7550  -16.4690 C.2     1  UNL1        0.0700
     31  C         27.0020  -19.5980  -17.1920 C.2     1  UNL1        0.0560
     32  C         26.2890  -20.6480  -15.1370 C.2     1  UNL1        0.0190
     33  C         26.7990  -18.3380  -16.6340 C.2     1  UNL1        0.0360
     34 CL         27.1210  -16.9270  -17.5640 Cl      1  UNL1       -0.0840
     35  C         26.3380  -18.2120  -15.3300 C.2     1  UNL1        0.0250
     36  C         26.0820  -19.3620  -14.5850 C.2     1  UNL1        0.0180
@<TRIPOS>BOND
     1    34    33    1
     2    31    33    2
     3    31    30    1
     4    29    30    2
     5    29    28    1
     6    33    35    1
     7    30    32    1
     8    28    27    2
     9    35    36    2
    10    32    36    1
    11    32    26    2
    12    27    26    1
    13    26    24    1
    14    20    19    1
    15    20    21    2
    16    24    21    1
    17    24    25    1
    18    10     7    1
    19    19    18    2
    20    21    22    1
    21     9     8    2
    22     7     8   am
    23     7     6    1
    24    18     6    1
    25    18    23    1
    26     8     3    1
    27    22    23    2
    28     6     5    2
    29     3     2    1
    30     3     4    2
    31     5     4    1
    32     2     1    3
    33     4    11    1
    34    11    12    2
    35    11    17    1
    36    12    13    1
    37    17    16    2
    38    13    14    2
    39    16    14    1
    40    14    15    1
