@<TRIPOS>MOLECULE
32042_out_ligand_01.pdbqt
 31 34 0 0 0
SMALL
GASTEIGER

@<TRIPOS>ATOM
      1  C         18.5440  -22.1080   -6.5120 C.2     1  UNL1        0.0600
      2  C         19.5750  -22.1770   -7.4690 C.2     1  UNL1        0.0490
      3  C         19.3280  -22.6630   -8.7530 C.2     1  UNL1        0.0360
      4  C         18.0360  -23.0710   -9.0640 C.2     1  UNL1        0.0320
      5  C         17.0170  -23.0330   -8.0980 C.2     1  UNL1        0.0320
      6  C         17.2390  -22.5900   -6.7850 C.2     1  UNL1        0.0460
      7  N         20.4090  -22.6790   -9.6610 N.am    1  UNL1       -0.3230
      8  C         20.5520  -21.9140  -10.8060 C.2     1  UNL1        0.2560
      9  O         19.7290  -21.1270  -11.2610 O.2     1  UNL1       -0.2670
     10  H         21.1210  -23.3710   -9.4730 H       1  UNL1        0.1690
     11  C         21.8300  -22.1080  -11.5550 C.2     1  UNL1        0.0350
     12  C         22.8740  -22.9020  -11.0640 C.2     1  UNL1        0.0200
     13  C         24.0410  -23.0640  -11.8170 C.2     1  UNL1        0.0400
     14  C         24.1810  -22.4280  -13.0530 C.2     1  UNL1        0.1020
     15  C         23.1750  -21.5640  -13.5050 C.2     1  UNL1        0.1030
     16  O         25.3450  -22.7180  -13.7190 O.2     1  UNL1       -0.3480
     17  C         21.9930  -21.4310  -12.7710 C.2     1  UNL1        0.0560
     18  O         23.2340  -20.8110  -14.6520 O.2     1  UNL1       -0.3480
     19  C         24.5390  -20.2920  -14.9170 C.3     1  UNL1        0.1780
     20  C         25.3820  -21.2960  -15.6860 C.3     1  UNL1        0.0530
     21  C         25.2140  -22.7040  -15.1410 C.3     1  UNL1        0.1780
     22  C         18.9060  -21.4010   -5.2540 C.2     1  UNL1        0.2510
     23  N         19.6990  -20.2960   -5.3920 N.am    1  UNL1       -0.3660
     24  H         19.8330  -19.7230   -4.5700 H       1  UNL1        0.1590
     25  H         19.7210  -19.8430   -6.3000 H       1  UNL1        0.1590
     26  O         18.5490  -21.8060   -4.1540 O.2     1  UNL1       -0.2680
     27  N         16.2330  -22.6320   -5.8150 N.pl3   1  UNL1       -0.3800
     28  C         16.0630  -23.9260   -5.1070 C.3     1  UNL1        0.1230
     29  C         14.5580  -24.0470   -4.8610 C.3     1  UNL1        0.0210
     30  C         14.0720  -22.6080   -4.9090 C.3     1  UNL1        0.0210
     31  C         14.9080  -22.0390   -6.0480 C.3     1  UNL1        0.1230
@<TRIPOS>BOND
     1    20    21    1
     2    20    19    1
     3    21    16    1
     4    19    18    1
     5    18    15    1
     6    16    14    1
     7    15    14    2
     8    15    17    1
     9    14    13    1
    10    17    11    2
    11    13    12    2
    12    11    12    1
    13    11     8    1
    14     9     8    2
    15     8     7   am
    16     7    10    1
    17     7     3    1
    18     4     3    2
    19     4     5    1
    20     3     2    1
    21     5     6    2
    22     2     1    2
    23     6     1    1
    24     6    27    1
    25     1    22    1
    26    25    23    1
    27    31    27    1
    28    31    30    1
    29    27    28    1
    30    23    22   am
    31    23    24    1
    32    22    26    2
    33    28    29    1
    34    30    29    1
