@<TRIPOS>MOLECULE
32044_out_ligand_01.pdbqt
 35 39 0 0 0
SMALL
GASTEIGER

@<TRIPOS>ATOM
      1  N         14.7020  -22.5240   -7.0160 N.1     1  UNL1       -0.1910
      2  C         15.7420  -22.5230   -7.5340 C.1     1  UNL1        0.1060
      3  C         17.0340  -22.5210   -8.1320 C.2     1  UNL1        0.1230
      4  C         18.1900  -22.5180   -7.4270 C.2     1  UNL1        0.0030
      5  C         19.4700  -22.5140   -8.1270 C.2     1  UNL1        0.0440
      6  C         19.5240  -22.5180   -9.4670 C.2     1  UNL1        0.0460
      7  N         18.3570  -22.5200  -10.1850 N.am    1  UNL1       -0.3220
      8  C         17.1030  -22.5260   -9.6250 C.2     1  UNL1        0.2670
      9  O         16.1010  -22.5340  -10.3330 O.2     1  UNL1       -0.2660
     10  H         18.3870  -22.5400  -11.1980 H       1  UNL1        0.1690
     11  C         18.1640  -22.5160   -5.9490 C.2     1  UNL1       -0.0240
     12  C         17.7580  -23.6600   -5.2500 C.2     1  UNL1        0.0120
     13  C         17.7220  -23.6540   -3.8550 C.2     1  UNL1        0.0010
     14  C         18.0870  -22.5060   -3.1530 C.2     1  UNL1        0.0000
     15  C         18.4860  -21.3620   -3.8430 C.2     1  UNL1        0.0010
     16  C         18.5230  -21.3640   -5.2370 C.2     1  UNL1        0.0120
     17  C         20.7990  -22.5040  -10.2010 C.2     1  UNL1       -0.0090
     18  C         20.8960  -21.9050  -11.4630 C.2     1  UNL1        0.0160
     19  C         22.1170  -21.8850  -12.1490 C.2     1  UNL1        0.0300
     20  C         23.2610  -22.4790  -11.6000 C.2     1  UNL1        0.0320
     21  C         23.1650  -23.0440  -10.3230 C.2     1  UNL1        0.0300
     22  C         21.9480  -23.0660   -9.6330 C.2     1  UNL1        0.0160
     23  N         24.4900  -22.4010  -12.2910 N.pl3   1  UNL1       -0.3550
     24  H         25.1240  -23.1530  -12.0240 H       1  UNL1        0.1660
     25  C         25.2540  -21.2370  -12.5860 C.2     1  UNL1        0.0460
     26  C         25.9720  -20.5780  -11.5860 C.2     1  UNL1        0.0490
     27  C         26.7570  -19.5000  -11.9400 C.2     1  UNL1        0.1190
     28  N         26.8900  -19.0490  -13.2020 N.2     1  UNL1       -0.2600
     29  C         26.2210  -19.6850  -14.1770 C.2     1  UNL1        0.0700
     30  C         26.3650  -19.2260  -15.4770 C.2     1  UNL1        0.0560
     31  C         25.3840  -20.7970  -13.9270 C.2     1  UNL1        0.0190
     32  C         25.7010  -19.8380  -16.5370 C.2     1  UNL1        0.0360
     33 CL         25.9070  -19.2390  -18.1380 Cl      1  UNL1       -0.0840
     34  C         24.8700  -20.9270  -16.3120 C.2     1  UNL1        0.0250
     35  C         24.7100  -21.4040  -15.0130 C.2     1  UNL1        0.0180
@<TRIPOS>BOND
     1    33    32    1
     2    32    34    1
     3    32    30    2
     4    34    35    2
     5    30    29    1
     6    35    31    1
     7    29    31    1
     8    29    28    2
     9    31    25    2
    10    28    27    1
    11    25    23    1
    12    25    26    1
    13    23    24    1
    14    23    20    1
    15    19    20    2
    16    19    18    1
    17    27    26    2
    18    20    21    1
    19    18    17    2
    20    10     7    1
    21     9     8    2
    22    21    22    2
    23    17    22    1
    24    17     6    1
    25     7     8   am
    26     7     6    1
    27     8     3    1
    28     6     5    2
    29     3     2    1
    30     3     4    2
    31     5     4    1
    32     2     1    3
    33     4    11    1
    34    11    12    2
    35    11    16    1
    36    12    13    1
    37    16    15    2
    38    13    14    2
    39    15    14    1
