@<TRIPOS>MOLECULE
32045_out_ligand_01.pdbqt
 27 29 0 0 0
SMALL
GASTEIGER

@<TRIPOS>ATOM
      1  N         20.5530  -22.1050   -9.4160 N.am    1  UNL1       -0.3220
      2  C         20.1350  -23.2400   -8.7430 C.2     1  UNL1        0.2560
      3  O         20.3340  -24.4030   -9.0630 O.2     1  UNL1       -0.2670
      4  H         20.2100  -21.2250   -9.0600 H       1  UNL1        0.1690
      5  C         21.3430  -22.0280  -10.5900 C.2     1  UNL1        0.0420
      6  C         22.6420  -22.5480  -10.6600 C.2     1  UNL1        0.0470
      7  C         23.4000  -22.4370  -11.8340 C.2     1  UNL1        0.0340
      8  C         22.8540  -21.8190  -12.9610 C.2     1  UNL1        0.0170
      9  C         21.5630  -21.3010  -12.9070 C.2     1  UNL1        0.0100
     10  C         20.7980  -21.3930  -11.7310 C.2     1  UNL1       -0.0350
     11  C         19.4080  -20.8100  -11.7430 C.3     1  UNL1        0.0500
     12  C         24.7710  -23.0090  -11.8590 C.2     1  UNL1        0.2490
     13  N         24.9750  -24.0950  -12.6670 N.am    1  UNL1       -0.3660
     14  H         24.3410  -24.3150  -13.4220 H       1  UNL1        0.1590
     15  H         25.9430  -24.3700  -12.7800 H       1  UNL1        0.1590
     16  O         25.6920  -22.5240  -11.2180 O.2     1  UNL1       -0.2680
     17  C         19.3300  -22.9760   -7.5160 C.2     1  UNL1        0.0350
     18  C         19.5840  -21.8730   -6.6880 C.2     1  UNL1        0.0200
     19  C         18.8110  -21.6700   -5.5420 C.2     1  UNL1        0.0400
     20  C         17.7770  -22.5530   -5.2280 C.2     1  UNL1        0.1020
     21  C         17.5380  -23.6660   -6.0390 C.2     1  UNL1        0.1030
     22  O         17.1200  -22.3240   -4.0510 O.2     1  UNL1       -0.3480
     23  C         18.3250  -23.8870   -7.1710 C.2     1  UNL1        0.0560
     24  O         16.6290  -24.6400   -5.7280 O.2     1  UNL1       -0.3480
     25  C         15.2910  -24.1450   -5.6840 C.3     1  UNL1        0.1780
     26  C         14.9790  -23.4690   -4.3590 C.3     1  UNL1        0.0530
     27  C         15.7160  -22.1440   -4.2350 C.3     1  UNL1        0.1780
@<TRIPOS>BOND
     1    14    13    1
     2     8     9    2
     3     8     7    1
     4     9    10    1
     5    15    13    1
     6    13    12   am
     7    12     7    1
     8    12    16    2
     9     7     6    2
    10    11    10    1
    11    10     5    2
    12     6     5    1
    13     5     1    1
    14     1     4    1
    15     1     2   am
    16     3     2    2
    17     2    17    1
    18    17    23    2
    19    17    18    1
    20    23    21    1
    21    18    19    2
    22    21    24    1
    23    21    20    2
    24    24    25    1
    25    25    26    1
    26    19    20    1
    27    20    22    1
    28    26    27    1
    29    27    22    1
