@<TRIPOS>MOLECULE
3204_out_ligand_01.pdbqt
 36 39 0 0 0
SMALL
GASTEIGER

@<TRIPOS>ATOM
      1  C         23.7510  -21.9490   -9.4930 C.3     1  UNL1        0.1250
      2  C         24.6920  -22.1160  -10.6710 C.2     1  UNL1        0.2230
      3  N         24.3040  -21.3720  -11.7750 N.am    1  UNL1       -0.3270
      4  H         23.4360  -20.8580  -11.6850 H       1  UNL1        0.1690
      5  O         25.6930  -22.8260  -10.5860 O.2     1  UNL1       -0.2730
      6  C         24.9600  -21.2760  -13.0180 C.2     1  UNL1        0.0350
      7  C         24.6400  -22.2290  -13.9910 C.2     1  UNL1        0.0490
      8  C         25.2160  -22.1910  -15.2790 C.2     1  UNL1        0.0670
      9  C         26.1530  -21.1850  -15.5890 C.2     1  UNL1        0.0840
     10  C         26.4900  -20.2540  -14.5980 C.2     1  UNL1        0.0400
     11  C         25.8960  -20.2980  -13.3310 C.2     1  UNL1        0.0320
     12  C         24.7450  -23.2470  -16.2400 C.2     1  UNL1        0.2540
     13  N         23.7410  -22.9100  -17.1170 N.am    1  UNL1       -0.3610
     14  C         23.2870  -23.8060  -18.1500 C.3     1  UNL1        0.1490
     15  H         23.4800  -21.9310  -17.1730 H       1  UNL1        0.1620
     16  O         25.2440  -24.3700  -16.2120 O.2     1  UNL1       -0.2680
     17  O         26.7040  -21.1790  -16.8520 O.2     1  UNL1       -0.3550
     18  C         26.3080  -20.1330  -17.7360 C.3     1  UNL1        0.2100
     19  C         22.8490  -23.1690   -9.3540 C.3     1  UNL1        0.1640
     20  N         21.4150  -22.8820   -9.4030 N.ar    1  UNL1       -0.2330
     21  N         20.7030  -23.0070   -8.2380 N.ar    1  UNL1       -0.1680
     22  C         19.4410  -22.6950   -8.2320 C.ar    1  UNL1        0.0980
     23  C         18.7150  -22.2140   -9.4270 C.ar    1  UNL1        0.0110
     24  C         17.3780  -21.7900   -9.3980 C.2     1  UNL1        0.0150
     25  C         19.4240  -22.1770  -10.6240 C.ar    1  UNL1        0.0460
     26  C         16.7620  -21.3460  -10.5730 C.2     1  UNL1        0.0010
     27  C         17.4660  -21.3370  -11.7750 C.2     1  UNL1        0.0010
     28  C         18.7980  -21.7480  -11.8020 C.2     1  UNL1        0.0180
     29  C         20.8480  -22.5520  -10.6350 C.ar    1  UNL1        0.2740
     30  O         21.4740  -22.5310  -11.6970 O.2     1  UNL1       -0.2660
     31  C         18.7320  -22.8400   -6.9420 C.2     1  UNL1       -0.0050
     32  C         18.0660  -24.0300   -6.6390 C.2     1  UNL1        0.0140
     33  C         17.4260  -24.1620   -5.4060 C.2     1  UNL1        0.0010
     34  C         17.4600  -23.1120   -4.4870 C.2     1  UNL1        0.0000
     35  C         18.1300  -21.9240   -4.7920 C.2     1  UNL1        0.0010
     36  C         18.7720  -21.7870   -6.0240 C.2     1  UNL1        0.0140
@<TRIPOS>BOND
     1    14    13    1
     2    18    17    1
     3    15    13    1
     4    13    12   am
     5    17     9    1
     6    12    16    2
     7    12     8    1
     8     9     8    2
     9     9    10    1
    10     8     7    1
    11    10    11    2
    12     7     6    2
    13    11     6    1
    14     6     3    1
    15    28    27    2
    16    28    25    1
    17    27    26    1
    18     3     4    1
    19     3     2   am
    20    30    29    2
    21     2     5    2
    22     2     1    1
    23    29    25   ar
    24    29    20   ar
    25    25    23   ar
    26    26    24    2
    27     1    19    1
    28    23    24    1
    29    23    22   ar
    30    20    19    1
    31    20    21   ar
    32    21    22   ar
    33    22    31    1
    34    31    32    2
    35    31    36    1
    36    32    33    1
    37    36    35    2
    38    33    34    2
    39    35    34    1
