@<TRIPOS>MOLECULE
32053_out_ligand_01.pdbqt
 35 38 0 0 0
SMALL
GASTEIGER

@<TRIPOS>ATOM
      1  C         20.0480  -22.9950   -8.4880 C.3     1  UNL1        0.1780
      2  C         21.3600  -23.7170   -8.8680 C.2     1  UNL1        0.2360
      3  N         22.4710  -22.8870   -8.8380 N.am    1  UNL1       -0.3560
      4  H         22.2720  -21.8870   -8.8590 H       1  UNL1        0.1620
      5  O         21.4460  -24.9090   -9.1600 O.2     1  UNL1       -0.2720
      6  C         23.7580  -23.3180   -9.3230 C.3     1  UNL1        0.1610
      7  C         24.1300  -22.6340  -10.6170 C.2     1  UNL1       -0.0400
      8  C         25.2290  -21.7600  -10.6650 C.2     1  UNL1        0.0100
      9  C         25.5740  -21.1140  -11.8530 C.2     1  UNL1        0.0250
     10  C         24.8240  -21.3590  -13.0100 C.2     1  UNL1        0.0740
     11  C         23.7270  -22.2210  -12.9790 C.2     1  UNL1        0.0250
     12  C         23.3830  -22.8560  -11.7850 C.2     1  UNL1        0.0100
     13  S         25.2700  -20.5440  -14.5190 S.O2    1  UNL1        0.2390
     14  O         25.7710  -19.2270  -14.2100 O.2     1  UNL1       -0.2060
     15  O         25.9980  -21.4810  -15.3420 O.2     1  UNL1       -0.2060
     16  N         23.7680  -20.3560  -15.2560 N.3     1  UNL1       -0.2250
     17  H         23.3450  -21.2770  -15.3860 H       1  UNL1        0.1360
     18  H         23.1530  -19.7170  -14.7530 H       1  UNL1        0.1360
     19  S         20.4180  -21.7140   -7.2090 S.3     1  UNL1       -0.0910
     20  C         19.0370  -21.9190   -6.1040 C.2     1  UNL1        0.0950
     21  C         19.0220  -21.2160   -4.9060 C.2     1  UNL1        0.0400
     22  C         17.9480  -21.3990   -4.0360 C.2     1  UNL1        0.0160
     23  C         16.9170  -22.2800   -4.3830 C.2     1  UNL1       -0.0070
     24  C         15.8070  -22.4960   -3.5450 C.2     1  UNL1        0.0140
     25  C         17.0210  -22.9590   -5.6170 C.2     1  UNL1        0.0680
     26  C         14.8000  -23.3800   -3.9280 C.2     1  UNL1        0.0010
     27  C         14.9000  -24.0540   -5.1410 C.2     1  UNL1        0.0020
     28  C         16.0060  -23.8380   -5.9710 C.2     1  UNL1        0.0320
     29  N         18.0620  -22.7900   -6.4580 N.2     1  UNL1       -0.2410
     30  C         19.3070  -22.3690   -9.6640 C.2     1  UNL1       -0.0350
     31  C         17.9010  -22.3630   -9.6800 C.2     1  UNL1        0.0090
     32  C         17.1960  -21.7740  -10.7340 C.2     1  UNL1        0.0010
     33  C         17.8860  -21.1750  -11.7850 C.2     1  UNL1        0.0000
     34  C         19.2790  -21.1710  -11.7870 C.2     1  UNL1        0.0010
     35  C         19.9840  -21.7630  -10.7350 C.2     1  UNL1        0.0090
@<TRIPOS>BOND
     1    17    16    1
     2    15    13    2
     3    16    18    1
     4    16    13    1
     5    13    14    2
     6    13    10    1
     7    10    11    2
     8    10     9    1
     9    11    12    1
    10     9     8    2
    11    34    33    2
    12    34    35    1
    13    33    32    1
    14    12     7    2
    15    35    30    2
    16    32    31    2
    17     8     7    1
    18     7     6    1
    19    31    30    1
    20    30     1    1
    21     6     3    1
    22     5     2    2
    23     2     3   am
    24     2     1    1
    25     4     3    1
    26     1    19    1
    27    19    20    1
    28    29    20    2
    29    29    25    1
    30    20    21    1
    31    28    25    1
    32    28    27    2
    33    25    23    2
    34    27    26    1
    35    21    22    2
    36    23    22    1
    37    23    24    1
    38    26    24    2
