@<TRIPOS>MOLECULE
32062_out_ligand_01.pdbqt
 24 27 0 0 0
SMALL
GASTEIGER

@<TRIPOS>ATOM
      1  C         23.3470  -22.8280  -10.8590 C.2     1  UNL1        0.1020
      2  C         22.8430  -22.0680  -11.9420 C.2     1  UNL1        0.1600
      3  N         21.5200  -21.8950  -11.8950 N.2     1  UNL1       -0.1770
      4  N         21.1640  -22.5600  -10.7760 N.pl3   1  UNL1       -0.2110
      5  C         22.2170  -23.1370  -10.1170 C.2     1  UNL1        0.1900
      6  N         22.0110  -23.8370   -8.9720 N.2     1  UNL1       -0.1280
      7  N         20.8630  -23.9830   -8.4750 N.2     1  UNL1       -0.1450
      8  C         19.7330  -23.4060   -9.1180 C.2     1  UNL1        0.1190
      9  C         18.4400  -23.5680   -8.5620 C.2     1  UNL1        0.0070
     10  C         18.2080  -24.2940   -7.3740 C.2     1  UNL1        0.0150
     11  C         16.9240  -24.4380   -6.8480 C.2     1  UNL1        0.0010
     12  C         15.8390  -23.8610   -7.4970 C.2     1  UNL1        0.0010
     13  C         16.0380  -23.1400   -8.6740 C.2     1  UNL1        0.0120
     14  C         17.3240  -22.9830   -9.2180 C.2     1  UNL1       -0.0230
     15  C         17.5080  -22.2530  -10.4040 C.2     1  UNL1        0.0140
     16  C         18.7750  -22.0900  -10.9540 C.2     1  UNL1        0.0350
     17  C         19.8600  -22.6690  -10.3010 C.2     1  UNL1        0.0920
     18  C         24.7040  -23.2340  -10.5450 C.2     1  UNL1        0.2710
     19  N         24.8460  -24.0080   -9.3940 N.am    1  UNL1       -0.2900
     20  H         24.0400  -24.3630   -8.8890 H       1  UNL1        0.1830
     21  O         25.6730  -22.9310  -11.2380 O.2     1  UNL1       -0.2660
     22  N         26.1230  -24.5080   -9.0370 N.3     1  UNL1       -0.2470
     23  H         26.8220  -23.9050   -9.4850 H       1  UNL1        0.1430
     24  H         26.2440  -25.4020   -9.5300 H       1  UNL1        0.1430
@<TRIPOS>BOND
     1     2     3    2
     2     2     1    1
     3     3     4    1
     4    21    18    2
     5    16    15    2
     6    16    17    1
     7     1    18    1
     8     1     5    2
     9     4    17    1
    10     4     5    1
    11    18    19   am
    12    15    14    1
    13    17     8    2
    14     5     6    1
    15    24    22    1
    16    23    22    1
    17    19    22    1
    18    19    20    1
    19    14    13    1
    20    14     9    2
    21     8     9    1
    22     8     7    1
    23     6     7    2
    24    13    12    2
    25     9    10    1
    26    12    11    1
    27    10    11    2
