@<TRIPOS>MOLECULE
32072_out_ligand_01.pdbqt
 33 35 0 0 0
SMALL
GASTEIGER

@<TRIPOS>ATOM
      1  C         20.7110  -23.9260   -8.7730 C.2     1  UNL1        0.2360
      2  O         20.7880  -25.1370   -8.9930 O.2     1  UNL1       -0.2720
      3  N         21.8330  -23.1270   -8.7390 N.am    1  UNL1       -0.3560
      4  H         21.6920  -22.1180   -8.6830 H       1  UNL1        0.1620
      5  C         19.3610  -23.2490   -8.4840 C.3     1  UNL1        0.1800
      6  S         18.2130  -24.4040   -7.6350 S.3     1  UNL1       -0.0710
      7  C         17.8910  -23.5100   -6.1450 C.2     1  UNL1        0.1900
      8  N         17.0250  -24.0530   -5.2700 N.2     1  UNL1       -0.2280
      9  C         16.7960  -23.3520   -4.1400 C.2     1  UNL1        0.0350
     10  C         17.4160  -22.1470   -3.8760 C.2     1  UNL1        0.0530
     11  C         15.8260  -23.9320   -3.1530 C.3     1  UNL1        0.0700
     12  C         18.2990  -21.6810   -4.8310 C.2     1  UNL1        0.0350
     13  C         19.0160  -20.3800   -4.6310 C.3     1  UNL1        0.0700
     14  N         18.5530  -22.3580   -5.9670 N.2     1  UNL1       -0.2280
     15  C         18.7490  -22.4460   -9.6250 C.2     1  UNL1       -0.0350
     16  C         17.3680  -22.1680   -9.6010 C.2     1  UNL1        0.0090
     17  C         16.7590  -21.4520  -10.6320 C.2     1  UNL1        0.0010
     18  C         17.5180  -20.9950  -11.7050 C.2     1  UNL1        0.0000
     19  C         18.8840  -21.2570  -11.7470 C.2     1  UNL1        0.0010
     20  C         19.4950  -21.9760  -10.7170 C.2     1  UNL1        0.0090
     21  C         23.1290  -23.5920   -9.1640 C.3     1  UNL1        0.1610
     22  C         23.5580  -22.8810  -10.4230 C.2     1  UNL1       -0.0400
     23  C         24.9130  -22.5770  -10.6340 C.2     1  UNL1        0.0100
     24  C         25.3260  -21.9600  -11.8150 C.2     1  UNL1        0.0250
     25  C         24.3780  -21.6400  -12.7890 C.2     1  UNL1        0.0740
     26  C         23.0290  -21.9540  -12.6050 C.2     1  UNL1        0.0250
     27  C         22.6230  -22.5750  -11.4240 C.2     1  UNL1        0.0100
     28  S         24.8910  -20.8600  -14.2960 S.O2    1  UNL1        0.2390
     29  O         25.4280  -21.8690  -15.1770 O.2     1  UNL1       -0.2060
     30  O         25.6050  -19.6480  -13.9710 O.2     1  UNL1       -0.2060
     31  N         23.4110  -20.3560  -14.9290 N.3     1  UNL1       -0.2250
     32  H         23.4170  -20.2860  -15.9460 H       1  UNL1        0.1360
     33  H         22.6830  -20.9920  -14.5980 H       1  UNL1        0.1360
@<TRIPOS>BOND
     1    32    31    1
     2    29    28    2
     3    31    33    1
     4    31    28    1
     5    28    30    2
     6    28    25    1
     7    25    26    2
     8    25    24    1
     9    26    27    1
    10    24    23    2
    11    19    18    2
    12    19    20    1
    13    18    17    1
    14    27    22    2
    15    20    15    2
    16    23    22    1
    17    17    16    2
    18    22    21    1
    19    15    16    1
    20    15     5    1
    21    21     3    1
    22     2     1    2
    23     1     3   am
    24     1     5    1
    25     3     4    1
    26     5     6    1
    27     6     7    1
    28     7    14    1
    29     7     8    2
    30    14    12    2
    31     8     9    1
    32    12    13    1
    33    12    10    1
    34     9    10    2
    35     9    11    1
