@<TRIPOS>MOLECULE
32076_out_ligand_01.pdbqt
 27 31 0 0 0
SMALL
GASTEIGER

@<TRIPOS>ATOM
      1  C         17.0270  -23.1630   -8.8780 C.2     1  UNL1        0.1730
      2  N         16.3060  -22.3240   -9.7290 N.2     1  UNL1       -0.2340
      3  C         17.1980  -21.8500  -10.5720 C.2     1  UNL1        0.2170
      4  N         18.4500  -22.3330  -10.3090 N.pl3   1  UNL1       -0.2850
      5  C         18.3650  -23.1740   -9.2280 C.2     1  UNL1        0.1920
      6  N         19.4670  -23.8000   -8.7430 N.2     1  UNL1       -0.1280
      7  N         20.6040  -23.6410   -9.2560 N.2     1  UNL1       -0.1450
      8  C         20.7610  -22.7830  -10.3800 C.2     1  UNL1        0.1170
      9  C         22.0440  -22.6070  -10.9540 C.2     1  UNL1        0.0070
     10  C         23.1970  -23.2540  -10.4580 C.2     1  UNL1        0.0150
     11  C         24.4500  -23.0620  -11.0440 C.2     1  UNL1        0.0010
     12  C         24.5790  -22.2190  -12.1400 C.2     1  UNL1        0.0010
     13  C         23.4580  -21.5670  -12.6530 C.2     1  UNL1        0.0120
     14  C         22.1910  -21.7490  -12.0750 C.2     1  UNL1       -0.0240
     15  C         21.0690  -21.0860  -12.6010 C.2     1  UNL1        0.0140
     16  C         19.8050  -21.2540  -12.0420 C.2     1  UNL1        0.0330
     17  C         19.6720  -22.0990  -10.9420 C.2     1  UNL1        0.0730
     18  C         16.3960  -23.8930   -7.7800 C.2     1  UNL1        0.2740
     19  O         15.5450  -24.7610   -7.9330 O.2     1  UNL1       -0.2660
     20  N         16.8800  -23.5010   -6.5490 N.am    1  UNL1       -0.3510
     21  H         17.6690  -22.8610   -6.5840 H       1  UNL1        0.1630
     22  C         16.5540  -24.1980   -5.3160 C.3     1  UNL1        0.0840
     23  C         17.6500  -23.9990   -4.2600 C.3     1  UNL1        0.0250
     24  C         17.6660  -22.5800   -3.6950 C.3     1  UNL1        0.0020
     25  C         16.2990  -22.1750   -3.1530 C.3     1  UNL1        0.0000
     26  C         15.2030  -22.3410   -4.2020 C.3     1  UNL1        0.0020
     27  C         15.1850  -23.7540   -4.7860 C.3     1  UNL1        0.0250
@<TRIPOS>BOND
     1    13    12    2
     2    13    14    1
     3    15    14    2
     4    15    16    1
     5    12    11    1
     6    14     9    1
     7    16    17    2
     8    11    10    2
     9     9    10    1
    10     9     8    2
    11    17     8    1
    12    17     4    1
    13     3     4    1
    14     3     2    2
    15     8     7    1
    16     4     5    1
    17     2     1    1
    18     7     6    2
    19     5     1    2
    20     5     6    1
    21     1    18    1
    22    19    18    2
    23    18    20   am
    24    21    20    1
    25    20    22    1
    26    22    27    1
    27    22    23    1
    28    27    26    1
    29    23    24    1
    30    26    25    1
    31    24    25    1
