@<TRIPOS>MOLECULE
32130_out_ligand_01.pdbqt
 34 38 0 0 0
SMALL
GASTEIGER

@<TRIPOS>ATOM
      1  O         23.0630  -22.2050   -8.7460 O.2     1  UNL1       -0.2730
      2  C         22.5070  -22.9860   -9.5130 C.2     1  UNL1        0.2240
      3  N         22.8920  -23.3040  -10.8020 N.am    1  UNL1       -0.3270
      4  H         22.2910  -23.9350  -11.3190 H       1  UNL1        0.1690
      5  C         21.2410  -23.6970   -9.0770 C.3     1  UNL1        0.1330
      6  C         20.1860  -22.6620   -8.6460 C.3     1  UNL1        0.1310
      7  C         19.1990  -23.1270   -7.5660 C.2     1  UNL1       -0.0240
      8  C         18.4920  -24.3360   -7.7340 C.2     1  UNL1        0.0100
      9  C         17.5930  -24.7870   -6.7720 C.2     1  UNL1        0.0020
     10  C         17.3750  -24.0400   -5.6210 C.2     1  UNL1        0.0120
     11  C         18.0420  -22.8260   -5.4170 C.2     1  UNL1       -0.0250
     12  C         17.7880  -22.0900   -4.2450 C.2     1  UNL1        0.0120
     13  C         18.9640  -22.3460   -6.3860 C.2     1  UNL1       -0.0180
     14  C         18.4240  -20.8750   -4.0050 C.2     1  UNL1        0.0010
     15  C         19.3240  -20.3820   -4.9380 C.2     1  UNL1        0.0010
     16  C         19.5890  -21.1060   -6.1070 C.2     1  UNL1        0.0130
     17  N         19.4590  -22.1590   -9.8270 N.pl3   1  UNL1       -0.3570
     18  C         18.1150  -22.3490  -10.0550 C.2     1  UNL1        0.0910
     19  C         17.7790  -21.7000  -11.2230 C.2     1  UNL1        0.0190
     20  C         18.9530  -21.0790  -11.7110 C.2     1  UNL1        0.0190
     21  C         19.9710  -21.3620  -10.8230 C.2     1  UNL1        0.0910
     22  C         23.9750  -22.7740  -11.5370 C.2     1  UNL1        0.0370
     23  C         25.3140  -23.0840  -11.2770 C.2     1  UNL1        0.0320
     24  C         26.3550  -22.5130  -12.0280 C.2     1  UNL1        0.0360
     25  C         26.0340  -21.6320  -13.0690 C.ar    1  UNL1        0.0850
     26  N         26.8550  -20.9610  -13.9400 N.ar    1  UNL1       -0.2310
     27  C         24.7000  -21.3450  -13.3220 C.ar    1  UNL1        0.0640
     28  C         26.0500  -20.2960  -14.7460 C.ar    1  UNL1        0.1280
     29  N         24.7360  -20.4810  -14.3880 N.ar    1  UNL1       -0.3410
     30  H         23.9370  -20.0520  -14.8420 H       1  UNL1        0.1670
     31  C         23.6460  -21.8800  -12.5750 C.2     1  UNL1        0.0610
     32  C         26.4480  -19.4080  -15.8680 C.3     1  UNL1        0.2420
     33  O         25.9490  -18.1100  -15.5690 O.3     1  UNL1       -0.3930
     34  H         26.7410  -17.5460  -15.4610 H       1  UNL1        0.2090
@<TRIPOS>BOND
     1    32    33    1
     2    32    28    1
     3    33    34    1
     4    30    29    1
     5    28    29   ar
     6    28    26   ar
     7    29    27   ar
     8    26    25   ar
     9    27    25   ar
    10    27    31    1
    11    25    24    1
    12    31    22    2
    13    24    23    2
    14    20    19    1
    15    20    21    2
    16    22    23    1
    17    22     3    1
    18     4     3    1
    19    19    18    2
    20    21    17    1
    21     3     2   am
    22    18    17    1
    23    17     6    1
    24     2     5    1
    25     2     1    2
    26     5     6    1
    27     6     7    1
    28     8     7    2
    29     8     9    1
    30     7    13    1
    31     9    10    2
    32    13    16    1
    33    13    11    2
    34    16    15    2
    35    10    11    1
    36    11    12    1
    37    15    14    1
    38    12    14    2
