@<TRIPOS>MOLECULE
32134_out_ligand_01.pdbqt
 35 38 0 0 0
SMALL
GASTEIGER

@<TRIPOS>ATOM
      1  N         20.8670  -23.5010   -9.7610 N.am    1  UNL1       -0.3050
      2  C         22.2510  -23.5140   -9.8110 C.2     1  UNL1        0.2490
      3  O         22.9460  -24.1130   -8.9910 O.2     1  UNL1       -0.2680
      4  C         22.9040  -22.7680  -10.8970 C.2     1  UNL1        0.0920
      5  C         22.2010  -21.9830  -11.7220 C.2     1  UNL1        0.0490
      6  C         20.7570  -21.7980  -11.5160 C.2     1  UNL1        0.0070
      7  C         20.0270  -20.8310  -12.2300 C.2     1  UNL1        0.0150
      8  C         18.6550  -20.6850  -12.0360 C.2     1  UNL1        0.0010
      9  C         18.0000  -21.4890  -11.1150 C.2     1  UNL1        0.0020
     10  C         18.7160  -22.4290  -10.3710 C.2     1  UNL1        0.0300
     11  C         20.0980  -22.5910  -10.5530 C.2     1  UNL1        0.0490
     12  C         20.2260  -24.3590   -8.7620 C.3     1  UNL1        0.2350
     13  C         19.5490  -23.5500   -7.6520 C.2     1  UNL1        0.2400
     14  O         20.1080  -22.5700   -7.1630 O.2     1  UNL1       -0.2710
     15  N         18.2740  -24.0020   -7.3510 N.am    1  UNL1       -0.3260
     16  H         17.9230  -24.7630   -7.9360 H       1  UNL1        0.1690
     17  C         17.4120  -23.5440   -6.3370 C.2     1  UNL1        0.0360
     18  C         17.8350  -23.7300   -5.0130 C.2     1  UNL1        0.0320
     19  C         17.0490  -23.2900   -3.9460 C.2     1  UNL1        0.0460
     20  C         15.8370  -22.6590   -4.2020 C.2     1  UNL1        0.1380
     21  F         15.0980  -22.2380   -3.1640 F       1  UNL1       -0.2040
     22  C         15.4080  -22.4650   -5.5100 C.2     1  UNL1        0.0740
     23 CL         13.9180  -21.6680   -5.8250 Cl      1  UNL1       -0.0810
     24  C         16.1930  -22.9060   -6.5800 C.2     1  UNL1        0.0560
     25  C         23.0060  -21.3660  -12.8110 C.2     1  UNL1        0.2530
     26  O         22.4740  -20.8510  -13.7870 O.2     1  UNL1       -0.2680
     27  N         24.3610  -21.3990  -12.5930 N.am    1  UNL1       -0.3530
     28  H         24.7210  -21.8840  -11.7820 H       1  UNL1        0.1630
     29  C         25.3010  -21.0290  -13.6240 C.3     1  UNL1        0.1610
     30  C         25.1600  -21.9390  -14.8160 C.2     1  UNL1       -0.0410
     31  C         25.2010  -23.3320  -14.6660 C.2     1  UNL1        0.0090
     32  C         25.0360  -24.1660  -15.7730 C.2     1  UNL1        0.0010
     33  C         24.8220  -23.6170  -17.0360 C.2     1  UNL1        0.0000
     34  C         24.7660  -22.2350  -17.1950 C.2     1  UNL1        0.0010
     35  C         24.9330  -21.4000  -16.0910 C.2     1  UNL1        0.0090
@<TRIPOS>BOND
     1    34    33    2
     2    34    35    1
     3    33    32    1
     4    35    30    2
     5    32    31    2
     6    30    31    1
     7    30    29    1
     8    26    25    2
     9    29    27    1
    10    25    27   am
    11    25     5    1
    12    27    28    1
    13     7     8    1
    14     7     6    2
    15     8     9    2
    16     5     6    1
    17     5     4    2
    18     6    11    1
    19     9    10    1
    20     4     2    1
    21    11    10    2
    22    11     1    1
    23     2     1   am
    24     2     3    2
    25     1    12    1
    26    12    13    1
    27    16    15    1
    28    13    15   am
    29    13    14    2
    30    15    17    1
    31    24    17    2
    32    24    22    1
    33    17    18    1
    34    23    22    1
    35    22    20    2
    36    18    19    2
    37    20    19    1
    38    20    21    1
