@<TRIPOS>MOLECULE
32133_out_ligand_01.pdbqt
 30 34 0 0 0
SMALL
GASTEIGER

@<TRIPOS>ATOM
      1  C         23.2870  -21.9840  -10.7220 C.3     1  UNL1        0.1350
      2  C         23.7950  -23.2720  -10.0290 C.3     1  UNL1        0.0320
      3  C         22.9580  -23.6520   -8.7940 C.3     1  UNL1        0.0070
      4  C         21.4810  -23.9040   -9.1570 C.3     1  UNL1        0.0420
      5  C         20.9600  -22.8150  -10.0320 C.ar    1  UNL1       -0.0210
      6  C         21.7960  -21.9710  -10.7360 C.ar    1  UNL1        0.0400
      7  N         21.0220  -21.0560  -11.3970 N.ar    1  UNL1       -0.3570
      8  C         19.6880  -21.3290  -11.1810 C.ar    1  UNL1        0.0430
      9  C         18.5470  -20.6800  -11.6710 C.2     1  UNL1        0.0330
     10  C         17.3030  -21.1760  -11.2720 C.2     1  UNL1        0.0440
     11  C         17.2180  -22.2690  -10.4200 C.2     1  UNL1        0.1170
     12  F         16.0110  -22.7200  -10.0540 F       1  UNL1       -0.2060
     13  C         18.3570  -22.9100   -9.9320 C.2     1  UNL1        0.0560
     14  C         19.6220  -22.4310  -10.3220 C.ar    1  UNL1        0.0020
     15  H         21.3740  -20.2960  -11.9630 H       1  UNL1        0.1660
     16  N         23.7420  -21.9300  -12.0940 N.am    1  UNL1       -0.3470
     17  C         24.9640  -21.3950  -12.4150 C.2     1  UNL1        0.2530
     18  O         25.6710  -20.7840  -11.6230 O.2     1  UNL1       -0.2680
     19  H         23.2200  -22.4650  -12.7720 H       1  UNL1        0.1630
     20  C         25.3770  -21.5570  -13.8430 C.2     1  UNL1        0.0480
     21  C         26.6920  -21.0850  -14.2720 C.2     1  UNL1        0.0220
     22  C         27.1210  -21.2290  -15.5390 C.2     1  UNL1        0.0540
     23  C         26.2180  -21.9000  -16.4960 C.ar    1  UNL1        0.1580
     24  N         26.4260  -22.1380  -17.7540 N.ar    1  UNL1       -0.1520
     25  N         25.0200  -22.3330  -16.0210 N.ar    1  UNL1       -0.2550
     26  N         25.2770  -22.7830  -18.1530 N.ar    1  UNL1       -0.2260
     27  C         24.3850  -22.9180  -17.0860 C.ar    1  UNL1        0.3480
     28  H         25.1310  -23.1090  -19.0990 H       1  UNL1        0.1940
     29  O         23.2840  -23.4410  -17.1210 O.2     1  UNL1       -0.2450
     30  C         24.5880  -22.1890  -14.7300 C.2     1  UNL1        0.1200
@<TRIPOS>BOND
     1    28    26    1
     2    26    24   ar
     3    26    27   ar
     4    24    23   ar
     5    29    27    2
     6    27    25   ar
     7    23    25   ar
     8    23    22    1
     9    25    30    1
    10    22    21    2
    11    30    20    2
    12    21    20    1
    13    20    17    1
    14    19    16    1
    15    17    16   am
    16    17    18    2
    17    16     1    1
    18    15     7    1
    19     9    10    1
    20     9     8    2
    21     7     8   ar
    22     7     6   ar
    23    10    11    2
    24     8    14   ar
    25     6     1    1
    26     6     5   ar
    27     1     2    1
    28    11    12    1
    29    11    13    1
    30    14     5   ar
    31    14    13    2
    32     5     4    1
    33     2     3    1
    34     4     3    1
