@<TRIPOS>MOLECULE
32132_out_ligand_01.pdbqt
 29 32 0 0 0
SMALL
GASTEIGER

@<TRIPOS>ATOM
      1  O         19.8900  -20.5940  -11.6630 O.2     1  UNL1       -0.2670
      2  C         20.4610  -21.6010  -11.2630 C.2     1  UNL1        0.2570
      3  N         19.9700  -22.5530  -10.3920 N.am    1  UNL1       -0.3230
      4  H         20.5350  -23.3810  -10.2430 H       1  UNL1        0.1690
      5  C         18.7210  -22.5490   -9.7340 C.2     1  UNL1        0.0370
      6  C         17.4930  -22.6500  -10.3890 C.2     1  UNL1        0.0290
      7  C         16.2980  -22.6300   -9.6620 C.2     1  UNL1        0.0040
      8  C         16.3240  -22.5140   -8.2740 C.2     1  UNL1        0.0300
      9  C         17.5450  -22.4400   -7.6060 C.2     1  UNL1        0.0470
     10  C         18.7380  -22.4250   -8.3370 C.2     1  UNL1        0.0590
     11  N         17.5170  -22.2290   -6.1820 N.pl3   1  UNL1       -0.2760
     12  C         18.7720  -21.6880   -5.5990 C.3     1  UNL1        0.1420
     13  C         18.4690  -21.0270   -4.2540 C.3     1  UNL1        0.0220
     14  C         17.8700  -21.9980   -3.2360 C.3     1  UNL1        0.0180
     15  C         16.5650  -22.6110   -3.7240 C.3     1  UNL1        0.1630
     16  S         16.7920  -23.4770   -5.2670 S.O2    1  UNL1        0.2330
     17  O         17.7730  -24.5250   -5.0670 O.2     1  UNL1       -0.2050
     18  O         15.4880  -23.7690   -5.8190 O.2     1  UNL1       -0.2050
     19  C         21.8290  -21.9200  -11.7830 C.2     1  UNL1        0.0480
     20  C         22.7240  -22.7720  -11.0060 C.2     1  UNL1        0.0220
     21  C         23.9500  -23.1040  -11.4510 C.2     1  UNL1        0.0540
     22  C         24.3650  -22.5850  -12.7700 C.ar    1  UNL1        0.1580
     23  N         25.4930  -22.7760  -13.3830 N.ar    1  UNL1       -0.1520
     24  N         23.4700  -21.8150  -13.4450 N.ar    1  UNL1       -0.2550
     25  N         25.3410  -22.0810  -14.5600 N.ar    1  UNL1       -0.2260
     26  C         24.0850  -21.4740  -14.6230 C.ar    1  UNL1        0.3480
     27  H         26.0610  -22.0370  -15.2680 H       1  UNL1        0.1940
     28  O         23.6520  -20.7880  -15.5350 O.2     1  UNL1       -0.2450
     29  C         22.2210  -21.4830  -12.9940 C.2     1  UNL1        0.1200
@<TRIPOS>BOND
     1    28    26    2
     2    27    25    1
     3    26    25   ar
     4    26    24   ar
     5    25    23   ar
     6    24    29    1
     7    24    22   ar
     8    23    22   ar
     9    29    19    2
    10    22    21    1
    11    19     2    1
    12    19    20    1
    13     1     2    2
    14    21    20    2
    15     2     3   am
    16     3     4    1
    17     3     5    1
    18     6     5    2
    19     6     7    1
    20     5    10    1
    21     7     8    2
    22    10     9    2
    23     8     9    1
    24     9    11    1
    25    11    12    1
    26    11    16    1
    27    18    16    2
    28    12    13    1
    29    16    17    2
    30    16    15    1
    31    13    14    1
    32    15    14    1
