@<TRIPOS>MOLECULE
32143_out_ligand_01.pdbqt
 29 32 0 0 0
SMALL
GASTEIGER

@<TRIPOS>ATOM
      1  O         22.8820  -21.1560  -10.0130 O.2     1  UNL1       -0.2670
      2  C         22.4460  -21.8760  -10.9020 C.2     1  UNL1        0.2570
      3  N         21.2490  -22.5640  -10.9140 N.am    1  UNL1       -0.3230
      4  H         21.0810  -23.1800  -11.6970 H       1  UNL1        0.1690
      5  C         20.2500  -22.5590   -9.9180 C.2     1  UNL1        0.0350
      6  C         18.9160  -22.2200  -10.1500 C.2     1  UNL1        0.0320
      7  C         17.9850  -22.2380   -9.1030 C.2     1  UNL1        0.0320
      8  C         18.3870  -22.5880   -7.8140 C.2     1  UNL1        0.0440
      9  C         19.7100  -22.9520   -7.5780 C.2     1  UNL1        0.0320
     10  C         20.6390  -22.9280   -8.6230 C.2     1  UNL1        0.0320
     11  N         17.4540  -22.6830   -6.7260 N.pl3   1  UNL1       -0.2760
     12  C         17.8910  -22.0360   -5.4610 C.3     1  UNL1        0.1420
     13  C         16.8820  -22.2390   -4.3270 C.3     1  UNL1        0.0220
     14  C         15.4550  -22.3970   -4.8420 C.3     1  UNL1        0.0180
     15  C         15.2560  -23.7140   -5.5860 C.3     1  UNL1        0.1630
     16  S         16.6730  -24.1870   -6.5700 S.O2    1  UNL1        0.2330
     17  O         16.1910  -24.6060   -7.8690 O.2     1  UNL1       -0.2050
     18  O         17.5210  -25.0440   -5.7680 O.2     1  UNL1       -0.2050
     19  C         23.2590  -22.1140  -12.1350 C.2     1  UNL1        0.0480
     20  C         22.9950  -21.4340  -13.4000 C.2     1  UNL1        0.0220
     21  C         23.7500  -21.6620  -14.4890 C.2     1  UNL1        0.0540
     22  C         24.8690  -22.6210  -14.3650 C.ar    1  UNL1        0.1580
     23  N         25.7050  -22.9870  -15.2880 N.ar    1  UNL1       -0.1520
     24  N         25.0660  -23.1940  -13.1500 N.ar    1  UNL1       -0.2550
     25  N         26.5300  -23.8750  -14.6360 N.ar    1  UNL1       -0.2260
     26  C         26.1510  -24.0230  -13.2980 C.ar    1  UNL1        0.3480
     27  H         27.3010  -24.3460  -15.0900 H       1  UNL1        0.1940
     28  O         26.6840  -24.7440  -12.4730 O.2     1  UNL1       -0.2450
     29  C         24.3020  -22.9590  -12.0400 C.2     1  UNL1        0.1200
@<TRIPOS>BOND
     1    23    25   ar
     2    23    22   ar
     3    27    25    1
     4    25    26   ar
     5    21    22    1
     6    21    20    2
     7    22    24   ar
     8    20    19    1
     9    26    24   ar
    10    26    28    2
    11    24    29    1
    12    19    29    2
    13    19     2    1
    14     4     3    1
    15     3     2   am
    16     3     5    1
    17     2     1    2
    18     6     5    2
    19     6     7    1
    20     5    10    1
    21     7     8    2
    22    10     9    2
    23    17    16    2
    24     8     9    1
    25     8    11    1
    26    11    16    1
    27    11    12    1
    28    16    18    2
    29    16    15    1
    30    15    14    1
    31    12    13    1
    32    14    13    1
