@<TRIPOS>MOLECULE
32144_out_ligand_01.pdbqt
 31 34 0 0 0
SMALL
GASTEIGER

@<TRIPOS>ATOM
      1  C         19.8740  -21.9220  -11.1180 C.2     1  UNL1        0.0390
      2  C         19.0050  -21.3310  -12.0520 C.2     1  UNL1        0.0300
      3  C         17.6460  -21.1520  -11.7730 C.2     1  UNL1        0.0030
      4  C         17.1210  -21.5690  -10.5520 C.2     1  UNL1        0.0170
      5  C         17.9600  -22.1770   -9.6130 C.2     1  UNL1        0.0340
      6  C         19.3250  -22.3410   -9.8950 C.2     1  UNL1        0.0470
      7  N         21.2710  -22.0830  -11.3970 N.pl3   1  UNL1       -0.3310
      8  C         21.8360  -21.6090  -12.5920 C.3     1  UNL1        0.1170
      9  C         23.1360  -21.6990  -12.9450 C.2     1  UNL1        0.0860
     10  C         24.0210  -22.3550  -11.9610 C.2     1  UNL1        0.1130
     11  N         25.3050  -22.5800  -11.9790 N.pl3   1  UNL1       -0.1460
     12  C         23.4270  -22.8610  -10.7190 C.2     1  UNL1        0.0660
     13  N         25.6630  -23.2630  -10.7360 N.2     1  UNL1       -0.1230
     14  C         24.5710  -23.4060  -10.0440 C.2     1  UNL1        0.1970
     15  C         22.1230  -22.7130  -10.4870 C.2     1  UNL1        0.1150
     16  C         23.5470  -21.1560  -14.2540 C.2     1  UNL1        0.2960
     17  O         23.4160  -21.7660  -15.3080 O.2     1  UNL1       -0.2590
     18  O         24.0880  -19.9250  -14.1290 O.3     1  UNL1       -0.3220
     19  C         25.4770  -19.8460  -14.4470 C.3     1  UNL1        0.2130
     20  O         24.4930  -23.9860   -8.8490 O.2     1  UNL1       -0.3430
     21  H         23.6490  -24.4280   -8.6850 H       1  UNL1        0.2190
     22  C         17.4590  -22.6350   -8.2880 C.2     1  UNL1        0.2560
     23  O         16.3490  -23.1510   -8.2380 O.2     1  UNL1       -0.2670
     24  N         18.3020  -22.3910   -7.2210 N.am    1  UNL1       -0.3220
     25  H         19.1320  -21.8410   -7.3960 H       1  UNL1        0.1690
     26  C         18.0760  -22.7530   -5.8750 C.2     1  UNL1        0.0520
     27  C         18.1860  -21.7530   -4.9050 C.2     1  UNL1        0.0320
     28  C         17.9790  -22.0580   -3.5610 C.2     1  UNL1        0.0210
     29  C         17.6690  -23.3630   -3.2230 C.2     1  UNL1        0.1160
     30  N         17.5570  -24.3590   -4.1250 N.2     1  UNL1       -0.2710
     31  C         17.7610  -24.0350   -5.4290 C.2     1  UNL1        0.1450
@<TRIPOS>BOND
     1    17    16    2
     2    19    18    1
     3    16    18    1
     4    16     9    1
     5     9     8    1
     6     9    10    2
     7     8     7    1
     8     2     3    1
     9     2     1    2
    10    11    10    1
    11    11    13    1
    12    10    12    1
    13     3     4    2
    14     7     1    1
    15     7    15    1
    16     1     6    1
    17    13    14    2
    18    12    15    2
    19    12    14    1
    20     4     5    1
    21    14    20    1
    22     6     5    2
    23     5    22    1
    24    20    21    1
    25    22    23    2
    26    22    24   am
    27    25    24    1
    28    24    26    1
    29    26    31    2
    30    26    27    1
    31    31    30    1
    32    27    28    2
    33    30    29    2
    34    28    29    1
