@<TRIPOS>MOLECULE
32160_out_ligand_01.pdbqt
 28 30 0 0 0
SMALL
GASTEIGER

@<TRIPOS>ATOM
      1  C         22.4830  -22.1310   -9.6750 C.2     1  UNL1        0.2260
      2  O         23.0000  -21.0240   -9.5220 O.2     1  UNL1       -0.2730
      3  N         22.5870  -22.9140  -10.8130 N.am    1  UNL1       -0.3270
      4  H         22.0900  -23.7970  -10.7990 H       1  UNL1        0.1690
      5  C         21.7220  -22.7720   -8.5160 C.3     1  UNL1        0.1440
      6  C         20.2320  -22.7720   -8.6680 C.2     1  UNL1       -0.0210
      7  C         19.3220  -23.3420   -7.8030 C.2     1  UNL1        0.1000
      8  N         18.0510  -23.1100   -8.2760 N.pl3   1  UNL1       -0.3510
      9  C         18.1180  -22.3830   -9.4490 C.2     1  UNL1        0.0450
     10  C         17.1180  -21.8880  -10.3050 C.2     1  UNL1        0.0300
     11  C         19.4750  -22.1710   -9.7230 C.2     1  UNL1       -0.0010
     12  C         17.5030  -21.1710  -11.4420 C.2     1  UNL1        0.0020
     13  C         18.8440  -20.9510  -11.7280 C.2     1  UNL1        0.0010
     14  C         19.8360  -21.4460  -10.8780 C.2     1  UNL1        0.0140
     15  C         16.8520  -23.5860   -7.5840 C.3     1  UNL1        0.0810
     16  C         17.1520  -24.7090   -6.5930 C.3     1  UNL1        0.0320
     17  C         16.0480  -22.4500   -6.9510 C.3     1  UNL1        0.0320
     18  C         23.2510  -22.6110  -12.0180 C.2     1  UNL1        0.0340
     19  C         22.6410  -21.6730  -12.8600 C.2     1  UNL1        0.0300
     20  C         23.2330  -21.3130  -14.0750 C.2     1  UNL1        0.0190
     21  C         24.4420  -21.8930  -14.4690 C.2     1  UNL1        0.0320
     22  C         25.0620  -22.8220  -13.6260 C.2     1  UNL1        0.0190
     23  C         24.4650  -23.1790  -12.4090 C.2     1  UNL1        0.0300
     24  C         25.0350  -21.4800  -15.7680 C.2     1  UNL1        0.2490
     25  N         24.4100  -20.4780  -16.4580 N.am    1  UNL1       -0.3660
     26  H         23.7430  -19.8590  -16.0200 H       1  UNL1        0.1590
     27  H         24.9000  -20.1300  -17.2730 H       1  UNL1        0.1590
     28  O         26.0640  -21.9850  -16.1960 O.2     1  UNL1       -0.2680
@<TRIPOS>BOND
     1    27    25    1
     2    25    26    1
     3    25    24   am
     4    28    24    2
     5    24    21    1
     6    21    20    2
     7    21    22    1
     8    20    19    1
     9    22    23    2
    10    19    18    2
    11    23    18    1
    12    18     3    1
    13    13    12    2
    14    13    14    1
    15    12    10    1
    16    14    11    2
    17     3     4    1
    18     3     1   am
    19    10     9    2
    20    11     9    1
    21    11     6    1
    22     1     2    2
    23     1     5    1
    24     9     8    1
    25     6     5    1
    26     6     7    2
    27     8     7    1
    28     8    15    1
    29    15    17    1
    30    15    16    1
