@<TRIPOS>MOLECULE
3217_out_ligand_01.pdbqt
 31 35 0 0 0
SMALL
GASTEIGER

@<TRIPOS>ATOM
      1  N         20.2200  -22.6760   -9.2940 N.am    1  UNL1       -0.2440
      2  C         19.8490  -21.9110  -10.3850 C.2     1  UNL1        0.2660
      3  O         18.8230  -21.3120  -10.6530 O.2     1  UNL1       -0.2670
      4  C         20.9770  -21.8970  -11.3110 C.2     1  UNL1        0.0480
      5  C         21.1210  -21.2730  -12.5370 C.2     1  UNL1        0.0210
      6  C         22.3410  -21.4380  -13.2030 C.2     1  UNL1        0.0380
      7  C         23.3650  -22.2280  -12.6370 C.2     1  UNL1        0.0770
      8  C         23.2000  -22.8310  -11.3870 C.2     1  UNL1        0.0550
      9  C         21.9850  -22.6490  -10.7540 C.2     1  UNL1        0.0510
     10  C         21.5070  -23.1470   -9.4700 C.2     1  UNL1        0.2660
     11  O         22.2200  -23.8490   -8.7750 O.2     1  UNL1       -0.2670
     12  C         19.3950  -22.9420   -8.1520 C.2     1  UNL1        0.0470
     13  C         19.3730  -22.0690   -7.0460 C.2     1  UNL1        0.0480
     14  C         18.5560  -22.3750   -5.9680 C.2     1  UNL1        0.0500
     15  C         18.3400  -21.6610   -4.7100 C.2     1  UNL1        0.2590
     16  C         17.7640  -23.5050   -5.9410 C.2     1  UNL1        0.0480
     17  N         17.4370  -22.3940   -4.0030 N.am    1  UNL1       -0.2890
     18  O         18.8740  -20.6210   -4.3860 O.2     1  UNL1       -0.2670
     19  C         17.0440  -23.5120   -4.6700 C.2     1  UNL1        0.2590
     20  H         17.1010  -22.1370   -3.0880 H       1  UNL1        0.1720
     21  O         16.2570  -24.3640   -4.3100 O.2     1  UNL1       -0.2670
     22  C         17.7450  -24.3900   -6.9920 C.2     1  UNL1        0.0200
     23  C         18.5660  -24.0980   -8.0930 C.2     1  UNL1        0.0310
     24  O         24.5950  -22.3830  -13.2390 O.2     1  UNL1       -0.3110
     25  C         25.2100  -21.2480  -13.7150 C.2     1  UNL1        0.0760
     26  C         25.8620  -20.3410  -12.8750 C.2     1  UNL1        0.0380
     27  C         26.4370  -19.1890  -13.4130 C.2     1  UNL1        0.0220
     28  C         26.3420  -18.9440  -14.7840 C.2     1  UNL1        0.0110
     29 BR         27.1210  -17.3830  -15.5130 Br      1  UNL1       -0.0510
     30  C         25.6710  -19.8360  -15.6200 C.2     1  UNL1        0.0220
     31  C         25.0960  -20.9880  -15.0810 C.2     1  UNL1        0.0380
@<TRIPOS>BOND
     1    30    31    1
     2    30    28    2
     3    29    28    1
     4    31    25    2
     5    28    27    1
     6    25    24    1
     7    25    26    1
     8    27    26    2
     9    24     7    1
    10     6     7    2
    11     6     5    1
    12     7     8    1
    13     5     4    2
    14     8     9    2
    15     4     9    1
    16     4     2    1
    17     9    10    1
    18     3     2    2
    19     2     1   am
    20    10     1   am
    21    10    11    2
    22     1    12    1
    23    12    23    2
    24    12    13    1
    25    23    22    1
    26    13    14    2
    27    22    16    2
    28    14    16    1
    29    14    15    1
    30    16    19    1
    31    15    18    2
    32    15    17   am
    33    19    21    2
    34    19    17   am
    35    17    20    1
