@<TRIPOS>MOLECULE
32206_out_ligand_01.pdbqt
 35 39 0 0 0
SMALL
GASTEIGER

@<TRIPOS>ATOM
      1  C         22.3290  -22.8200  -10.4800 C.2     1  UNL1        0.0980
      2  C         22.2320  -22.2140  -11.7500 C.2     1  UNL1        0.1600
      3  N         21.0180  -21.7370  -12.0220 N.2     1  UNL1       -0.1770
      4  N         20.2800  -22.0330  -10.9260 N.pl3   1  UNL1       -0.2100
      5  C         18.9370  -21.7490  -10.6970 C.2     1  UNL1        0.1460
      6  C         18.3630  -22.1250   -9.5390 C.2     1  UNL1        0.0690
      7  C         19.2470  -22.8420   -8.5740 C.2     1  UNL1        0.0720
      8  N         20.5070  -23.0940   -8.7660 N.2     1  UNL1       -0.2280
      9  C         21.0490  -22.7000   -9.9600 C.2     1  UNL1        0.1690
     10  C         23.4770  -23.4450   -9.8400 C.2     1  UNL1        0.2570
     11  O         23.4240  -24.0260   -8.7600 O.2     1  UNL1       -0.2670
     12  N         24.6570  -23.3270  -10.5420 N.am    1  UNL1       -0.3560
     13  H         24.7300  -22.6210  -11.2720 H       1  UNL1        0.1620
     14  C         25.9280  -23.7090   -9.9550 C.3     1  UNL1        0.1290
     15  C         27.0560  -23.7120  -10.9890 C.3     1  UNL1        0.0800
     16  C         26.5630  -23.4920  -12.3830 C.2     1  UNL1        0.0520
     17  C         26.7520  -22.4090  -13.2140 C.2     1  UNL1        0.1160
     18  N         26.0950  -22.7240  -14.3710 N.pl3   1  UNL1       -0.3590
     19  C         25.5400  -23.9610  -14.2080 C.2     1  UNL1        0.2070
     20  H         26.0290  -22.1510  -15.2020 H       1  UNL1        0.1660
     21  N         25.8010  -24.4530  -13.0190 N.2     1  UNL1       -0.2470
     22  C         18.6100  -23.2340   -7.2960 C.2     1  UNL1        0.0040
     23  C         17.9740  -24.4840   -7.2840 C.2     1  UNL1        0.0140
     24  C         17.4070  -24.9590   -6.1080 C.2     1  UNL1        0.0020
     25  C         17.4720  -24.1880   -4.9480 C.2     1  UNL1        0.0120
     26  C         18.0800  -22.9210   -4.9480 C.2     1  UNL1       -0.0250
     27  C         18.1140  -22.1540   -3.7730 C.2     1  UNL1        0.0120
     28  C         18.6530  -22.4120   -6.1400 C.2     1  UNL1       -0.0130
     29  C         18.6890  -20.8830   -3.7600 C.2     1  UNL1        0.0010
     30  C         19.2300  -20.3580   -4.9260 C.2     1  UNL1        0.0010
     31  C         19.2080  -21.1090   -6.1020 C.2     1  UNL1        0.0130
     32  C         18.2190  -21.0280  -11.7730 C.3     1  UNL1        0.4340
     33  F         17.5910  -21.8610  -12.6390 F       1  UNL1       -0.1650
     34  F         17.2420  -20.2250  -11.2620 F       1  UNL1       -0.1650
     35  F         19.0260  -20.2100  -12.4930 F       1  UNL1       -0.1650
@<TRIPOS>BOND
     1    20    18    1
     2    18    19    1
     3    18    17    1
     4    19    21    2
     5    17    16    2
     6    21    16    1
     7    33    32    1
     8    35    32    1
     9    16    15    1
    10     3     2    2
    11     3     4    1
    12    32    34    1
    13    32     5    1
    14     2     1    1
    15    13    12    1
    16    15    14    1
    17     4     5    1
    18     4     9    1
    19     5     6    2
    20    12    14    1
    21    12    10   am
    22     1     9    2
    23     1    10    1
    24     9     8    1
    25    10    11    2
    26     6     7    1
    27     8     7    2
    28     7    22    1
    29    22    23    2
    30    22    28    1
    31    23    24    1
    32    28    31    1
    33    28    26    2
    34    24    25    2
    35    31    30    2
    36    25    26    1
    37    26    27    1
    38    30    29    1
    39    27    29    2
