@<TRIPOS>MOLECULE
32213_out_ligand_01.pdbqt
 30 33 0 0 0
SMALL
GASTEIGER

@<TRIPOS>ATOM
      1  C         18.0040  -21.8830  -10.5880 C.2     1  UNL1        0.1430
      2  C         16.6900  -21.4480  -10.5050 C.2     1  UNL1        0.0450
      3  C         16.0520  -22.2350   -9.5140 C.2     1  UNL1        0.0380
      4  C         17.0030  -23.1080   -9.0380 C.2     1  UNL1        0.0780
      5  O         18.1830  -22.9010   -9.6870 O.2     1  UNL1       -0.3070
      6  C         19.1520  -21.4960  -11.4020 C.2     1  UNL1        0.2790
      7  O         19.0800  -20.6000  -12.2360 O.2     1  UNL1       -0.2650
      8  N         20.3040  -22.2230  -11.1330 N.am    1  UNL1       -0.3210
      9  H         20.2350  -22.9430  -10.4330 H       1  UNL1        0.1690
     10  C         21.5790  -22.0850  -11.7250 C.2     1  UNL1        0.0350
     11  C         21.8080  -21.4550  -12.9600 C.2     1  UNL1        0.0300
     12  C         23.1000  -21.3470  -13.4880 C.2     1  UNL1        0.0100
     13  C         24.1550  -21.8810  -12.7720 C.2     1  UNL1       -0.0520
     14  C         23.9410  -22.5090  -11.5430 C.2     1  UNL1       -0.0500
     15  C         25.6130  -21.8500  -13.1150 C.3     1  UNL1        0.0390
     16  C         22.6660  -22.6130  -11.0090 C.2     1  UNL1        0.0370
     17  C         25.2380  -22.9500  -10.9360 C.3     1  UNL1        0.0390
     18  C         26.1660  -22.9230  -12.1630 C.3     1  UNL1        0.0090
     19  C         16.9830  -24.1880   -8.0180 C.3     1  UNL1        0.2400
     20  O         18.1840  -24.0470   -7.2590 O.2     1  UNL1       -0.3390
     21  C         18.1980  -23.1090   -6.2540 C.2     1  UNL1        0.1520
     22  C         19.1610  -22.1020   -6.3950 C.2     1  UNL1        0.1910
     23  F         19.9900  -22.1110   -7.4480 F       1  UNL1       -0.2000
     24  C         19.2670  -21.0740   -5.4640 C.2     1  UNL1        0.1600
     25  F         20.1880  -20.1140   -5.6250 F       1  UNL1       -0.2030
     26  C         18.4190  -21.0230   -4.3660 C.2     1  UNL1        0.0910
     27  C         17.4700  -22.0230   -4.2120 C.2     1  UNL1        0.1600
     28  F         16.6470  -21.9870   -3.1530 F       1  UNL1       -0.2030
     29  C         17.3550  -23.0570   -5.1400 C.2     1  UNL1        0.1910
     30  F         16.4130  -23.9850   -4.9300 F       1  UNL1       -0.2000
@<TRIPOS>BOND
     1    12    11    1
     2    12    13    2
     3    15    13    1
     4    15    18    1
     5    11    10    2
     6    13    14    1
     7     7     6    2
     8    18    17    1
     9    10     8    1
    10    10    16    1
    11    14    16    2
    12    14    17    1
    13     6     8   am
    14     6     1    1
    15     8     9    1
    16     1     2    2
    17     1     5    1
    18     2     3    1
    19     5     4    1
    20     3     4    2
    21     4    19    1
    22    19    20    1
    23    23    22    1
    24    20    21    1
    25    22    21    2
    26    22    24    1
    27    21    29    1
    28    25    24    1
    29    24    26    2
    30    29    30    1
    31    29    27    2
    32    26    27    1
    33    27    28    1
