@<TRIPOS>MOLECULE
32215_out_ligand_01.pdbqt
 30 33 0 0 0
SMALL
GASTEIGER

@<TRIPOS>ATOM
      1  C         26.7990  -22.8830  -13.4660 C.3     1  UNL1        0.0480
      2  C         25.4280  -22.2710  -13.4510 C.2     1  UNL1       -0.0610
      3  C         25.0770  -21.3010  -14.3960 C.2     1  UNL1        0.0090
      4  C         23.7980  -20.7350  -14.4250 C.2     1  UNL1        0.0310
      5  C         22.8720  -21.1830  -13.4780 C.2     1  UNL1        0.0430
      6  N         21.5610  -20.8160  -13.2710 N.pl3   1  UNL1       -0.3520
      7  C         21.0230  -21.5220  -12.2250 C.2     1  UNL1        0.0890
      8  C         19.6770  -21.3460  -11.7890 C.2     1  UNL1        0.2230
      9  N         19.1390  -21.9950  -10.7770 N.2     1  UNL1       -0.2030
     10  C         17.8590  -21.5080  -10.7530 C.2     1  UNL1        0.1580
     11  N         17.5890  -20.5860  -11.6840 N.4     1  UNL1       -0.1110
     12  O         18.7940  -20.4790  -12.3800 O.2     1  UNL1       -0.1890
     13  C         22.0080  -22.3630  -11.7480 C.2     1  UNL1        0.0480
     14  C         23.1780  -22.1570  -12.5290 C.2     1  UNL1       -0.0070
     15  C         24.4730  -22.7130  -12.5190 C.2     1  UNL1        0.0200
     16  H         21.0700  -20.1220  -13.8190 H       1  UNL1        0.1660
     17  C         16.8610  -21.9470   -9.7490 C.3     1  UNL1        0.1030
     18  C         16.8730  -23.4580   -9.4890 C.3     1  UNL1        0.1330
     19  N         16.7630  -23.8340   -8.0700 N.am    1  UNL1       -0.3520
     20  C         15.4640  -24.3080   -7.6140 C.3     1  UNL1        0.1520
     21  C         17.8520  -24.0910   -7.2350 C.2     1  UNL1        0.2560
     22  O         17.7650  -24.6890   -6.1640 O.2     1  UNL1       -0.2670
     23  C         19.2020  -23.6730   -7.6450 C.2     1  UNL1        0.0700
     24  C         19.9820  -24.5570   -8.4010 C.2     1  UNL1        0.0230
     25  C         21.2810  -24.1920   -8.7610 C.2     1  UNL1        0.0430
     26  C         21.7890  -22.9620   -8.3470 C.2     1  UNL1        0.1190
     27  F         23.0350  -22.6170   -8.6960 F       1  UNL1       -0.2060
     28  C         21.0300  -22.0910   -7.5750 C.2     1  UNL1        0.0850
     29  C         19.7370  -22.4570   -7.2190 C.2     1  UNL1        0.1350
     30  F         19.0130  -21.6150   -6.4680 F       1  UNL1       -0.2050
@<TRIPOS>BOND
     1     4     3    1
     2     4     5    2
     3     3     2    2
     4    16     6    1
     5     5     6    1
     6     5    14    1
     7     1     2    1
     8     2    15    1
     9     6     7    1
    10    14    15    2
    11    14    13    1
    12    12     8    1
    13    12    11    1
    14     7     8    1
    15     7    13    2
    16     8     9    2
    17    11    10    1
    18     9    10    2
    19    10    17    1
    20    17    18    1
    21    18    19    1
    22    25    24    1
    23    25    26    2
    24    27    26    1
    25    24    23    2
    26    26    28    1
    27    19    20    1
    28    19    21   am
    29    23    21    1
    30    23    29    1
    31    28    29    2
    32    21    22    2
    33    29    30    1
