@<TRIPOS>MOLECULE
32264_out_ligand_01.pdbqt
 34 38 0 0 0
SMALL
GASTEIGER

@<TRIPOS>ATOM
      1  C         22.9600  -21.8170  -12.8830 C.2     1  UNL1        0.0350
      2  C         23.7260  -22.5670  -11.9780 C.2     1  UNL1        0.0310
      3  C         23.2010  -22.9460  -10.7390 C.2     1  UNL1        0.0270
      4  C         21.8970  -22.5790  -10.4070 C.2     1  UNL1        0.0790
      5  C         21.1310  -21.8140  -11.2880 C.2     1  UNL1        0.0270
      6  C         21.6620  -21.4420  -12.5280 C.2     1  UNL1        0.0310
      7  S         21.2100  -23.0380   -8.8380 S.O2    1  UNL1        0.2590
      8  O         21.2910  -24.4740   -8.6970 O.2     1  UNL1       -0.2010
      9  O         21.7920  -22.1560   -7.8490 O.2     1  UNL1       -0.2010
     10  N         19.6080  -22.5880   -8.9550 N.3     1  UNL1       -0.3050
     11  H         19.3750  -22.1680   -9.8540 H       1  UNL1        0.1730
     12  C         18.5120  -22.8820   -8.0190 C.3     1  UNL1        0.0410
     13  C         17.1900  -22.5450   -8.7610 C.3     1  UNL1        0.0360
     14  C         15.9700  -22.8790   -7.8870 C.3     1  UNL1       -0.0120
     15  C         16.0430  -22.0610   -6.5890 C.3     1  UNL1        0.0090
     16  C         15.9910  -24.3780   -7.5480 C.3     1  UNL1        0.0090
     17  C         17.3350  -22.3970   -5.8300 C.3     1  UNL1       -0.0120
     18  C         17.3530  -23.9000   -5.4980 C.3     1  UNL1        0.0090
     19  C         18.5490  -22.0590   -6.7160 C.3     1  UNL1        0.0360
     20  C         17.2830  -24.7270   -6.7930 C.3     1  UNL1       -0.0120
     21  C         18.4980  -24.3870   -7.6750 C.3     1  UNL1        0.0360
     22  N         23.5620  -21.4870  -14.1080 N.am    1  UNL1       -0.3220
     23  C         24.8990  -21.5320  -14.4510 C.2     1  UNL1        0.2790
     24  O         25.8250  -21.8940  -13.7380 O.2     1  UNL1       -0.2650
     25  H         22.9580  -21.1850  -14.8710 H       1  UNL1        0.1690
     26  C         25.1190  -21.1070  -15.8430 C.2     1  UNL1        0.1790
     27  C         24.8390  -21.8220  -17.0270 C.2     1  UNL1        0.1550
     28  C         25.1380  -20.9670  -18.0680 C.2     1  UNL1        0.1500
     29  N         25.6010  -19.8300  -17.4810 N.pl3   1  UNL1       -0.2820
     30  C         26.0520  -18.6320  -18.1520 C.3     1  UNL1        0.1790
     31  N         25.6240  -19.8830  -16.1330 N.2     1  UNL1       -0.1650
     32  N         24.3610  -23.1570  -17.1600 N.pl3   1  UNL1       -0.1120
     33  O         25.0440  -24.0430  -16.6310 O.2     1  UNL1       -0.5320
     34  O         23.2710  -23.3030  -17.7250 O.2     1  UNL1       -0.5320
@<TRIPOS>BOND
     1    30    29    1
     2    28    29    1
     3    28    27    2
     4    34    32    2
     5    29    31    1
     6    32    27    1
     7    32    33    2
     8    27    26    1
     9    31    26    2
    10    26    23    1
    11    25    22    1
    12    23    22   am
    13    23    24    2
    14    22     1    1
    15     1     6    2
    16     1     2    1
    17     6     5    1
    18     2     3    2
    19     5     4    2
    20     3     4    1
    21     4     7    1
    22    11    10    1
    23    10     7    1
    24    10    12    1
    25     7     8    2
    26     7     9    2
    27    13    12    1
    28    13    14    1
    29    12    21    1
    30    12    19    1
    31    14    16    1
    32    14    15    1
    33    21    20    1
    34    16    20    1
    35    20    18    1
    36    19    17    1
    37    15    17    1
    38    17    18    1
