@<TRIPOS>MOLECULE
32285_out_ligand_01.pdbqt
 30 33 0 0 0
SMALL
GASTEIGER

@<TRIPOS>ATOM
      1  C         20.6350  -22.3620   -7.5150 C.2     1  UNL1        0.0320
      2  C         20.5630  -23.4870   -8.3430 C.2     1  UNL1        0.0170
      3  C         21.6120  -23.7810   -9.2190 C.2     1  UNL1        0.0090
      4  C         22.7400  -22.9490   -9.2870 C.2     1  UNL1       -0.0480
      5  C         22.7990  -21.8160   -8.4630 C.2     1  UNL1        0.0090
      6  C         21.7510  -21.5210   -7.5890 C.2     1  UNL1        0.0170
      7  C         19.5490  -22.0070   -6.5610 C.2     1  UNL1        0.2520
      8  N         18.5200  -22.9180   -6.4360 N.am    1  UNL1       -0.3520
      9  H         18.5440  -23.7800   -6.9620 H       1  UNL1        0.1630
     10  O         19.6120  -20.9640   -5.9180 O.2     1  UNL1       -0.2680
     11  C         17.3690  -22.6630   -5.5830 C.3     1  UNL1        0.0880
     12  C         17.1800  -23.7960   -4.5720 C.3     1  UNL1        0.0250
     13  C         16.1160  -23.4510   -3.5290 C.3     1  UNL1        0.0020
     14  C         15.0970  -22.4180   -4.0140 C.3     1  UNL1        0.0050
     15  C         14.7900  -22.5830   -5.5060 C.3     1  UNL1       -0.0130
     16  C         16.0620  -22.3970   -6.3840 C.3     1  UNL1        0.0080
     17  C         13.6800  -21.6150   -5.9280 C.3     1  UNL1        0.0100
     18  C         15.9390  -23.2700   -7.6450 C.3     1  UNL1        0.0120
     19  C         23.8820  -23.2790  -10.2190 C.3     1  UNL1        0.1210
     20  S         24.6280  -21.7660  -10.9010 S.3     1  UNL1       -0.0870
     21  C         24.7960  -22.2260  -12.5520 C.ar    1  UNL1        0.1670
     22  N         25.0510  -23.4190  -13.0280 N.ar    1  UNL1       -0.2210
     23  C         25.0800  -23.2510  -14.3970 C.ar    1  UNL1        0.1030
     24  C         25.3000  -24.1720  -15.4230 C.2     1  UNL1        0.1500
     25  C         24.8380  -21.9200  -14.7370 C.ar    1  UNL1        0.0660
     26  N         25.2790  -23.7680  -16.7220 N.2     1  UNL1       -0.2710
     27  C         25.0420  -22.4630  -16.9980 C.2     1  UNL1        0.1180
     28  C         24.8100  -21.4720  -16.0540 C.2     1  UNL1        0.0510
     29  N         24.6640  -21.2890  -13.5320 N.ar    1  UNL1       -0.3330
     30  H         24.4660  -20.3120  -13.3800 H       1  UNL1        0.1680
@<TRIPOS>BOND
     1    27    26    2
     2    27    28    1
     3    26    24    1
     4    28    25    2
     5    24    23    2
     6    25    23   ar
     7    25    29   ar
     8    23    22   ar
     9    29    30    1
    10    29    21   ar
    11    22    21   ar
    12    21    20    1
    13    20    19    1
    14    19     4    1
    15     4     3    2
    16     4     5    1
    17     3     2    1
    18     5     6    2
    19     2     1    2
    20    18    16    1
    21     6     1    1
    22     1     7    1
    23     9     8    1
    24     7     8   am
    25     7    10    2
    26     8    11    1
    27    16    11    1
    28    16    15    1
    29    17    15    1
    30    11    12    1
    31    15    14    1
    32    12    13    1
    33    14    13    1
