@<TRIPOS>MOLECULE
32294_out_ligand_01.pdbqt
 31 34 0 0 0
SMALL
GASTEIGER

@<TRIPOS>ATOM
      1  C         18.1070  -21.8720  -10.6510 C.2     1  UNL1        0.1430
      2  C         16.7710  -21.5060  -10.6400 C.2     1  UNL1        0.0450
      3  C         16.1280  -22.3020   -9.6580 C.2     1  UNL1        0.0380
      4  C         17.1030  -23.1120   -9.1150 C.2     1  UNL1        0.0780
      5  O         18.2970  -22.8620   -9.7200 O.2     1  UNL1       -0.3070
      6  C         19.2710  -21.4300  -11.4120 C.2     1  UNL1        0.2790
      7  O         19.2130  -20.4860  -12.1940 O.2     1  UNL1       -0.2650
      8  N         20.4210  -22.1720  -11.1680 N.am    1  UNL1       -0.3210
      9  H         20.3420  -22.9250  -10.4980 H       1  UNL1        0.1690
     10  C         21.6960  -22.0190  -11.7560 C.2     1  UNL1        0.0370
     11  C         21.9160  -21.4950  -13.0330 C.2     1  UNL1        0.0320
     12  C         23.2150  -21.3920  -13.5450 C.2     1  UNL1        0.0420
     13  C         24.3000  -21.8190  -12.7870 C.2     1  UNL1        0.1020
     14  C         24.0940  -22.3180  -11.5000 C.2     1  UNL1        0.1040
     15  O         25.5400  -21.7150  -13.3640 O.2     1  UNL1       -0.3460
     16  C         22.7980  -22.4300  -10.9930 C.2     1  UNL1        0.0690
     17  O         25.1130  -22.7300  -10.6790 O.2     1  UNL1       -0.3460
     18  C         26.3860  -22.2810  -11.1620 C.3     1  UNL1        0.2020
     19  C         26.5050  -22.5040  -12.6600 C.3     1  UNL1        0.2020
     20  C         17.1020  -24.1610   -8.0620 C.3     1  UNL1        0.2400
     21  O         18.2930  -23.9740   -7.2970 O.2     1  UNL1       -0.3390
     22  C         18.2650  -23.0570   -6.2820 C.2     1  UNL1        0.1520
     23  C         17.4130  -23.0600   -5.1750 C.2     1  UNL1        0.1910
     24  F         16.4890  -24.0170   -5.0100 F       1  UNL1       -0.2000
     25  C         17.5000  -22.0520   -4.2110 C.2     1  UNL1        0.1600
     26  F         16.6750  -22.0700   -3.1560 F       1  UNL1       -0.2030
     27  C         18.4260  -21.0230   -4.3260 C.2     1  UNL1        0.0910
     28  C         19.2690  -21.0120   -5.4270 C.2     1  UNL1        0.1600
     29  F         20.1640  -20.0220   -5.5540 F       1  UNL1       -0.2030
     30  C         19.1910  -22.0140   -6.3940 C.2     1  UNL1        0.1910
     31  F         20.0220  -21.9660   -7.4470 F       1  UNL1       -0.2000
@<TRIPOS>BOND
     1    12    11    1
     2    12    13    2
     3    15    13    1
     4    15    19    1
     5    11    10    2
     6    13    14    1
     7    19    18    1
     8     7     6    2
     9    10     8    1
    10    10    16    1
    11    14    16    2
    12    14    17    1
    13     6     8   am
    14     6     1    1
    15     8     9    1
    16    18    17    1
    17     1     2    2
    18     1     5    1
    19     2     3    1
    20     5     4    1
    21     3     4    2
    22     4    20    1
    23    20    21    1
    24    31    30    1
    25    21    22    1
    26    30    22    2
    27    30    28    1
    28    22    23    1
    29    29    28    1
    30    28    27    2
    31    23    24    1
    32    23    25    2
    33    27    25    1
    34    25    26    1
