@<TRIPOS>MOLECULE
32309_out_ligand_01.pdbqt
 35 39 0 0 0
SMALL
GASTEIGER

@<TRIPOS>ATOM
      1  C         23.2340  -22.1480  -12.1010 C.2     1  UNL1        0.0350
      2  C         21.8400  -22.0490  -12.0960 C.2     1  UNL1        0.0310
      3  C         21.1150  -22.2620  -10.9170 C.2     1  UNL1        0.0270
      4  C         21.7900  -22.5700   -9.7360 C.2     1  UNL1        0.0790
      5  C         23.1790  -22.6850   -9.7230 C.2     1  UNL1        0.0270
      6  C         23.8950  -22.4690  -10.9040 C.2     1  UNL1        0.0310
      7  S         20.8590  -22.8480   -8.2470 S.O2    1  UNL1        0.2590
      8  O         21.3550  -21.9310   -7.2460 O.2     1  UNL1       -0.2010
      9  O         20.8060  -24.2740   -8.0180 O.2     1  UNL1       -0.2010
     10  N         19.3350  -22.3180   -8.7290 N.3     1  UNL1       -0.3050
     11  H         19.3380  -21.3640   -9.0880 H       1  UNL1        0.1730
     12  C         18.1130  -22.6890   -7.9760 C.3     1  UNL1        0.0410
     13  C         18.2490  -24.1930   -7.6230 C.3     1  UNL1        0.0360
     14  C         17.0030  -24.6900   -6.8710 C.3     1  UNL1       -0.0120
     15  C         16.8420  -23.8790   -5.5760 C.3     1  UNL1        0.0090
     16  C         15.7650  -24.4850   -7.7580 C.3     1  UNL1        0.0090
     17  C         16.6890  -22.3860   -5.9080 C.3     1  UNL1       -0.0120
     18  C         15.4530  -22.1880   -6.8010 C.3     1  UNL1        0.0090
     19  C         17.9400  -21.9000   -6.6620 C.3     1  UNL1        0.0360
     20  C         15.6050  -22.9950   -8.1040 C.3     1  UNL1       -0.0120
     21  C         16.8580  -22.5100   -8.8560 C.3     1  UNL1        0.0360
     22  N         24.0450  -21.9490  -13.2400 N.am    1  UNL1       -0.3220
     23  C         23.8090  -21.1240  -14.3210 C.2     1  UNL1        0.2770
     24  O         22.7960  -20.4430  -14.4480 O.2     1  UNL1       -0.2660
     25  H         24.8990  -22.4990  -13.2480 H       1  UNL1        0.1690
     26  C         24.8320  -21.1150  -15.3550 C.ar    1  UNL1        0.1550
     27  N         25.7970  -20.1280  -15.4320 N.ar    1  UNL1       -0.2660
     28  N         26.6880  -20.2970  -16.4270 N.ar    1  UNL1       -0.1750
     29  C         25.9250  -18.9520  -14.5940 C.3     1  UNL1        0.1800
     30  C         26.3260  -21.4440  -17.0070 C.ar    1  UNL1        0.0860
     31  C         27.1100  -21.9730  -18.1530 C.3     1  UNL1        0.0750
     32  C         25.1740  -21.9880  -16.3880 C.ar    1  UNL1        0.1620
     33  N         24.5390  -23.2130  -16.7590 N.pl3   1  UNL1       -0.1110
     34  O         24.9170  -24.2350  -16.1720 O.2     1  UNL1       -0.5320
     35  O         23.6520  -23.1550  -17.6160 O.2     1  UNL1       -0.5320
@<TRIPOS>BOND
     1    31    30    1
     2    35    33    2
     3    30    28   ar
     4    30    32   ar
     5    33    32    1
     6    33    34    2
     7    28    27   ar
     8    32    26   ar
     9    27    26   ar
    10    27    29    1
    11    26    23    1
    12    24    23    2
    13    23    22   am
    14    25    22    1
    15    22     1    1
    16     1     2    2
    17     1     6    1
    18     2     3    1
    19     3     4    2
    20     6     5    2
    21     4     5    1
    22     4     7    1
    23    11    10    1
    24    21    20    1
    25    21    12    1
    26    10     7    1
    27    10    12    1
    28     7     9    2
    29     7     8    2
    30    20    16    1
    31    20    18    1
    32    12    13    1
    33    12    19    1
    34    16    14    1
    35    13    14    1
    36    14    15    1
    37    18    17    1
    38    19    17    1
    39    17    15    1
