@<TRIPOS>MOLECULE
32324_out_ligand_01.pdbqt
 34 38 0 0 0
SMALL
GASTEIGER

@<TRIPOS>ATOM
      1  C         20.9010  -21.5960  -11.8580 C.2     1  UNL1        0.0340
      2  C         20.1210  -20.4970  -12.2330 C.2     1  UNL1        0.0170
      3  C         18.8750  -20.3050  -11.6430 C.2     1  UNL1        0.0030
      4  C         18.4050  -21.2080  -10.6830 C.2     1  UNL1        0.0300
      5  C         19.1610  -22.3260  -10.3050 C.2     1  UNL1        0.0430
      6  C         20.4100  -22.5150  -10.9190 C.2     1  UNL1        0.0460
      7  N         18.6890  -23.2610   -9.3160 N.am    1  UNL1       -0.2670
      8  C         17.3250  -23.5600   -9.2870 C.2     1  UNL1        0.3260
      9  O         16.4720  -23.1540  -10.0730 O.2     1  UNL1       -0.2470
     10  N         16.8930  -24.3710   -8.2770 N.am    1  UNL1       -0.3340
     11  C         17.6860  -24.6900   -7.1240 C.3     1  UNL1        0.1270
     12  H         15.8840  -24.4350   -8.2300 H       1  UNL1        0.1650
     13  C         19.0760  -25.0290   -7.5930 C.3     1  UNL1        0.0920
     14  C         17.7370  -23.5230   -6.1790 C.2     1  UNL1       -0.0000
     15  C         19.5970  -23.7370   -8.2390 C.3     1  UNL1        0.1490
     16  C         21.0100  -24.0840   -8.7610 C.3     1  UNL1        0.0720
     17  O         19.7680  -22.7090   -7.2360 O.2     1  UNL1       -0.3190
     18  C         18.7750  -22.5940   -6.3010 C.2     1  UNL1        0.0800
     19  C         18.8490  -21.4960   -5.4450 C.2     1  UNL1        0.0390
     20  C         17.8700  -21.3090   -4.4680 C.2     1  UNL1        0.0260
     21  C         16.8220  -22.2220   -4.3550 C.2     1  UNL1        0.0340
     22 CL         15.6130  -21.9900   -3.1530 Cl      1  UNL1       -0.0840
     23  C         16.7480  -23.3260   -5.2050 C.2     1  UNL1        0.0350
     24  C         22.2530  -21.8250  -12.4460 C.2     1  UNL1        0.2560
     25  N         23.0740  -22.6530  -11.6980 N.am    1  UNL1       -0.3230
     26  H         22.6580  -23.1060  -10.8960 H       1  UNL1        0.1690
     27  O         22.5170  -21.3150  -13.5260 O.2     1  UNL1       -0.2670
     28  C         24.4090  -23.0160  -11.9750 C.2     1  UNL1        0.0350
     29  C         25.3640  -22.7320  -10.9930 C.2     1  UNL1        0.0290
     30  C         26.7090  -23.0480  -11.1950 C.2     1  UNL1        0.0030
     31  C         27.1130  -23.6550  -12.3820 C.2     1  UNL1        0.0070
     32  C         26.1710  -23.9570  -13.3710 C.2     1  UNL1       -0.0600
     33  C         26.6000  -24.5790  -14.6680 C.3     1  UNL1        0.0480
     34  C         24.8220  -23.6220  -13.1640 C.2     1  UNL1        0.0360
@<TRIPOS>BOND
     1    33    32    1
     2    27    24    2
     3    32    34    1
     4    32    31    2
     5    34    28    2
     6    24     1    1
     7    24    25   am
     8    31    30    1
     9     2     1    2
    10     2     3    1
    11    28    25    1
    12    28    29    1
    13     1     6    1
    14    25    26    1
    15     3     4    2
    16    30    29    2
    17     6     5    2
    18     4     5    1
    19     5     7    1
    20     9     8    2
    21     7     8   am
    22     7    15    1
    23     8    10   am
    24    16    15    1
    25    10    12    1
    26    10    11    1
    27    15    13    1
    28    15    17    1
    29    13    11    1
    30    17    18    1
    31    11    14    1
    32    18    14    2
    33    18    19    1
    34    14    23    1
    35    19    20    2
    36    23    21    2
    37    20    21    1
    38    21    22    1
