@<TRIPOS>MOLECULE
32330_out_ligand_01.pdbqt
 35 39 0 0 0
SMALL
GASTEIGER

@<TRIPOS>ATOM
      1  C         23.1600  -22.5680  -11.3200 C.2     1  UNL1        0.2110
      2  N         22.7230  -21.7710  -12.3350 N.2     1  UNL1       -0.1220
      3  N         21.4400  -21.4180  -12.4240 N.pl3   1  UNL1       -0.1430
      4  C         20.6160  -21.8990  -11.4620 C.ar    1  UNL1        0.1370
      5  C         19.2260  -21.7350  -11.2390 C.ar    1  UNL1        0.0250
      6  C         18.2020  -21.0390  -11.9150 C.2     1  UNL1        0.0160
      7  C         16.8940  -21.0880  -11.4200 C.2     1  UNL1        0.0010
      8  C         16.5970  -21.8180  -10.2690 C.2     1  UNL1        0.0020
      9  C         17.5940  -22.5120   -9.5800 C.2     1  UNL1        0.0300
     10  C         18.9090  -22.4570  -10.0790 C.ar    1  UNL1        0.0490
     11  N         20.0830  -23.0370   -9.6270 N.ar    1  UNL1       -0.3290
     12  C         21.1200  -22.7080  -10.4610 C.ar    1  UNL1        0.1650
     13  N         22.4050  -23.0900  -10.3350 N.pl3   1  UNL1       -0.2010
     14  S         24.9020  -22.9010  -11.2370 S.3     1  UNL1       -0.0790
     15  C         25.4930  -21.2110  -10.9190 C.3     1  UNL1        0.1850
     16  C         26.1580  -20.6180  -12.1510 C.2     1  UNL1        0.2270
     17  N         25.5720  -20.9910  -13.3450 N.am    1  UNL1       -0.3520
     18  H         24.8390  -21.6890  -13.3400 H       1  UNL1        0.1630
     19  O         27.1190  -19.8600  -12.0780 O.2     1  UNL1       -0.2730
     20  C         26.1360  -20.6290  -14.6350 C.3     1  UNL1        0.1130
     21  C         25.9600  -19.1290  -14.8850 C.3     1  UNL1        0.0370
     22  C         25.5200  -21.4980  -15.7180 C.2     1  UNL1       -0.0360
     23  C         25.1720  -22.8440  -15.5000 C.2     1  UNL1        0.0090
     24  C         24.6380  -23.6210  -16.5320 C.2     1  UNL1        0.0010
     25  C         24.4580  -23.0700  -17.8000 C.2     1  UNL1        0.0000
     26  C         24.8110  -21.7420  -18.0360 C.2     1  UNL1        0.0010
     27  C         25.3420  -20.9650  -17.0050 C.2     1  UNL1        0.0090
     28  C         20.2420  -23.8460   -8.4270 C.3     1  UNL1        0.1350
     29  C         18.9490  -24.0180   -7.6280 C.3     1  UNL1        0.0580
     30  C         18.7830  -22.9840   -6.5420 C.2     1  UNL1       -0.0570
     31  C         17.8330  -23.1680   -5.5260 C.2     1  UNL1        0.0070
     32  C         17.7020  -22.2290   -4.5020 C.2     1  UNL1        0.0010
     33  C         18.5210  -21.1000   -4.4840 C.2     1  UNL1        0.0000
     34  C         19.4680  -20.9080   -5.4910 C.2     1  UNL1        0.0010
     35  C         19.5970  -21.8430   -6.5170 C.2     1  UNL1        0.0070
@<TRIPOS>BOND
     1    26    25    2
     2    26    27    1
     3    25    24    1
     4    27    22    2
     5    24    23    2
     6    22    23    1
     7    22    20    1
     8    21    20    1
     9    20    17    1
    10    17    18    1
    11    17    16   am
    12     3     2    1
    13     3     4    1
    14     2     1    2
    15    16    19    2
    16    16    15    1
    17     6     7    1
    18     6     5    2
    19     4     5   ar
    20     4    12   ar
    21     7     8    2
    22     1    14    1
    23     1    13    1
    24     5    10   ar
    25    14    15    1
    26    12    13    1
    27    12    11   ar
    28     8     9    1
    29    10    11   ar
    30    10     9    2
    31    11    28    1
    32    28    29    1
    33    29    30    1
    34    30    35    2
    35    30    31    1
    36    35    34    1
    37    31    32    2
    38    34    33    2
    39    32    33    1
