@<TRIPOS>MOLECULE
32360_out_ligand_01.pdbqt
 36 39 0 0 0
SMALL
GASTEIGER

@<TRIPOS>ATOM
      1  C         18.3200  -23.2460   -9.0100 C.2     1  UNL1        0.0800
      2  C         19.3910  -23.9600   -8.4710 C.2     1  UNL1        0.0270
      3  C         20.6830  -23.7290   -8.9500 C.2     1  UNL1        0.0310
      4  C         20.9150  -22.7830   -9.9610 C.2     1  UNL1        0.0350
      5  C         19.8360  -22.0620  -10.4760 C.2     1  UNL1        0.0310
      6  C         18.5400  -22.2820   -9.9970 C.2     1  UNL1        0.0270
      7  N         22.2470  -22.6190  -10.3850 N.am    1  UNL1       -0.3210
      8  C         23.2210  -21.7860   -9.8650 C.2     1  UNL1        0.2790
      9  O         23.0760  -21.0190   -8.9190 O.2     1  UNL1       -0.2650
     10  H         22.5540  -23.1860  -11.1700 H       1  UNL1        0.1690
     11  C         24.4860  -21.9080  -10.5690 C.2     1  UNL1        0.1430
     12  C         25.5420  -21.0280  -10.7100 C.2     1  UNL1        0.0450
     13  C         26.5210  -21.6850  -11.4940 C.2     1  UNL1        0.0370
     14  C         26.0100  -22.9310  -11.7910 C.2     1  UNL1        0.0730
     15  O         24.7700  -23.0680  -11.2420 O.2     1  UNL1       -0.3080
     16  C         26.5250  -24.0890  -12.5650 C.3     1  UNL1        0.2150
     17  N         25.9450  -24.1110  -13.9030 N.pl3   1  UNL1       -0.2730
     18  C         25.8400  -23.0520  -14.7660 C.2     1  UNL1        0.1500
     19  C         25.2080  -23.5440  -15.8890 C.2     1  UNL1        0.1390
     20  C         24.9560  -24.8970  -15.6050 C.2     1  UNL1        0.1760
     21  N         25.3900  -25.2470  -14.3880 N.2     1  UNL1       -0.1820
     22  N         24.8800  -22.8260  -17.0800 N.pl3   1  UNL1       -0.1130
     23  O         24.2710  -21.7570  -16.9430 O.2     1  UNL1       -0.5320
     24  O         25.2280  -23.3360  -18.1520 O.2     1  UNL1       -0.5320
     25  S         16.6750  -23.5160   -8.3870 S.O2    1  UNL1        0.2630
     26  O         15.7630  -23.3920   -9.5070 O.2     1  UNL1       -0.2000
     27  O         16.6950  -24.7110   -7.5720 O.2     1  UNL1       -0.2000
     28  N         16.3950  -22.1640   -7.4180 N.pl3   1  UNL1       -0.2800
     29  H         16.7570  -21.3080   -7.8310 H       1  UNL1        0.1790
     30  C         16.3950  -22.2860   -5.9980 C.2     1  UNL1        0.0480
     31  C         15.2300  -22.7020   -5.3440 C.2     1  UNL1        0.0300
     32  C         15.2150  -22.8560   -3.9580 C.2     1  UNL1        0.0020
     33  C         16.3640  -22.5910   -3.2190 C.2     1  UNL1        0.0010
     34  C         17.5250  -22.1640   -3.8650 C.2     1  UNL1        0.0090
     35  C         17.5570  -22.0060   -5.2590 C.2     1  UNL1       -0.0350
     36  C         18.8250  -21.5350   -5.9130 C.3     1  UNL1        0.0500
@<TRIPOS>BOND
     1    24    22    2
     2    22    23    2
     3    22    19    1
     4    19    20    1
     5    19    18    2
     6    20    21    2
     7    18    17    1
     8    21    17    1
     9    17    16    1
    10    16    14    1
    11    14    13    2
    12    14    15    1
    13    13    12    1
    14    15    11    1
    15    10     7    1
    16    12    11    2
    17    11     8    1
    18     5     6    1
    19     5     4    2
    20     7     4    1
    21     7     8   am
    22     6     1    2
    23     4     3    1
    24     8     9    2
    25    26    25    2
    26     1     2    1
    27     1    25    1
    28     3     2    2
    29    25    27    2
    30    25    28    1
    31    29    28    1
    32    28    30    1
    33    30    31    2
    34    30    35    1
    35    36    35    1
    36    31    32    1
    37    35    34    2
    38    32    33    2
    39    34    33    1
