@<TRIPOS>MOLECULE
32362_out_ligand_01.pdbqt
 37 40 0 0 0
SMALL
GASTEIGER

@<TRIPOS>ATOM
      1  N         22.3690  -22.8530  -10.5020 N.am    1  UNL1       -0.3210
      2  C         23.3460  -21.9630  -10.0750 C.2     1  UNL1        0.2790
      3  O         23.1740  -21.1160   -9.2050 O.2     1  UNL1       -0.2650
      4  H         22.6250  -23.4880  -11.2440 H       1  UNL1        0.1690
      5  C         21.0430  -22.9730  -10.0350 C.2     1  UNL1        0.0350
      6  C         19.9490  -22.2990  -10.5870 C.2     1  UNL1        0.0310
      7  C         18.6630  -22.4760  -10.0640 C.2     1  UNL1        0.0270
      8  C         18.4660  -23.3430   -8.9890 C.2     1  UNL1        0.0800
      9  C         19.5500  -24.0040   -8.4100 C.2     1  UNL1        0.0270
     10  C         20.8310  -23.8210   -8.9380 C.2     1  UNL1        0.0310
     11  S         16.8340  -23.5550   -8.3150 S.O2    1  UNL1        0.2630
     12  O         16.8880  -24.6670   -7.3890 O.2     1  UNL1       -0.2000
     13  O         15.8950  -23.5480   -9.4150 O.2     1  UNL1       -0.2000
     14  N         16.6220  -22.1740   -7.3700 N.pl3   1  UNL1       -0.2800
     15  H         16.0210  -21.4860   -7.8210 H       1  UNL1        0.1790
     16  C         16.6000  -22.2710   -5.9500 C.2     1  UNL1        0.0480
     17  C         15.4290  -22.6840   -5.3060 C.2     1  UNL1        0.0300
     18  C         15.3790  -22.7660   -3.9140 C.2     1  UNL1        0.0020
     19  C         16.5010  -22.4410   -3.1600 C.2     1  UNL1        0.0010
     20  C         17.6760  -22.0400   -3.7960 C.2     1  UNL1        0.0090
     21  C         17.7430  -21.9540   -5.1960 C.2     1  UNL1       -0.0350
     22  C         19.0330  -21.5290   -5.8400 C.3     1  UNL1        0.0500
     23  C         24.6240  -22.1090  -10.7640 C.2     1  UNL1        0.1430
     24  C         25.6160  -23.0780  -10.7620 C.2     1  UNL1        0.0450
     25  C         26.6230  -22.6450  -11.6590 C.2     1  UNL1        0.0380
     26  C         26.2000  -21.4350  -12.1630 C.2     1  UNL1        0.0780
     27  O         24.9960  -21.1040  -11.6210 O.2     1  UNL1       -0.3070
     28  C         26.7750  -20.4720  -13.1360 C.3     1  UNL1        0.2400
     29  O         25.6870  -19.8320  -13.8120 O.2     1  UNL1       -0.3430
     30  C         25.5380  -20.1790  -15.1310 C.2     1  UNL1        0.0920
     31  C         25.0370  -21.4250  -15.5190 C.2     1  UNL1        0.0620
     32  C         24.9500  -21.7460  -16.8740 C.2     1  UNL1        0.0360
     33 CL         24.3320  -23.2790  -17.3510 Cl      1  UNL1       -0.0840
     34  C         25.3700  -20.8410  -17.8480 C.2     1  UNL1        0.0260
     35  C         25.8920  -19.6040  -17.4640 C.2     1  UNL1        0.0280
     36  C         25.9840  -19.2780  -16.1080 C.2     1  UNL1        0.0670
     37 CL         26.6390  -17.7380  -15.6800 Cl      1  UNL1       -0.0810
@<TRIPOS>BOND
     1    34    35    2
     2    34    32    1
     3    35    36    1
     4    33    32    1
     5    32    31    2
     6    36    37    1
     7    36    30    2
     8    31    30    1
     9    30    29    1
    10    29    28    1
    11    28    26    1
    12    26    25    2
    13    26    27    1
    14    25    24    1
    15    27    23    1
    16     4     1    1
    17    23    24    2
    18    23     2    1
    19     6     7    1
    20     6     5    2
    21     1     2   am
    22     1     5    1
    23     2     3    2
    24     7     8    2
    25     5    10    1
    26    13    11    2
    27     8     9    1
    28     8    11    1
    29    10     9    2
    30    11    12    2
    31    11    14    1
    32    15    14    1
    33    14    16    1
    34    16    17    2
    35    16    21    1
    36    22    21    1
    37    17    18    1
    38    21    20    2
    39    18    19    2
    40    20    19    1
