@<TRIPOS>MOLECULE
32369_out_ligand_01.pdbqt
 29 32 0 0 0
SMALL
GASTEIGER

@<TRIPOS>ATOM
      1  C         23.1170  -22.9630   -9.1180 C.2     1  UNL1       -0.0400
      2  C         22.8480  -21.8350   -8.3170 C.2     1  UNL1        0.0110
      3  C         21.6320  -21.7000   -7.6380 C.2     1  UNL1        0.0310
      4  C         20.6880  -22.7030   -7.7700 C.2     1  UNL1        0.0430
      5  C         20.9470  -23.8250   -8.5580 C.2     1  UNL1       -0.0290
      6  C         22.1520  -23.9740   -9.2300 C.2     1  UNL1        0.0180
      7  C         19.8070  -24.7910   -8.5180 C.2     1  UNL1        0.0610
      8  C         18.7590  -24.0180   -7.7080 C.2     1  UNL1        0.1370
      9  N         19.4020  -22.7910   -7.2050 N.am    1  UNL1       -0.3130
     10  C         18.8600  -21.8910   -6.3000 C.2     1  UNL1        0.2580
     11  O         19.4310  -20.9280   -5.7970 O.2     1  UNL1       -0.2670
     12  C         24.4500  -23.0910   -9.8130 C.3     1  UNL1        0.1610
     13  N         24.2840  -23.0470  -11.2490 N.am    1  UNL1       -0.3530
     14  C         25.3270  -22.7060  -12.0810 C.2     1  UNL1        0.2510
     15  O         26.4210  -22.3210  -11.6820 O.2     1  UNL1       -0.2680
     16  H         23.5130  -23.5770  -11.6290 H       1  UNL1        0.1630
     17  C         25.0830  -22.8630  -13.5420 C.2     1  UNL1        0.0320
     18  C         25.3630  -24.0580  -14.2180 C.2     1  UNL1        0.0180
     19  C         25.1140  -24.1600  -15.5910 C.2     1  UNL1        0.0200
     20  C         24.5820  -23.0730  -16.2830 C.2     1  UNL1        0.0110
     21 BR         24.2470  -23.2160  -18.1380 Br      1  UNL1       -0.0510
     22  C         24.2870  -21.8850  -15.6160 C.2     1  UNL1        0.0200
     23  C         24.5330  -21.7820  -14.2450 C.2     1  UNL1        0.0180
     24  C         17.4660  -22.1320   -5.8750 C.2     1  UNL1        0.0320
     25  C         16.4300  -22.1240   -6.8150 C.2     1  UNL1        0.0170
     26  C         15.1190  -22.3440   -6.3940 C.2     1  UNL1        0.0010
     27  C         14.8480  -22.5590   -5.0400 C.2     1  UNL1        0.0000
     28  C         15.8830  -22.5450   -4.1020 C.2     1  UNL1        0.0010
     29  C         17.1960  -22.3250   -4.5170 C.2     1  UNL1        0.0170
@<TRIPOS>BOND
     1    21    20    1
     2    20    22    2
     3    20    19    1
     4    22    23    1
     5    19    18    2
     6    23    17    2
     7    18    17    1
     8    17    14    1
     9    14    15    2
    10    14    13   am
    11    16    13    1
    12    13    12    1
    13    12     1    1
    14     6     1    2
    15     6     5    1
    16     1     2    1
    17     5     7    1
    18     5     4    2
    19     7     8    2
    20     2     3    2
    21     4     3    1
    22     4     9    1
    23     8     9    1
    24     9    10   am
    25    25    26    1
    26    25    24    2
    27    26    27    2
    28    10    24    1
    29    10    11    2
    30    24    29    1
    31    27    28    1
    32    29    28    2
