@<TRIPOS>MOLECULE
32379_out_ligand_01.pdbqt
 38 41 0 0 0
SMALL
GASTEIGER

@<TRIPOS>ATOM
      1  C         18.8710  -21.4030  -11.3670 C.2     1  UNL1        0.2790
      2  O         18.8850  -20.4600  -12.1510 O.2     1  UNL1       -0.2650
      3  N         19.9630  -22.1800  -11.0210 N.am    1  UNL1       -0.3210
      4  H         19.7670  -22.8970  -10.3320 H       1  UNL1        0.1690
      5  C         17.6570  -21.8180  -10.6840 C.2     1  UNL1        0.1430
      6  C         16.3660  -21.3310  -10.7510 C.2     1  UNL1        0.0450
      7  C         15.5830  -22.1240   -9.8810 C.2     1  UNL1        0.0380
      8  C         16.4360  -23.0580   -9.3290 C.2     1  UNL1        0.0780
      9  O         17.7020  -22.8730   -9.8060 O.2     1  UNL1       -0.3070
     10  C         16.2410  -24.1710   -8.3650 C.3     1  UNL1        0.2400
     11  O         17.4660  -24.3540   -7.6460 O.2     1  UNL1       -0.3440
     12  C         17.6350  -23.5310   -6.5620 C.2     1  UNL1        0.0760
     13  C         18.7620  -22.6880   -6.5500 C.2     1  UNL1       -0.0210
     14  C         18.9120  -21.7940   -5.4740 C.2     1  UNL1        0.0110
     15  C         17.9730  -21.7420   -4.4410 C.2     1  UNL1        0.0070
     16  C         16.8540  -22.5780   -4.4600 C.2     1  UNL1       -0.0590
     17  C         15.8150  -22.4950   -3.3820 C.3     1  UNL1        0.0480
     18  C         16.6820  -23.4570   -5.5370 C.2     1  UNL1        0.0440
     19  C         19.7830  -22.7160   -7.6790 C.3     1  UNL1        0.0130
     20  C         21.0100  -21.8730   -7.3210 C.3     1  UNL1        0.0150
     21  C         20.1990  -24.1420   -8.0600 C.3     1  UNL1        0.0150
     22  C         21.2840  -22.0950  -11.4980 C.2     1  UNL1        0.0350
     23  C         22.3930  -22.6140  -10.8240 C.2     1  UNL1        0.0310
     24  C         23.6790  -22.4780  -11.3610 C.2     1  UNL1        0.0270
     25  C         23.8540  -21.8340  -12.5860 C.2     1  UNL1        0.0750
     26  C         22.7580  -21.3000  -13.2650 C.2     1  UNL1        0.0270
     27  C         21.4770  -21.4340  -12.7200 C.2     1  UNL1        0.0310
     28  S         25.4840  -21.6210  -13.2570 S.O2    1  UNL1        0.2480
     29  O         26.1190  -20.5880  -12.4610 O.2     1  UNL1       -0.2050
     30  O         26.1200  -22.9120  -13.4020 O.2     1  UNL1       -0.2050
     31  N         25.2160  -20.9380  -14.7470 N.pl3   1  UNL1       -0.1480
     32  H         25.7640  -20.1030  -14.9160 H       1  UNL1        0.1490
     33  C         25.1700  -21.7900  -15.8420 C.cat   1  UNL1        0.2150
     34  N         24.1320  -22.6160  -15.9810 N.2     1  UNL1       -0.2300
     35  C         24.0820  -23.2960  -17.1400 C.2     1  UNL1        0.1210
     36  C         24.9990  -23.1360  -18.1530 C.2     1  UNL1        0.0390
     37  C         25.9900  -22.2120  -17.9130 C.2     1  UNL1        0.1210
     38  N         26.0880  -21.5070  -16.7710 N.2     1  UNL1       -0.2300
@<TRIPOS>BOND
     1    36    37    1
     2    36    35    2
     3    37    38    2
     4    35    34    1
     5    38    33    1
     6    34    33    2
     7    33    31    1
     8    32    31    1
     9    31    28    1
    10    30    28    2
    11    26    27    1
    12    26    25    2
    13    28    25    1
    14    28    29    2
    15    27    22    2
    16    25    24    1
    17     2     1    2
    18    22     3    1
    19    22    23    1
    20     1     3   am
    21     1     5    1
    22    24    23    2
    23     3     4    1
    24     6     5    2
    25     6     7    1
    26     5     9    1
    27     7     8    2
    28     9     8    1
    29     8    10    1
    30    10    11    1
    31    21    19    1
    32    19    20    1
    33    19    13    1
    34    11    12    1
    35    12    13    2
    36    12    18    1
    37    13    14    1
    38    18    16    2
    39    14    15    2
    40    16    15    1
    41    16    17    1
