@<TRIPOS>MOLECULE
32394_out_ligand_01.pdbqt
 36 40 0 0 0
SMALL
GASTEIGER

@<TRIPOS>ATOM
      1  S         15.8600  -23.4170   -9.4390 S.3     1  UNL1       -0.0870
      2  C         15.9440  -23.2650   -7.7160 C.ar    1  UNL1        0.1710
      3  N         16.8760  -23.9100   -6.9420 N.ar    1  UNL1       -0.3040
      4  C         16.6240  -23.5550   -5.6400 C.ar    1  UNL1        0.1610
      5  N         17.2870  -23.9580   -4.5360 N.2     1  UNL1       -0.2410
      6  C         15.5320  -22.6990   -5.7080 C.ar    1  UNL1        0.1050
      7  C         16.7690  -23.4210   -3.4030 C.2     1  UNL1        0.1190
      8  C         15.6810  -22.5550   -3.3330 C.2     1  UNL1        0.0220
      9  C         15.0350  -22.1750   -4.5110 C.2     1  UNL1        0.0370
     10  N         15.1270  -22.5240   -7.0020 N.ar    1  UNL1       -0.2210
     11  C         17.9520  -24.7870   -7.3640 C.3     1  UNL1        0.1710
     12  C         19.2210  -24.0230   -7.6640 C.2     1  UNL1       -0.0400
     13  C         19.3860  -22.7100   -7.2010 C.2     1  UNL1        0.0090
     14  C         20.5530  -21.9960   -7.4880 C.2     1  UNL1        0.0070
     15  C         21.5750  -22.5810   -8.2430 C.2     1  UNL1       -0.0620
     16  C         22.8420  -21.8300   -8.5240 C.3     1  UNL1        0.0480
     17  C         21.4250  -23.9010   -8.6820 C.2     1  UNL1        0.0070
     18  C         20.2600  -24.6160   -8.3970 C.2     1  UNL1        0.0090
     19  C         16.3770  -21.7460   -9.9330 C.3     1  UNL1        0.1210
     20  C         17.7450  -21.6960  -10.5680 C.2     1  UNL1       -0.0480
     21  C         18.4840  -22.8730  -10.7480 C.2     1  UNL1        0.0090
     22  C         19.7450  -22.8350  -11.3480 C.2     1  UNL1        0.0170
     23  C         20.2910  -21.6180  -11.7710 C.2     1  UNL1        0.0320
     24  C         19.5500  -20.4400  -11.6120 C.2     1  UNL1        0.0170
     25  C         18.2890  -20.4800  -11.0090 C.2     1  UNL1        0.0090
     26  C         21.6380  -21.6320  -12.4090 C.2     1  UNL1        0.2510
     27  O         21.8900  -20.8780  -13.3430 O.2     1  UNL1       -0.2680
     28  N         22.5470  -22.5480  -11.9150 N.am    1  UNL1       -0.3570
     29  H         22.2360  -23.2650  -11.2750 H       1  UNL1        0.1620
     30  C         23.8660  -22.6910  -12.5060 C.3     1  UNL1        0.1280
     31  C         24.9890  -22.3580  -11.5210 C.3     1  UNL1        0.0660
     32  C         25.6960  -21.0910  -11.9040 C.2     1  UNL1       -0.0160
     33  C         26.3770  -20.2160  -11.0820 C.2     1  UNL1        0.0150
     34  C         26.9190  -19.1110  -11.7980 C.2     1  UNL1        0.0080
     35  C         26.6330  -19.1770  -13.1440 C.2     1  UNL1        0.0500
     36  S         25.7170  -20.5650  -13.5360 S.3     1  UNL1       -0.1060
@<TRIPOS>BOND
     1    36    35    1
     2    36    32    1
     3    27    26    2
     4    35    34    2
     5    30    28    1
     6    30    31    1
     7    26    28   am
     8    26    23    1
     9    28    29    1
    10    32    31    1
    11    32    33    2
    12    34    33    1
    13    23    24    2
    14    23    22    1
    15    24    25    1
    16    22    21    2
    17    25    20    2
    18    21    20    1
    19    20    19    1
    20    19     1    1
    21     1     2    1
    22    17    18    1
    23    17    15    2
    24    16    15    1
    25    18    12    2
    26    15    14    1
    27     2    10   ar
    28     2     3   ar
    29    12    11    1
    30    12    13    1
    31    14    13    2
    32    11     3    1
    33    10     6   ar
    34     3     4   ar
    35     6     4   ar
    36     6     9    1
    37     4     5    1
    38     5     7    2
    39     9     8    2
    40     7     8    1
