@<TRIPOS>MOLECULE
323_out_ligand_01.pdbqt
 35 37 0 0 0
SMALL
GASTEIGER

@<TRIPOS>ATOM
      1  C         21.3590  -22.5920   -9.5060 C.2     1  UNL1        0.0320
      2  C         20.3220  -22.0140  -10.2560 C.2     1  UNL1        0.0180
      3  C         18.9880  -22.2670   -9.9280 C.2     1  UNL1        0.0260
      4  C         18.6930  -23.1030   -8.8490 C.2     1  UNL1        0.0740
      5  C         19.7150  -23.6660   -8.0780 C.2     1  UNL1        0.0260
      6  C         21.0500  -23.4080   -8.4080 C.2     1  UNL1        0.0180
      7  C         22.7650  -22.2820   -9.8940 C.2     1  UNL1        0.2510
      8  N         23.4330  -23.2540  -10.6090 N.am    1  UNL1       -0.3530
      9  H         22.9120  -24.0200  -11.0100 H       1  UNL1        0.1630
     10  O         23.2550  -21.1980   -9.6040 O.2     1  UNL1       -0.2680
     11  C         24.7610  -23.0210  -11.1300 C.3     1  UNL1        0.1610
     12  C         24.7440  -22.9610  -12.6380 C.2     1  UNL1       -0.0400
     13  C         25.3220  -23.9850  -13.4030 C.2     1  UNL1        0.0100
     14  C         25.2920  -23.9300  -14.7990 C.2     1  UNL1        0.0250
     15  C         24.6730  -22.8500  -15.4300 C.2     1  UNL1        0.0740
     16  C         24.0940  -21.8200  -14.6840 C.2     1  UNL1        0.0250
     17  C         24.1230  -21.8840  -13.2910 C.2     1  UNL1        0.0100
     18  S         24.6300  -22.7600  -17.2000 S.O2    1  UNL1        0.2390
     19  O         25.9250  -23.1440  -17.7080 O.2     1  UNL1       -0.2060
     20  O         23.4000  -23.3610  -17.6620 O.2     1  UNL1       -0.2060
     21  N         24.4390  -21.1050  -17.4500 N.3     1  UNL1       -0.2250
     22  H         25.1630  -20.5440  -17.0040 H       1  UNL1        0.1360
     23  H         23.5010  -20.8340  -17.1490 H       1  UNL1        0.1360
     24  S         16.9930  -23.4090   -8.4270 S.O2    1  UNL1        0.2450
     25  O         16.9800  -24.5570   -7.5470 O.2     1  UNL1       -0.2060
     26  O         16.2050  -23.3740   -9.6400 O.2     1  UNL1       -0.2060
     27  N         16.6160  -22.0650   -7.4620 N.pl3   1  UNL1       -0.1800
     28  H         17.2650  -21.3100   -7.6960 H       1  UNL1        0.1460
     29  C         16.4550  -22.3110   -6.0590 C.2     1  UNL1        0.0440
     30  C         15.2620  -22.8730   -5.6000 C.2     1  UNL1        0.0260
     31  C         15.1090  -23.1790   -4.2460 C.2     1  UNL1        0.0020
     32  C         16.1500  -22.9320   -3.3500 C.2     1  UNL1        0.0020
     33  C         17.3470  -22.3750   -3.8040 C.2     1  UNL1        0.0260
     34  C         17.5020  -22.0690   -5.1560 C.2     1  UNL1        0.0560
     35 CL         18.9880  -21.3650   -5.6830 Cl      1  UNL1       -0.0820
@<TRIPOS>BOND
     1    19    18    2
     2    20    18    2
     3    21    18    1
     4    21    23    1
     5    21    22    1
     6    18    15    1
     7    15    14    2
     8    15    16    1
     9    14    13    1
    10    16    17    2
    11    13    12    2
    12    17    12    1
    13    12    11    1
    14    11     8    1
    15     9     8    1
    16     8     7   am
    17     2     3    1
    18     2     1    2
    19     3     4    2
    20     7    10    2
    21     7     1    1
    22    26    24    2
    23     1     6    1
    24     4    24    1
    25     4     5    1
    26    24    25    2
    27    24    27    1
    28     6     5    2
    29    28    27    1
    30    27    29    1
    31    29    30    2
    32    29    34    1
    33    35    34    1
    34    30    31    1
    35    34    33    2
    36    31    32    2
    37    33    32    1
