@<TRIPOS>MOLECULE
32421_out_ligand_01.pdbqt
 37 41 0 0 0
SMALL
GASTEIGER

@<TRIPOS>ATOM
      1  C         21.8930  -22.2330   -9.7220 C.2     1  UNL1        0.1490
      2  C         21.5980  -22.6660   -8.4120 C.2     1  UNL1        0.0910
      3  C         20.2310  -22.6130   -8.3030 C.2     1  UNL1        0.1540
      4  N         19.4010  -22.9200   -7.2650 N.2     1  UNL1       -0.2290
      5  C         18.1210  -22.7890   -7.4680 C.2     1  UNL1        0.0710
      6  C         17.5230  -22.2930   -8.7510 C.2     1  UNL1        0.0690
      7  C         18.3880  -22.0010   -9.7430 C.2     1  UNL1        0.1460
      8  N         19.7530  -22.1610   -9.5350 N.pl3   1  UNL1       -0.2100
      9  N         20.7730  -21.9190  -10.4010 N.2     1  UNL1       -0.1600
     10  C         23.2300  -22.1080  -10.3330 C.2     1  UNL1        0.2760
     11  O         23.9980  -21.2020  -10.0340 O.2     1  UNL1       -0.2660
     12  N         23.4730  -23.1120  -11.2490 N.am    1  UNL1       -0.3190
     13  H         22.7240  -23.7860  -11.3780 H       1  UNL1        0.1690
     14  C         24.6310  -23.2520  -11.9790 C.2     1  UNL1        0.0710
     15  C         25.9840  -23.3180  -11.5850 C.2     1  UNL1        0.1690
     16  N         26.8110  -23.4480  -12.6270 N.2     1  UNL1       -0.1830
     17  N         25.9840  -23.4960  -13.6910 N.pl3   1  UNL1       -0.2750
     18  C         24.6650  -23.3510  -13.3510 C.2     1  UNL1        0.1430
     19  C         26.5320  -23.6040  -15.0380 C.3     1  UNL1        0.1900
     20  C         26.3020  -22.3450  -15.8440 C.2     1  UNL1       -0.0170
     21  C         27.1210  -21.2230  -15.6080 C.2     1  UNL1        0.0120
     22  C         26.9270  -20.0340  -16.3150 C.2     1  UNL1        0.0240
     23  C         25.9100  -19.9510  -17.2630 C.2     1  UNL1        0.0350
     24 CL         25.6690  -18.4830  -18.1280 Cl      1  UNL1       -0.0840
     25  C         25.0890  -21.0460  -17.5140 C.2     1  UNL1        0.0480
     26  C         25.2850  -22.2380  -16.8100 C.2     1  UNL1        0.0430
     27 CL         24.2420  -23.5610  -17.1950 Cl      1  UNL1       -0.0840
     28  C         17.9780  -21.4940  -11.0710 C.3     1  UNL1        0.4340
     29  F         16.6410  -21.2380  -11.1190 F       1  UNL1       -0.1650
     30  F         18.5910  -20.3280  -11.4000 F       1  UNL1       -0.1650
     31  F         18.2220  -22.3810  -12.0690 F       1  UNL1       -0.1650
     32  C         17.1700  -23.1230   -6.3700 C.2     1  UNL1       -0.0070
     33  C         17.6100  -23.3980   -5.0680 C.2     1  UNL1        0.0140
     34  C         16.6830  -23.7010   -4.0670 C.2     1  UNL1        0.0010
     35  C         15.3200  -23.7200   -4.3580 C.2     1  UNL1        0.0000
     36  C         14.8750  -23.4330   -5.6480 C.2     1  UNL1        0.0010
     37  C         15.7980  -23.1290   -6.6510 C.2     1  UNL1        0.0140
@<TRIPOS>BOND
     1    24    23    1
     2    25    23    2
     3    25    26    1
     4    23    22    1
     5    27    26    1
     6    26    20    2
     7    22    21    2
     8    20    21    1
     9    20    19    1
    10    19    17    1
    11    17    18    1
    12    17    16    1
    13    18    14    2
    14    16    15    2
    15    31    28    1
    16    14    15    1
    17    14    12    1
    18    30    28    1
    19    13    12    1
    20    12    10   am
    21    29    28    1
    22    28     7    1
    23     9     1    2
    24     9     8    1
    25    10    11    2
    26    10     1    1
    27     7     8    1
    28     7     6    2
    29     1     2    1
    30     8     3    1
    31     6     5    1
    32     2     3    2
    33     3     4    1
    34     5     4    2
    35     5    32    1
    36    37    32    2
    37    37    36    1
    38    32    33    1
    39    36    35    2
    40    33    34    2
    41    35    34    1
