@<TRIPOS>MOLECULE
32420_out_ligand_01.pdbqt
 34 38 0 0 0
SMALL
GASTEIGER

@<TRIPOS>ATOM
      1  C         21.0380  -22.3630  -10.2850 C.2     1  UNL1        0.1790
      2  N         22.3760  -22.4940  -10.4230 N.2     1  UNL1       -0.1640
      3  N         22.6740  -22.0520  -11.6550 N.pl3   1  UNL1       -0.2680
      4  C         21.5730  -21.6110  -12.3280 C.2     1  UNL1        0.1520
      5  C         20.5020  -21.7900  -11.4730 C.2     1  UNL1        0.1550
      6  C         20.4010  -22.8520   -9.0310 C.2     1  UNL1        0.2790
      7  N         19.1920  -22.2690   -8.6880 N.am    1  UNL1       -0.3220
      8  H         18.8390  -21.5310   -9.2890 H       1  UNL1        0.1690
      9  O         20.9560  -23.7130   -8.3520 O.2     1  UNL1       -0.2650
     10  C         18.3720  -22.5620   -7.5750 C.2     1  UNL1        0.0350
     11  C         17.3240  -23.4700   -7.7860 C.2     1  UNL1        0.0310
     12  C         16.4580  -23.8230   -6.7460 C.2     1  UNL1        0.0270
     13  C         16.6410  -23.2600   -5.4840 C.2     1  UNL1        0.0740
     14  C         17.6890  -22.3680   -5.2520 C.2     1  UNL1        0.0270
     15  C         18.5490  -22.0180   -6.2980 C.2     1  UNL1        0.0310
     16  S         15.5570  -23.6920   -4.1500 S.O2    1  UNL1        0.2390
     17  O         14.3280  -24.2100   -4.7050 O.2     1  UNL1       -0.2060
     18  O         16.3220  -24.4030   -3.1540 O.2     1  UNL1       -0.2060
     19  N         15.1660  -22.1770   -3.5270 N.3     1  UNL1       -0.2250
     20  H         14.9970  -22.1830   -2.5230 H       1  UNL1        0.1360
     21  H         15.8990  -21.5140   -3.7890 H       1  UNL1        0.1360
     22  N         19.1570  -21.4590  -11.8140 N.pl3   1  UNL1       -0.1120
     23  O         18.3100  -22.3480  -11.6680 O.2     1  UNL1       -0.5320
     24  O         18.9370  -20.3040  -12.1940 O.2     1  UNL1       -0.5320
     25  C         24.0610  -22.0770  -12.1490 C.3     1  UNL1        0.0560
     26  C         24.5110  -23.5410  -12.4050 C.3     1  UNL1        0.0380
     27  C         25.9720  -23.5880  -12.8870 C.3     1  UNL1       -0.0110
     28  C         26.8780  -22.9550  -11.8200 C.3     1  UNL1        0.0090
     29  C         26.1010  -22.7970  -14.1970 C.3     1  UNL1        0.0090
     30  C         26.4740  -21.4900  -11.5840 C.3     1  UNL1       -0.0110
     31  C         26.6000  -20.7110  -12.9000 C.3     1  UNL1        0.0090
     32  C         25.0140  -21.4400  -11.1000 C.3     1  UNL1        0.0380
     33  C         25.6900  -21.3350  -13.9690 C.3     1  UNL1       -0.0110
     34  C         24.2320  -21.2880  -13.4830 C.3     1  UNL1        0.0380
@<TRIPOS>BOND
     1    29    33    1
     2    29    27    1
     3    33    34    1
     4    33    31    1
     5    34    25    1
     6    31    30    1
     7    27    26    1
     8    27    28    1
     9    26    25    1
    10     4     3    1
    11     4     5    2
    12    24    22    2
    13    25     3    1
    14    25    32    1
    15    28    30    1
    16    22    23    2
    17    22     5    1
    18     3     2    1
    19    30    32    1
    20     5     1    1
    21     2     1    2
    22     1     6    1
    23     8     7    1
    24     6     7   am
    25     6     9    2
    26     7    10    1
    27    11    10    2
    28    11    12    1
    29    10    15    1
    30    12    13    2
    31    15    14    2
    32    13    14    1
    33    13    16    1
    34    17    16    2
    35    16    19    1
    36    16    18    2
    37    21    19    1
    38    19    20    1
