@<TRIPOS>MOLECULE
32436_out_ligand_01.pdbqt
 34 38 0 0 0
SMALL
GASTEIGER

@<TRIPOS>ATOM
      1  N         23.0550  -20.8370  -13.5950 N.ar    1  UNL1       -0.0680
      2  C         24.4360  -20.9860  -13.6770 C.ar    1  UNL1        0.2900
      3  O         25.1160  -20.4560  -14.5560 O.2     1  UNL1       -0.2650
      4  C         25.0840  -21.8520  -12.6500 C.ar    1  UNL1        0.0620
      5  C         26.4770  -22.0140  -12.7070 C.2     1  UNL1        0.0190
      6  C         27.1210  -22.8260  -11.7800 C.2     1  UNL1        0.0010
      7  C         26.3790  -23.4720  -10.7950 C.2     1  UNL1        0.0020
      8  C         24.9910  -23.3130  -10.7270 C.2     1  UNL1        0.0320
      9  C         24.3300  -22.5010  -11.6530 C.ar    1  UNL1        0.0750
     10  N         22.9280  -22.2880  -11.6650 N.ar    1  UNL1       -0.1170
     11  C         21.8670  -22.7190  -10.8870 C.ar    1  UNL1        0.2110
     12  N         20.7380  -22.2300  -11.3520 N.ar    1  UNL1       -0.1070
     13  N         21.0230  -21.4560  -12.4390 N.ar    1  UNL1        0.0460
     14  C         22.3270  -21.4800  -12.6160 C.ar    1  UNL1        0.7520
     15  S         21.9350  -23.7440   -9.4950 S.3     1  UNL1       -0.0800
     16  C         20.1820  -23.7250   -8.9840 C.3     1  UNL1        0.1860
     17  C         19.9880  -22.8430   -7.7480 C.2     1  UNL1        0.2380
     18  O         20.9360  -22.1960   -7.2840 O.2     1  UNL1       -0.2720
     19  N         18.6920  -22.8330   -7.1860 N.am    1  UNL1       -0.2820
     20  C         17.5310  -23.1520   -7.9590 C.2     1  UNL1        0.0420
     21  C         16.8190  -24.3380   -7.7210 C.2     1  UNL1        0.0300
     22  C         15.6690  -24.6330   -8.4570 C.2     1  UNL1        0.0020
     23  C         15.2200  -23.7490   -9.4370 C.2     1  UNL1        0.0000
     24  C         15.9230  -22.5710   -9.6880 C.2     1  UNL1        0.0020
     25  C         17.0730  -22.2740   -8.9540 C.2     1  UNL1        0.0300
     26  C         18.4800  -22.4090   -5.8210 C.2     1  UNL1        0.0420
     27  C         17.8670  -23.2490   -4.8720 C.2     1  UNL1        0.0300
     28  C         17.6660  -22.8310   -3.5510 C.2     1  UNL1        0.0020
     29  C         18.0720  -21.5620   -3.1530 C.2     1  UNL1        0.0000
     30  C         18.6760  -20.7110   -4.0750 C.2     1  UNL1        0.0020
     31  C         18.8750  -21.1300   -5.3950 C.2     1  UNL1        0.0300
     32  N         22.3910  -19.9890  -14.5060 N.pl3   1  UNL1       -0.2250
     33  H         22.2210  -20.5410  -15.3530 H       1  UNL1        0.1440
     34  H         21.4720  -19.7730  -14.1160 H       1  UNL1        0.1440
@<TRIPOS>BOND
     1    33    32    1
     2     3     2    2
     3    32    34    1
     4    32     1    1
     5     2     1   ar
     6     2     4   ar
     7     1    14   ar
     8     5     4    2
     9     5     6    1
    10     4     9   ar
    11    14    13   ar
    12    14    10   ar
    13    13    12   ar
    14     6     7    2
    15    10     9   ar
    16    10    11   ar
    17     9     8    2
    18    12    11   ar
    19    11    15    1
    20     7     8    1
    21    24    23    2
    22    24    25    1
    23    15    16    1
    24    23    22    1
    25    16    17    1
    26    25    20    2
    27    22    21    2
    28    20    21    1
    29    20    19    1
    30    17    18    2
    31    17    19   am
    32    19    26    1
    33    26    31    2
    34    26    27    1
    35    31    30    1
    36    27    28    2
    37    30    29    2
    38    28    29    1
