@<TRIPOS>MOLECULE
32453_out_ligand_01.pdbqt
 29 32 0 0 0
SMALL
GASTEIGER

@<TRIPOS>ATOM
      1  C         20.9760  -22.8050  -10.4180 C.2     1  UNL1        0.0320
      2  C         22.3270  -23.0820  -10.6630 C.2     1  UNL1        0.0170
      3  C         22.9740  -22.5220  -11.7680 C.2     1  UNL1        0.0100
      4  C         22.2790  -21.6910  -12.6570 C.2     1  UNL1       -0.0340
      5  C         20.9280  -21.4120  -12.4010 C.2     1  UNL1        0.0100
      6  C         20.2760  -21.9730  -11.2970 C.2     1  UNL1        0.0170
      7  C         20.3360  -23.4450   -9.2330 C.2     1  UNL1        0.2520
      8  O         20.8450  -24.4370   -8.7260 O.2     1  UNL1       -0.2680
      9  N         19.1900  -22.8540   -8.7490 N.am    1  UNL1       -0.3480
     10  H         18.7930  -22.0500   -9.2060 H       1  UNL1        0.1630
     11  C         18.4140  -23.4630   -7.6760 C.3     1  UNL1        0.1180
     12  C         17.0350  -23.8850   -8.2400 C.3     1  UNL1        0.0300
     13  C         15.8500  -23.7730   -7.2770 C.3     1  UNL1        0.0070
     14  C         16.2580  -23.8350   -5.8150 C.3     1  UNL1        0.0390
     15  C         17.2790  -22.7640   -5.5340 C.2     1  UNL1       -0.0500
     16  C         17.2120  -22.0040   -4.3590 C.2     1  UNL1        0.0070
     17  C         18.3340  -22.5710   -6.4470 C.2     1  UNL1       -0.0290
     18  C         18.1930  -21.0540   -4.0830 C.2     1  UNL1        0.0010
     19  C         19.2580  -20.8780   -4.9610 C.2     1  UNL1        0.0010
     20  C         19.3370  -21.6400   -6.1280 C.2     1  UNL1        0.0100
     21  C         23.0110  -21.0790  -13.8340 C.3     1  UNL1        0.2140
     22  O         24.4110  -21.3440  -13.7350 O.2     1  UNL1       -0.3450
     23  C         25.2790  -20.3290  -14.0390 C.2     1  UNL1        0.0860
     24  C         25.3420  -19.6810  -15.2760 C.2     1  UNL1        0.0380
     25  C         26.2590  -18.6440  -15.4890 C.2     1  UNL1        0.0030
     26  C         27.1210  -18.2470  -14.4720 C.2     1  UNL1        0.0020
     27  C         27.0670  -18.8820  -13.2330 C.2     1  UNL1        0.0220
     28  C         26.1500  -19.9150  -13.0180 C.2     1  UNL1        0.0440
     29 BR         26.1330  -20.7410  -11.3050 Br      1  UNL1       -0.0480
@<TRIPOS>BOND
     1    25    24    1
     2    25    26    2
     3    24    23    2
     4    26    27    1
     5    23    22    1
     6    23    28    1
     7    21    22    1
     8    21     4    1
     9    27    28    2
    10    28    29    1
    11     4     5    2
    12     4     3    1
    13     5     6    1
    14     3     2    2
    15     6     1    2
    16     2     1    1
    17     1     7    1
    18     7     9   am
    19     7     8    2
    20    10     9    1
    21     9    11    1
    22    12    11    1
    23    12    13    1
    24    11    17    1
    25    13    14    1
    26    17    20    1
    27    17    15    2
    28    20    19    2
    29    14    15    1
    30    15    16    1
    31    19    18    1
    32    16    18    2
