@<TRIPOS>MOLECULE
32467_out_ligand_01.pdbqt
 31 34 0 0 0
SMALL
GASTEIGER

@<TRIPOS>ATOM
      1  C         23.7390  -21.6380  -10.3320 C.ar    1  UNL1        0.1920
      2  N         24.9860  -21.2310  -10.3380 N.ar    1  UNL1       -0.1220
      3  N         25.4070  -21.2090  -11.6370 N.ar    1  UNL1       -0.1280
      4  C         24.4280  -21.6560  -12.4000 C.ar    1  UNL1        0.1710
      5  N         23.3260  -21.8950  -11.6130 N.ar    1  UNL1       -0.3060
      6  S         22.7890  -21.8680   -8.9120 S.3     1  UNL1       -0.0810
      7  C         22.5490  -23.6690   -8.9890 C.3     1  UNL1        0.1850
      8  C         21.1460  -24.0880   -8.5810 C.2     1  UNL1        0.2310
      9  O         20.7300  -25.2120   -8.8600 O.2     1  UNL1       -0.2720
     10  N         20.4700  -23.1230   -7.8520 N.am    1  UNL1       -0.3270
     11  H         20.8690  -22.1800   -7.8620 H       1  UNL1        0.1690
     12  C         19.2140  -23.2350   -7.2240 C.2     1  UNL1        0.0340
     13  C         18.4150  -24.3770   -7.2830 C.2     1  UNL1        0.0310
     14  C         17.1900  -24.4180   -6.6100 C.2     1  UNL1        0.0210
     15  C         16.7640  -23.3130   -5.8750 C.2     1  UNL1        0.0110
     16 BR         15.1020  -23.3780   -4.9780 Br      1  UNL1       -0.0510
     17  C         17.5500  -22.1700   -5.8140 C.2     1  UNL1        0.0210
     18  C         18.7740  -22.1310   -6.4800 C.2     1  UNL1        0.0310
     19  C         22.0080  -22.3050  -12.0500 C.3     1  UNL1        0.1380
     20  C         21.0680  -21.1140  -12.2390 C.3     1  UNL1        0.0590
     21  C         19.6950  -21.4190  -11.7010 C.2     1  UNL1       -0.0570
     22  C         19.4300  -22.6530  -11.0910 C.2     1  UNL1        0.0070
     23  C         18.1670  -22.9170  -10.5590 C.2     1  UNL1        0.0010
     24  C         17.1610  -21.9480  -10.6270 C.2     1  UNL1        0.0000
     25  C         17.4160  -20.7210  -11.2330 C.2     1  UNL1        0.0010
     26  C         18.6780  -20.4580  -11.7690 C.2     1  UNL1        0.0070
     27  C         24.5410  -21.8450  -13.8120 C.2     1  UNL1        0.0520
     28  C         24.2050  -20.9340  -14.7980 C.2     1  UNL1        0.0230
     29  C         24.4910  -21.4280  -16.1120 C.2     1  UNL1        0.0090
     30  C         25.0940  -22.6650  -16.0760 C.2     1  UNL1        0.0500
     31  S         25.2550  -23.2560  -14.4760 S.3     1  UNL1       -0.0980
@<TRIPOS>BOND
     1    29    30    2
     2    29    28    1
     3    30    31    1
     4    28    27    2
     5    31    27    1
     6    27     4    1
     7     4     3   ar
     8     4     5   ar
     9    20    19    1
    10    20    21    1
    11    19     5    1
    12    26    21    2
    13    26    25    1
    14    21    22    1
    15     3     2   ar
    16     5     1   ar
    17    25    24    2
    18    22    23    2
    19    24    23    1
    20     2     1   ar
    21     1     6    1
    22     7     6    1
    23     7     8    1
    24     9     8    2
    25     8    10   am
    26    11    10    1
    27    10    12    1
    28    13    12    2
    29    13    14    1
    30    12    18    1
    31    14    15    2
    32    18    17    2
    33    15    17    1
    34    15    16    1
