@<TRIPOS>MOLECULE
32481_out_ligand_01.pdbqt
 31 34 0 0 0
SMALL
GASTEIGER

@<TRIPOS>ATOM
      1  C         19.3910  -22.1360  -10.3810 C.2     1  UNL1        0.0340
      2  C         18.4630  -21.4100  -11.1450 C.2     1  UNL1        0.0200
      3  C         17.0940  -21.4920  -10.8690 C.2     1  UNL1        0.0450
      4  C         16.6460  -22.2970   -9.8280 C.2     1  UNL1        0.1390
      5  F         15.3320  -22.3670   -9.5910 F       1  UNL1       -0.2040
      6  C         17.5590  -23.0170   -9.0670 C.2     1  UNL1        0.1140
      7  C         18.9350  -22.9340   -9.3240 C.2     1  UNL1        0.0450
      8  S         16.9610  -24.0240   -7.7410 S.O2    1  UNL1        0.2510
      9  O         15.8570  -24.7980   -8.2800 O.2     1  UNL1       -0.2050
     10  O         18.1270  -24.6880   -7.2020 O.2     1  UNL1       -0.2050
     11  N         16.2800  -22.8720   -6.6270 N.pl3   1  UNL1       -0.1720
     12  C         15.0340  -23.3950   -5.9780 C.3     1  UNL1        0.1140
     13  C         14.5900  -22.5250   -4.8180 C.3     1  UNL1        0.0200
     14  C         15.6830  -22.5230   -3.7660 C.3     1  UNL1        0.0420
     15  C         16.9710  -22.0430   -4.3730 C.2     1  UNL1       -0.0360
     16  C         17.9100  -21.4120   -3.5350 C.2     1  UNL1        0.0090
     17  C         17.2470  -22.2170   -5.7430 C.2     1  UNL1        0.0310
     18  C         19.0850  -20.8860   -4.0590 C.2     1  UNL1        0.0010
     19  C         19.3210  -20.9680   -5.4250 C.2     1  UNL1        0.0020
     20  C         18.4000  -21.6110   -6.2590 C.2     1  UNL1        0.0250
     21  C         20.8430  -21.9930  -10.7090 C.2     1  UNL1        0.2560
     22  O         21.6270  -21.8630   -9.7770 O.2     1  UNL1       -0.2670
     23  N         21.1540  -21.9860  -12.0570 N.am    1  UNL1       -0.3230
     24  H         20.3900  -21.9880  -12.7170 H       1  UNL1        0.1690
     25  C         22.4400  -21.9020  -12.6350 C.2     1  UNL1        0.0350
     26  C         22.5900  -21.0460  -13.7360 C.2     1  UNL1        0.0310
     27  C         23.8290  -20.9070  -14.3700 C.2     1  UNL1        0.0210
     28  C         24.9260  -21.6260  -13.9060 C.2     1  UNL1        0.0110
     29 BR         26.6010  -21.4410  -14.7590 Br      1  UNL1       -0.0510
     30  C         24.7910  -22.4820  -12.8170 C.2     1  UNL1        0.0210
     31  C         23.5500  -22.6200  -12.1840 C.2     1  UNL1        0.0310
@<TRIPOS>BOND
     1    29    28    1
     2    27    28    2
     3    27    26    1
     4    28    30    1
     5    26    25    2
     6    30    31    2
     7    24    23    1
     8    25    31    1
     9    25    23    1
    10    23    21   am
    11     2     3    1
    12     2     1    2
    13     3     4    2
    14    21     1    1
    15    21    22    2
    16     1     7    1
    17     4     5    1
    18     4     6    1
    19     7     6    2
    20     6     8    1
    21     9     8    2
    22     8    10    2
    23     8    11    1
    24    11    12    1
    25    11    17    1
    26    20    17    1
    27    20    19    2
    28    12    13    1
    29    17    15    2
    30    19    18    1
    31    13    14    1
    32    15    14    1
    33    15    16    1
    34    18    16    2
