@<TRIPOS>MOLECULE
32503_out_ligand_01.pdbqt
 33 35 0 0 0
SMALL
GASTEIGER

@<TRIPOS>ATOM
      1  C         18.9000  -21.5740   -5.4920 C.2     1  UNL1        0.0770
      2  C         20.0700  -20.8840   -5.8450 C.2     1  UNL1        0.0390
      3  C         20.8560  -21.3130   -6.9130 C.2     1  UNL1        0.0270
      4  C         20.4630  -22.4320   -7.6410 C.2     1  UNL1        0.0750
      5  C         19.3030  -23.1360   -7.2990 C.2     1  UNL1        0.0370
      6  C         18.4990  -22.7290   -6.2120 C.2     1  UNL1        0.0140
      7  S         21.4710  -22.9660   -9.0040 S.O2    1  UNL1        0.2450
      8  O         22.3560  -24.0070   -8.5280 O.2     1  UNL1       -0.2060
      9  O         21.9560  -21.7780   -9.6700 O.2     1  UNL1       -0.2060
     10  N         20.2980  -23.7490   -9.9710 N.pl3   1  UNL1       -0.1810
     11  H         20.7880  -24.0970  -10.7980 H       1  UNL1        0.1460
     12  C         19.2110  -22.8970  -10.3560 C.2     1  UNL1        0.0230
     13  C         19.4540  -21.7250  -11.0730 C.2     1  UNL1        0.0240
     14  C         18.3940  -20.8790  -11.3960 C.2     1  UNL1        0.0030
     15  C         17.0960  -21.1980  -10.9920 C.2     1  UNL1        0.0160
     16  C         16.8440  -22.3680  -10.2570 C.2     1  UNL1        0.0490
     17  C         17.9190  -23.2090   -9.9320 C.2     1  UNL1        0.0400
     18  C         15.4470  -22.6930   -9.7900 C.3     1  UNL1        0.4170
     19  F         15.2310  -22.3260   -8.4970 F       1  UNL1       -0.1660
     20  F         14.4870  -22.0630  -10.5230 F       1  UNL1       -0.1660
     21  F         15.1520  -24.0210   -9.8600 F       1  UNL1       -0.1660
     22  C         17.2280  -23.5070   -5.8500 C.3     1  UNL1        0.1420
     23  C         16.8730  -24.6880   -6.7660 C.3     1  UNL1        0.0550
     24  N         16.0780  -22.6220   -5.7690 N.am    1  UNL1       -0.3210
     25  C         15.4950  -22.6440   -4.5260 C.2     1  UNL1        0.3240
     26  H         15.8680  -21.8790   -6.4200 H       1  UNL1        0.1650
     27  O         14.5970  -21.9050   -4.1650 O.2     1  UNL1       -0.2470
     28  N         16.1070  -23.5860   -3.7710 N.am    1  UNL1       -0.2770
     29  C         17.2170  -24.0600   -4.4050 C.2     1  UNL1        0.2580
     30  H         15.9180  -23.7220   -2.7940 H       1  UNL1        0.1730
     31  O         18.0330  -24.8200   -3.9030 O.2     1  UNL1       -0.2700
     32  O         18.0770  -21.1790   -4.4700 O.2     1  UNL1       -0.3550
     33  C         18.6140  -21.1320   -3.1530 C.3     1  UNL1        0.2100
@<TRIPOS>BOND
     1    14    13    1
     2    14    15    2
     3    13    12    2
     4    15    16    1
     5    11    10    1
     6    20    18    1
     7    12    10    1
     8    12    17    1
     9    16    17    2
    10    16    18    1
    11    10     7    1
    12    21    18    1
    13    18    19    1
    14     9     7    2
    15     7     8    2
    16     7     4    1
    17     4     5    2
    18     4     3    1
    19     5     6    1
    20     3     2    2
    21    23    22    1
    22    26    24    1
    23     6    22    1
    24     6     1    2
    25    22    24    1
    26    22    29    1
    27     2     1    1
    28    24    25   am
    29     1    32    1
    30    25    27    2
    31    25    28   am
    32    32    33    1
    33    29    31    2
    34    29    28   am
    35    28    30    1
