@<TRIPOS>MOLECULE
3250_out_ligand_01.pdbqt
 32 36 0 0 0
SMALL
GASTEIGER

@<TRIPOS>ATOM
      1  C         23.7320  -22.3500  -12.7060 C.2     1  UNL1        0.0770
      2  C         22.7190  -21.5690  -13.3000 C.2     1  UNL1        0.0380
      3  C         21.4910  -21.3840  -12.6580 C.2     1  UNL1        0.0210
      4  C         21.3270  -21.9830  -11.4230 C.2     1  UNL1        0.0480
      5  C         22.3230  -22.7290  -10.8360 C.2     1  UNL1        0.0510
      6  C         23.5470  -22.9290  -11.4460 C.2     1  UNL1        0.0550
      7  C         21.8260  -23.1940   -9.5460 C.2     1  UNL1        0.2660
      8  O         22.5270  -23.8800   -8.8240 O.2     1  UNL1       -0.2670
      9  N         20.5370  -22.7140   -9.4010 N.am    1  UNL1       -0.2440
     10  C         20.1870  -21.9720  -10.5140 C.2     1  UNL1        0.2660
     11  O         19.1660  -21.3760  -10.8080 O.2     1  UNL1       -0.2670
     12  C         19.6900  -22.9470   -8.2680 C.2     1  UNL1        0.0470
     13  C         18.9120  -24.1350   -8.1590 C.2     1  UNL1        0.0310
     14  C         18.0720  -24.3960   -7.0640 C.2     1  UNL1        0.0200
     15  C         18.0180  -23.4470   -6.0720 C.2     1  UNL1        0.0480
     16  C         18.7590  -22.2850   -6.1500 C.2     1  UNL1        0.0500
     17  C         17.2590  -23.4090   -4.8230 C.2     1  UNL1        0.2590
     18  C         19.5940  -22.0090   -7.2210 C.2     1  UNL1        0.0480
     19  C         18.4700  -21.5050   -4.9460 C.2     1  UNL1        0.2590
     20  O         18.9450  -20.4200   -4.6750 O.2     1  UNL1       -0.2670
     21  N         17.5810  -22.2340   -4.2180 N.am    1  UNL1       -0.2890
     22  H         17.2030  -21.9360   -3.3330 H       1  UNL1        0.1720
     23  O         16.4990  -24.2720   -4.4340 O.2     1  UNL1       -0.2670
     24  O         24.9170  -22.4440  -13.4040 O.2     1  UNL1       -0.3110
     25  C         25.4630  -21.2730  -13.8740 C.2     1  UNL1        0.0760
     26  C         25.9530  -20.3720  -12.9350 C.2     1  UNL1        0.0380
     27  C         26.4920  -19.1570  -13.3570 C.2     1  UNL1        0.0100
     28  C         26.5340  -18.8250  -14.7220 C.2     1  UNL1       -0.0560
     29  C         27.1210  -17.5040  -15.1390 C.3     1  UNL1        0.0490
     30  C         26.0120  -19.7290  -15.6710 C.2     1  UNL1       -0.0530
     31  C         25.4700  -20.9490  -15.2330 C.2     1  UNL1        0.0440
     32  C         26.0140  -19.4110  -17.1410 C.3     1  UNL1        0.0490
@<TRIPOS>BOND
     1    32    30    1
     2    30    31    1
     3    30    28    2
     4    31    25    2
     5    29    28    1
     6    28    27    1
     7    25    24    1
     8    25    26    1
     9    24     1    1
    10    27    26    2
    11     2     1    2
    12     2     3    1
    13     1     6    1
    14     3     4    2
    15     6     5    2
    16     4     5    1
    17     4    10    1
    18     5     7    1
    19    11    10    2
    20    10     9   am
    21     7     9   am
    22     7     8    2
    23     9    12    1
    24    12    13    2
    25    12    18    1
    26    13    14    1
    27    18    16    2
    28    14    15    2
    29    16    15    1
    30    16    19    1
    31    15    17    1
    32    19    20    2
    33    19    21   am
    34    17    23    2
    35    17    21   am
    36    21    22    1
