@<TRIPOS>MOLECULE
32523_out_ligand_01.pdbqt
 36 39 0 0 0
SMALL
GASTEIGER

@<TRIPOS>ATOM
      1  C         22.3470  -22.0940  -11.4100 C.2     1  UNL1        0.0800
      2  C         21.4010  -21.6590  -12.3390 C.2     1  UNL1        0.0270
      3  C         20.0410  -21.7090  -12.0190 C.2     1  UNL1        0.0310
      4  C         19.6200  -22.1890  -10.7750 C.2     1  UNL1        0.0340
      5  C         20.5850  -22.6030   -9.8440 C.2     1  UNL1        0.0310
      6  C         21.9460  -22.5530  -10.1550 C.2     1  UNL1        0.0270
      7  N         18.2700  -22.3020  -10.3920 N.am    1  UNL1       -0.3270
      8  C         17.2350  -21.4300  -10.6840 C.2     1  UNL1        0.2260
      9  O         17.3260  -20.3690  -11.2880 O.2     1  UNL1       -0.2730
     10  H         18.0210  -23.1480   -9.8940 H       1  UNL1        0.1690
     11  C         15.8890  -21.9110  -10.1650 C.3     1  UNL1        0.1440
     12  C         16.0090  -23.0040   -9.1550 C.2     1  UNL1       -0.0140
     13  C         15.5520  -24.3060   -9.2550 C.2     1  UNL1        0.1510
     14  O         15.8690  -25.0230   -8.1520 O.2     1  UNL1       -0.3210
     15  C         16.5060  -24.1770   -7.2990 C.2     1  UNL1        0.0850
     16  C         16.9910  -24.5160   -6.0430 C.2     1  UNL1        0.0390
     17  C         16.6090  -22.9120   -7.8590 C.2     1  UNL1        0.0070
     18  C         17.6000  -23.4910   -5.3100 C.2     1  UNL1        0.0100
     19  C         17.7160  -22.1860   -5.8130 C.2     1  UNL1       -0.0540
     20  C         17.2280  -21.8970   -7.1040 C.2     1  UNL1        0.0220
     21  C         18.3800  -21.1130   -4.9620 C.3     1  UNL1        0.0100
     22  C         19.7360  -20.6850   -5.5260 C.3     1  UNL1        0.0150
     23  C         18.5170  -21.5710   -3.5080 C.3     1  UNL1        0.0150
     24  S         24.0720  -22.0610  -11.8150 S.O2    1  UNL1        0.2640
     25  O         24.7480  -21.0820  -10.9870 O.2     1  UNL1       -0.2000
     26  O         24.5310  -23.4360  -11.8420 O.2     1  UNL1       -0.2000
     27  N         24.1170  -21.5390  -13.4110 N.pl3   1  UNL1       -0.2640
     28  H         23.2860  -21.0080  -13.6550 H       1  UNL1        0.1800
     29  C         24.6440  -22.4450  -14.3480 C.2     1  UNL1        0.1410
     30  C         25.6110  -23.3510  -13.9840 C.2     1  UNL1        0.0770
     31  C         26.0570  -24.1800  -14.9920 C.2     1  UNL1        0.0360
     32  C         27.0970  -25.2210  -14.7140 C.3     1  UNL1        0.0700
     33  N         25.5770  -24.1060  -16.2500 N.2     1  UNL1       -0.2390
     34  C         24.6450  -23.1690  -16.4990 C.2     1  UNL1        0.1240
     35  N         24.1450  -22.3280  -15.5800 N.2     1  UNL1       -0.2160
     36  C         24.1000  -23.0680  -17.8900 C.3     1  UNL1        0.0930
@<TRIPOS>BOND
     1    36    34    1
     2    34    33    2
     3    34    35    1
     4    33    31    1
     5    35    29    2
     6    31    32    1
     7    31    30    2
     8    29    30    1
     9    29    27    1
    10    28    27    1
    11    27    24    1
    12     2     3    1
    13     2     1    2
    14     3     4    2
    15    26    24    2
    16    24     1    1
    17    24    25    2
    18     1     6    1
    19     9     8    2
    20     4     7    1
    21     4     5    1
    22     8     7   am
    23     8    11    1
    24     7    10    1
    25    11    12    1
    26     6     5    2
    27    13    12    2
    28    13    14    1
    29    12    17    1
    30    14    15    1
    31    17    15    2
    32    17    20    1
    33    15    16    1
    34    20    19    2
    35    16    18    2
    36    19    18    1
    37    19    21    1
    38    22    21    1
    39    21    23    1
