@<TRIPOS>MOLECULE
32530_out_ligand_01.pdbqt
 31 33 0 0 0
SMALL
GASTEIGER

@<TRIPOS>ATOM
      1  C         21.1870  -23.0180   -9.1570 C.2     1  UNL1        0.0460
      2  C         22.4980  -23.4760   -8.9620 C.2     1  UNL1        0.0600
      3  C         23.4510  -23.2650   -9.9470 C.2     1  UNL1        0.1170
      4  F         24.7060  -23.6910   -9.7560 F       1  UNL1       -0.2060
      5  C         23.1230  -22.6140  -11.1280 C.2     1  UNL1        0.0430
      6  C         21.8120  -22.1780  -11.3360 C.2     1  UNL1        0.0160
      7  C         20.8130  -22.3750  -10.3600 C.2     1  UNL1       -0.0100
      8  C         20.2340  -23.2680   -8.0430 C.2     1  UNL1        0.2580
      9  N         19.9700  -22.1670   -7.2660 N.am    1  UNL1       -0.3010
     10  H         20.4290  -21.2890   -7.4590 H       1  UNL1        0.1710
     11  O         19.8160  -24.4100   -7.9070 O.2     1  UNL1       -0.2670
     12  C         19.0990  -22.0890   -6.2110 C.2     1  UNL1        0.1740
     13  N         19.2260  -21.1460   -5.3060 N.2     1  UNL1       -0.2350
     14  C         18.2220  -21.2790   -4.3650 C.2     1  UNL1        0.1440
     15  C         17.3480  -22.3310   -4.5580 C.2     1  UNL1        0.0930
     16  S         17.7970  -23.1600   -5.9930 S.3     1  UNL1       -0.0450
     17  C         16.2090  -22.7700   -3.7870 C.2     1  UNL1        0.2570
     18  N         16.3330  -23.9790   -3.1530 N.am    1  UNL1       -0.3650
     19  H         17.0610  -24.6430   -3.3670 H       1  UNL1        0.1590
     20  H         15.4940  -24.3230   -2.7040 H       1  UNL1        0.1590
     21  O         15.1470  -22.1640   -3.6690 O.2     1  UNL1       -0.2670
     22  C         19.4360  -21.9370  -10.6510 C.2     1  UNL1       -0.0240
     23  C         19.1940  -20.8610  -11.5190 C.2     1  UNL1        0.0120
     24  C         17.8930  -20.4240  -11.7760 C.2     1  UNL1        0.0020
     25  C         16.8110  -21.0590  -11.1690 C.2     1  UNL1        0.0160
     26  C         17.0170  -22.1490  -10.3120 C.2     1  UNL1        0.0480
     27  C         18.3320  -22.5760  -10.0580 C.2     1  UNL1        0.0280
     28  C         15.8470  -22.8230   -9.6380 C.3     1  UNL1        0.4170
     29  F         14.6640  -22.5380  -10.2480 F       1  UNL1       -0.1660
     30  F         15.6980  -22.4620   -8.3330 F       1  UNL1       -0.1660
     31  F         15.9480  -24.1820   -9.6360 F       1  UNL1       -0.1660
@<TRIPOS>BOND
     1    24    23    1
     2    24    25    2
     3    23    22    2
     4     6     5    2
     5     6     7    1
     6    25    26    1
     7     5     3    1
     8    22     7    1
     9    22    27    1
    10     7     1    2
    11    26    27    2
    12    26    28    1
    13    29    28    1
    14     3     4    1
    15     3     2    2
    16    28    31    1
    17    28    30    1
    18     1     2    1
    19     1     8    1
    20     8    11    2
    21     8     9   am
    22    10     9    1
    23     9    12    1
    24    12    16    1
    25    12    13    2
    26    16    15    1
    27    13    14    1
    28    15    14    2
    29    15    17    1
    30    17    21    2
    31    17    18   am
    32    19    18    1
    33    18    20    1
