@<TRIPOS>MOLECULE
32536_out_ligand_01.pdbqt
 28 30 0 0 0
SMALL
GASTEIGER

@<TRIPOS>ATOM
      1  N         19.1200  -22.5840   -8.9360 N.am    1  UNL1       -0.3240
      2  C         18.9390  -23.6940   -8.1300 C.2     1  UNL1        0.2350
      3  O         19.7020  -24.6610   -8.0920 O.2     1  UNL1       -0.2720
      4  H         18.4140  -21.8540   -8.8940 H       1  UNL1        0.1690
      5  C         20.1470  -22.3160   -9.8670 C.2     1  UNL1        0.0690
      6  C         21.5080  -22.3430   -9.5550 C.2     1  UNL1        0.0490
      7  C         22.4600  -22.0490  -10.5390 C.2     1  UNL1        0.0340
      8  C         22.0500  -21.7500  -11.8440 C.2     1  UNL1        0.0200
      9  C         20.6910  -21.7300  -12.1650 C.2     1  UNL1        0.0400
     10  C         19.7360  -22.0110  -11.1840 C.2     1  UNL1        0.0950
     11  C         23.9000  -22.0880  -10.1750 C.2     1  UNL1        0.2490
     12  N         24.3890  -23.2740   -9.6980 N.am    1  UNL1       -0.3660
     13  H         23.9070  -24.1460   -9.8620 H       1  UNL1        0.1590
     14  H         25.3950  -23.3140   -9.5960 H       1  UNL1        0.1590
     15  O         24.6350  -21.1210  -10.3180 O.2     1  UNL1       -0.2680
     16  O         18.3750  -22.0140  -11.3910 O.2     1  UNL1       -0.3540
     17  C         17.7580  -20.7640  -11.6720 C.3     1  UNL1        0.2100
     18  C         17.6270  -23.5860   -7.2370 C.3     1  UNL1        0.0680
     19  C         16.8460  -24.9400   -7.0240 C.3     1  UNL1        0.0240
     20  C         15.5360  -24.1550   -7.1950 C.3     1  UNL1        0.0030
     21  C         16.3320  -23.1320   -8.0210 C.3     1  UNL1        0.0240
     22  C         18.0040  -22.6900   -5.9420 C.2     1  UNL1       -0.0370
     23  C         17.7110  -23.1460   -4.6340 C.2     1  UNL1        0.0090
     24  C         18.0110  -22.3950   -3.4930 C.2     1  UNL1        0.0040
     25  C         18.6170  -21.1510   -3.6220 C.2     1  UNL1        0.0420
     26  C         18.9080  -20.6750   -4.8900 C.2     1  UNL1        0.1170
     27  F         19.4860  -19.4740   -5.0270 F       1  UNL1       -0.2060
     28  C         18.6100  -21.4210   -6.0290 C.2     1  UNL1        0.0500
@<TRIPOS>BOND
     1     9     8    2
     2     9    10    1
     3     8     7    1
     4    17    16    1
     5    16    10    1
     6    10     5    2
     7     7    11    1
     8     7     6    2
     9    15    11    2
    10    11    12   am
    11     5     6    1
    12     5     1    1
    13    13    12    1
    14    12    14    1
    15     1     4    1
    16     1     2   am
    17     2     3    2
    18     2    18    1
    19    21    18    1
    20    21    20    1
    21    18    19    1
    22    18    22    1
    23    20    19    1
    24    28    22    2
    25    28    26    1
    26    22    23    1
    27    27    26    1
    28    26    25    2
    29    23    24    2
    30    25    24    1
