@<TRIPOS>MOLECULE
32563_out_ligand_01.pdbqt
 28 30 0 0 0
SMALL
GASTEIGER

@<TRIPOS>ATOM
      1  C         20.7530  -21.7290  -11.6840 C.2     1  UNL1        0.0400
      2  C         19.5920  -21.1010  -12.1550 C.2     1  UNL1        0.0180
      3  C         18.3680  -21.3690  -11.5570 C.2     1  UNL1        0.0030
      4  C         18.3000  -22.2460  -10.4750 C.2     1  UNL1        0.0300
      5  C         19.4510  -22.8550   -9.9500 C.2     1  UNL1        0.0440
      6  C         20.6940  -22.6230  -10.5870 C.2     1  UNL1       -0.0150
      7  C         21.9460  -23.3460  -10.1350 C.3     1  UNL1        0.0430
      8  C         21.7920  -24.0500   -8.7970 C.3     1  UNL1        0.0250
      9  C         20.4470  -24.7490   -8.7480 C.3     1  UNL1        0.1320
     10  N         19.3750  -23.7570   -8.8390 N.am    1  UNL1       -0.3170
     11  C         18.3590  -23.8380   -7.8840 C.2     1  UNL1        0.2280
     12  O         18.1340  -24.8860   -7.2670 O.2     1  UNL1       -0.2730
     13  C         17.5990  -22.5580   -7.5300 C.3     1  UNL1        0.1440
     14  C         17.8640  -22.1030   -6.1090 C.2     1  UNL1       -0.0160
     15  C         18.8910  -21.1810   -5.8510 C.2     1  UNL1        0.0100
     16  C         19.1570  -20.7600   -4.5470 C.2     1  UNL1        0.0010
     17  C         18.4000  -21.2530   -3.4860 C.2     1  UNL1        0.0030
     18  C         17.3850  -22.1780   -3.7250 C.2     1  UNL1        0.0370
     19  C         17.1350  -22.6190   -5.0260 C.2     1  UNL1        0.0810
     20  O         16.1290  -23.5120   -5.2820 O.2     1  UNL1       -0.2900
     21  C         14.8730  -23.0130   -4.8320 C.3     1  UNL1        0.5050
     22  F         14.5590  -21.9130   -5.5650 F       1  UNL1       -0.1840
     23  F         13.9390  -23.9510   -5.1400 F       1  UNL1       -0.1840
     24  C         22.0300  -21.4530  -12.3990 C.2     1  UNL1        0.2490
     25  N         21.9220  -20.7870  -13.5900 N.am    1  UNL1       -0.3660
     26  H         22.7890  -20.5030  -14.0280 H       1  UNL1        0.1590
     27  H         21.0710  -20.3240  -13.8740 H       1  UNL1        0.1590
     28  O         23.1200  -21.7810  -11.9540 O.2     1  UNL1       -0.2680
@<TRIPOS>BOND
     1    26    25    1
     2    27    25    1
     3    25    24   am
     4    24    28    2
     5    24     1    1
     6     2     1    2
     7     2     3    1
     8     1     6    1
     9     3     4    2
    10     6     7    1
    11     6     5    2
    12     4     5    1
    13     7     8    1
    14     5    10    1
    15    10     9    1
    16    10    11   am
    17     8     9    1
    18    11    13    1
    19    11    12    2
    20    13    14    1
    21    14    15    2
    22    14    19    1
    23    15    16    1
    24    22    21    1
    25    20    19    1
    26    20    21    1
    27    23    21    1
    28    19    18    2
    29    16    17    2
    30    18    17    1
