@<TRIPOS>MOLECULE
32560_out_ligand_01.pdbqt
 34 37 0 0 0
SMALL
GASTEIGER

@<TRIPOS>ATOM
      1  C         19.8640  -22.0480  -10.7950 C.2     1  UNL1        0.0340
      2  C         20.2790  -21.4030  -11.9640 C.2     1  UNL1        0.0310
      3  C         21.6080  -21.4970  -12.3930 C.2     1  UNL1        0.0270
      4  C         22.5280  -22.2300  -11.6430 C.2     1  UNL1        0.0800
      5  C         22.1240  -22.8970  -10.4860 C.2     1  UNL1        0.0270
      6  C         20.7950  -22.8030  -10.0660 C.2     1  UNL1        0.0310
      7  N         18.5480  -21.9950  -10.2920 N.am    1  UNL1       -0.3270
      8  C         17.4120  -21.5260  -10.9410 C.2     1  UNL1        0.2260
      9  O         17.3560  -21.0640  -12.0760 O.2     1  UNL1       -0.2730
     10  H         18.4330  -22.2660   -9.3220 H       1  UNL1        0.1690
     11  C         16.1610  -21.6280  -10.0800 C.3     1  UNL1        0.1440
     12  C         16.1910  -22.7740   -9.1220 C.2     1  UNL1       -0.0140
     13  C         15.7700  -24.0750   -9.3250 C.2     1  UNL1        0.1510
     14  O         15.9600  -24.8300   -8.2110 O.2     1  UNL1       -0.3210
     15  C         16.5340  -24.0250   -7.2760 C.2     1  UNL1        0.0850
     16  C         16.9100  -24.4160   -5.9940 C.2     1  UNL1        0.0390
     17  C         16.6990  -22.7440   -7.7820 C.2     1  UNL1        0.0070
     18  C         17.4950  -23.4330   -5.1860 C.2     1  UNL1        0.0100
     19  C         17.6930  -22.1190   -5.6440 C.2     1  UNL1       -0.0540
     20  C         17.2870  -21.7710   -6.9520 C.2     1  UNL1        0.0220
     21  C         18.3390  -21.0950   -4.7250 C.3     1  UNL1        0.0100
     22  C         19.6600  -20.5780   -5.3030 C.3     1  UNL1        0.0150
     23  C         18.5410  -21.6480   -3.3110 C.3     1  UNL1        0.0150
     24  S         24.2160  -22.3620  -12.1790 S.O2    1  UNL1        0.2760
     25  O         24.4570  -23.6920  -12.6980 O.2     1  UNL1       -0.2000
     26  O         25.0280  -21.8500  -11.0910 O.2     1  UNL1       -0.2000
     27  N         24.3340  -21.2430  -13.3970 N.pl3   1  UNL1       -0.1090
     28  H         24.6140  -20.3180  -13.0930 H       1  UNL1        0.1980
     29  C         24.9020  -21.6340  -14.6000 C.cat   1  UNL1        0.7350
     30  N         23.9960  -22.0310  -15.5020 N.2     1  UNL1       -0.0740
     31  C         24.5000  -22.5870  -16.6220 C.2     1  UNL1        0.1380
     32  C         25.8460  -22.7850  -16.8330 C.2     1  UNL1        0.0400
     33  C         26.6730  -22.3820  -15.8090 C.2     1  UNL1        0.1380
     34  N         26.2210  -21.8240  -14.6690 N.2     1  UNL1       -0.0740
@<TRIPOS>BOND
     1    32    31    2
     2    32    33    1
     3    31    30    1
     4    33    34    2
     5    30    29    2
     6    34    29    1
     7    29    27    1
     8    27    28    1
     9    27    24    1
    10    25    24    2
    11     3     2    1
    12     3     4    2
    13    24     4    1
    14    24    26    2
    15     9     8    2
    16     2     1    2
    17     4     5    1
    18     8     7   am
    19     8    11    1
    20     1     7    1
    21     1     6    1
    22     5     6    2
    23     7    10    1
    24    11    12    1
    25    13    12    2
    26    13    14    1
    27    12    17    1
    28    14    15    1
    29    17    15    2
    30    17    20    1
    31    15    16    1
    32    20    19    2
    33    16    18    2
    34    19    18    1
    35    19    21    1
    36    22    21    1
    37    21    23    1
