@<TRIPOS>MOLECULE
32616_out_ligand_01.pdbqt
 35 39 0 0 0
SMALL
GASTEIGER

@<TRIPOS>ATOM
      1  C         17.0270  -22.5210  -10.1070 C.2     1  UNL1       -0.0350
      2  C         16.8040  -21.4230  -10.9430 C.2     1  UNL1        0.0280
      3  C         17.8970  -20.7070  -11.3940 C.2     1  UNL1        0.1190
      4  N         19.1740  -21.0060  -11.0710 N.2     1  UNL1       -0.2430
      5  C         19.3790  -22.0520  -10.2390 C.2     1  UNL1        0.1300
      6  C         18.3420  -22.8280   -9.7390 C.2     1  UNL1        0.0590
      7  C         15.8690  -23.3330   -9.5980 C.3     1  UNL1        0.1610
      8  N         15.5580  -22.9720   -8.2370 N.am    1  UNL1       -0.3560
      9  C         15.9830  -23.7410   -7.1830 C.2     1  UNL1        0.2310
     10  O         16.5610  -24.8170   -7.2870 O.2     1  UNL1       -0.2720
     11  H         15.2540  -22.0260   -8.0470 H       1  UNL1        0.1620
     12  C         15.6970  -23.1550   -5.8240 C.3     1  UNL1        0.0680
     13  C         14.2650  -22.7290   -5.5000 C.3     1  UNL1        0.0260
     14  C         14.8050  -23.9850   -4.8980 C.3     1  UNL1        0.0260
     15  C         16.8530  -22.3970   -5.1760 C.2     1  UNL1       -0.0370
     16  C         16.8930  -22.2010   -3.7830 C.2     1  UNL1        0.0090
     17  C         17.9520  -21.5260   -3.1650 C.2     1  UNL1        0.0040
     18  C         19.0040  -21.0410   -3.9340 C.2     1  UNL1        0.0420
     19  C         18.9890  -21.2380   -5.3080 C.2     1  UNL1        0.1170
     20  F         20.0120  -20.7980   -6.0460 F       1  UNL1       -0.2060
     21  C         17.9330  -21.9030   -5.9280 C.2     1  UNL1        0.0500
     22  N         20.7250  -22.2760   -9.9650 N.am    1  UNL1       -0.3110
     23  C         21.7670  -22.4000  -10.8460 C.2     1  UNL1        0.2360
     24  O         21.7100  -22.3820  -12.0690 O.2     1  UNL1       -0.2720
     25  H         20.8950  -22.4460   -8.9850 H       1  UNL1        0.1700
     26  C         23.1050  -22.5840  -10.1570 C.3     1  UNL1        0.0680
     27  C         23.1920  -23.6850   -9.1000 C.3     1  UNL1        0.0260
     28  C         23.1810  -22.2560   -8.6660 C.3     1  UNL1        0.0260
     29  C         24.3460  -22.2810  -10.9970 C.2     1  UNL1       -0.0370
     30  C         24.7650  -23.1380  -12.0360 C.2     1  UNL1        0.0090
     31  C         25.8970  -22.8590  -12.8100 C.2     1  UNL1        0.0040
     32  C         26.6390  -21.7080  -12.5600 C.2     1  UNL1        0.0420
     33  C         26.2380  -20.8480  -11.5440 C.2     1  UNL1        0.1170
     34  F         26.9520  -19.7380  -11.3030 F       1  UNL1       -0.2060
     35  C         25.1100  -21.1210  -10.7720 C.2     1  UNL1        0.0500
@<TRIPOS>BOND
     1    31    32    2
     2    31    30    1
     3    32    33    1
     4    24    23    2
     5    30    29    2
     6    33    34    1
     7    33    35    2
     8     3     4    2
     9     3     2    1
    10     4     5    1
    11    29    35    1
    12    29    26    1
    13     2     1    2
    14    23    26    1
    15    23    22   am
    16     5    22    1
    17     5     6    2
    18    26    27    1
    19    26    28    1
    20     1     6    1
    21     1     7    1
    22    22    25    1
    23     7     8    1
    24    27    28    1
    25     8    11    1
    26     8     9   am
    27    10     9    2
    28     9    12    1
    29    20    19    1
    30    21    19    1
    31    21    15    2
    32    12    13    1
    33    12    15    1
    34    12    14    1
    35    13    14    1
    36    19    18    2
    37    15    16    1
    38    18    17    1
    39    16    17    2
