@<TRIPOS>MOLECULE
32629_out_ligand_01.pdbqt
 33 37 0 0 0
SMALL
GASTEIGER

@<TRIPOS>ATOM
      1  N         22.2850  -22.9260  -10.5450 N.am    1  UNL1       -0.3230
      2  C         21.8430  -22.4960   -9.3080 C.2     1  UNL1        0.2570
      3  O         22.5130  -22.0740   -8.3760 O.2     1  UNL1       -0.2670
      4  H         21.5900  -23.3370  -11.1590 H       1  UNL1        0.1690
      5  C         23.6030  -22.8950  -11.0440 C.2     1  UNL1        0.0350
      6  C         24.6230  -23.2900  -10.1740 C.2     1  UNL1        0.0290
      7  C         25.9510  -23.2840  -10.5950 C.2     1  UNL1        0.0030
      8  C         26.2700  -22.8890  -11.8940 C.2     1  UNL1        0.0100
      9  C         25.2680  -22.5010  -12.8030 C.2     1  UNL1       -0.0190
     10  C         23.9340  -22.5060  -12.3470 C.2     1  UNL1        0.0390
     11  C         25.6390  -22.0650  -14.2170 C.3     1  UNL1        0.1390
     12  C         27.1210  -21.7730  -14.4830 C.3     1  UNL1        0.0540
     13  N         25.1620  -23.0390  -15.1830 N.am    1  UNL1       -0.3210
     14  C         24.2860  -22.5020  -16.0910 C.2     1  UNL1        0.3240
     15  H         25.3780  -24.0270  -15.1690 H       1  UNL1        0.1650
     16  O         23.7280  -23.1210  -16.9760 O.2     1  UNL1       -0.2470
     17  N         24.1320  -21.1870  -15.8170 N.am    1  UNL1       -0.2770
     18  C         24.8320  -20.8360  -14.7020 C.2     1  UNL1        0.2580
     19  H         23.5090  -20.5770  -16.3170 H       1  UNL1        0.1730
     20  O         24.8150  -19.7210  -14.1990 O.2     1  UNL1       -0.2700
     21  C         20.3830  -22.6440   -9.1080 C.2     1  UNL1        0.0460
     22  C         19.9850  -23.3910   -8.0000 C.2     1  UNL1        0.0450
     23  C         18.6340  -23.6100   -7.7870 C.2     1  UNL1        0.0400
     24  N         17.7110  -23.1160   -8.6490 N.2     1  UNL1       -0.2520
     25  C         18.0900  -22.3660   -9.6980 C.2     1  UNL1        0.0680
     26  C         17.1050  -21.8530  -10.5310 C.2     1  UNL1        0.0320
     27  C         19.4360  -22.0760   -9.9840 C.2     1  UNL1        0.0080
     28  C         17.4090  -21.0480  -11.6310 C.2     1  UNL1        0.0020
     29  C         18.7320  -20.7360  -11.9090 C.2     1  UNL1        0.0010
     30  C         19.7410  -21.2410  -11.0910 C.2     1  UNL1        0.0150
     31  C         18.1590  -24.4260   -6.6100 C.3     1  UNL1        0.0380
     32  C         17.7720  -23.7430   -5.3180 C.3     1  UNL1        0.0110
     33  C         16.7100  -24.3530   -6.1820 C.3     1  UNL1        0.0110
@<TRIPOS>BOND
     1    16    14    2
     2    19    17    1
     3    14    17   am
     4    14    13   am
     5    17    18   am
     6    13    15    1
     7    13    11    1
     8    18    11    1
     9    18    20    2
    10    12    11    1
    11    11     9    1
    12     9    10    1
    13     9     8    2
    14    10     5    2
    15    29    28    1
    16    29    30    2
    17     8     7    1
    18    28    26    2
    19     4     1    1
    20    30    27    1
    21     5     1    1
    22     5     6    1
    23     7     6    2
    24     1     2   am
    25    26    25    1
    26    27    25    1
    27    27    21    2
    28    25    24    2
    29     2    21    1
    30     2     3    2
    31    21    22    1
    32    24    23    1
    33    22    23    2
    34    23    31    1
    35    31    33    1
    36    31    32    1
    37    33    32    1
