@<TRIPOS>MOLECULE
3262_out_ligand_01.pdbqt
 27 29 0 0 0
SMALL
GASTEIGER

@<TRIPOS>ATOM
      1  C         22.4060  -22.2460  -10.4320 C.ar    1  UNL1        0.0980
      2  S         24.0140  -22.7650  -10.2530 S.2     1  UNL1       -0.0720
      3  C         24.4090  -22.4030  -11.8730 C.ar    1  UNL1        0.0300
      4  C         23.3220  -21.8840  -12.5520 C.ar    1  UNL1       -0.0160
      5  C         22.1600  -21.8070  -11.7200 C.ar    1  UNL1        0.0860
      6  C         20.8800  -21.3330  -12.1520 C.1     1  UNL1        0.1030
      7  N         19.8270  -20.9560  -12.4670 N.1     1  UNL1       -0.1910
      8  C         23.4440  -21.4960  -13.9950 C.3     1  UNL1        0.0820
      9  C         24.9210  -21.1930  -14.3790 C.3     1  UNL1        0.1550
     10  C         25.0290  -21.1960  -15.9170 C.3     1  UNL1        0.0490
     11  C         25.3370  -19.7970  -13.8820 C.3     1  UNL1        0.0490
     12  N         25.8380  -22.2480  -13.9010 N.3     1  UNL1        0.1060
     13  C         25.7920  -22.6250  -12.4650 C.3     1  UNL1        0.1850
     14  C         26.8770  -21.8570  -11.6850 C.3     1  UNL1        0.0540
     15  C         26.1430  -24.1270  -12.4450 C.3     1  UNL1        0.0540
     16  H         26.7980  -22.0410  -14.1750 H       1  UNL1        0.3180
     17  N         21.4970  -22.3090   -9.3810 N.am    1  UNL1       -0.3160
     18  C         20.8690  -23.4420   -8.8940 C.2     1  UNL1        0.2560
     19  O         21.0500  -24.6050   -9.2320 O.2     1  UNL1       -0.2670
     20  H         21.3380  -21.4440   -8.8770 H       1  UNL1        0.1690
     21  C         19.9000  -23.1810   -7.7900 C.2     1  UNL1        0.0320
     22  C         18.8980  -24.1250   -7.5440 C.2     1  UNL1        0.0170
     23  C         17.9830  -23.9210   -6.5110 C.2     1  UNL1        0.0020
     24  C         18.0580  -22.7660   -5.7320 C.2     1  UNL1        0.0070
     25  C         19.0320  -21.7950   -5.9890 C.2     1  UNL1       -0.0610
     26  C         19.1130  -20.5590   -5.1400 C.3     1  UNL1        0.0480
     27  C         19.9600  -22.0110   -7.0180 C.2     1  UNL1        0.0230
@<TRIPOS>BOND
     1    10     9    1
     2     9     8    1
     3     9    12    1
     4     9    11    1
     5    16    12    1
     6     8     4    1
     7    12    13    1
     8     4     3   ar
     9     4     5   ar
    10     7     6    3
    11    13    15    1
    12    13     3    1
    13    13    14    1
    14     6     5    1
    15     3     2   ar
    16     5     1   ar
    17     1     2   ar
    18     1    17    1
    19    17    18   am
    20    17    20    1
    21    19    18    2
    22    18    21    1
    23    21    22    2
    24    21    27    1
    25    22    23    1
    26    27    25    2
    27    23    24    2
    28    25    24    1
    29    25    26    1
