@<TRIPOS>MOLECULE
32660_out_ligand_01.pdbqt
 31 35 0 0 0
SMALL
GASTEIGER

@<TRIPOS>ATOM
      1  O         21.1700  -21.6590   -8.0450 O.2     1  UNL1       -0.2540
      2  C         20.7500  -22.7540   -8.3980 C.2     1  UNL1        0.2970
      3  N         21.5200  -23.7010   -9.0220 N.am    1  UNL1       -0.3430
      4  N         19.4590  -23.1860   -8.1830 N.am    1  UNL1       -0.2240
      5  C         18.5700  -23.6470   -9.2550 C.3     1  UNL1        0.1130
      6  C         17.3910  -23.2420   -8.3320 C.3     1  UNL1       -0.0010
      7  C         16.2490  -22.5290   -9.0690 C.3     1  UNL1        0.0400
      8  C         15.2140  -23.6040   -9.1600 C.3     1  UNL1       -0.0300
      9  C         15.4960  -24.6470   -8.3720 C.3     1  UNL1       -0.0300
     10  C         16.7680  -24.4510   -7.6070 C.3     1  UNL1        0.0400
     11  C         18.4110  -22.3270   -7.5890 C.3     1  UNL1        0.1100
     12  H         21.1350  -24.6340   -9.0550 H       1  UNL1        0.1640
     13  C         22.9430  -23.5360   -9.2110 C.3     1  UNL1        0.1640
     14  C         23.1870  -22.9320  -10.5690 C.2     1  UNL1       -0.0140
     15  C         22.1690  -22.4260  -11.2890 C.2     1  UNL1        0.1010
     16  N         22.3470  -21.8770  -12.5280 N.am    1  UNL1       -0.3320
     17  C         23.5590  -21.7780  -13.1690 C.2     1  UNL1        0.2560
     18  H         21.5540  -21.5060  -13.0390 H       1  UNL1        0.1680
     19  O         23.6560  -21.2870  -14.2880 O.2     1  UNL1       -0.2670
     20  C         24.7360  -22.2970  -12.4270 C.2     1  UNL1        0.0430
     21  C         26.0050  -22.2140  -13.0190 C.2     1  UNL1        0.0180
     22  C         24.5570  -22.8530  -11.1450 C.2     1  UNL1       -0.0110
     23  C         27.1200  -22.6810  -12.3320 C.2     1  UNL1        0.0010
     24  C         26.9690  -23.2240  -11.0590 C.2     1  UNL1        0.0010
     25  C         25.7000  -23.3060  -10.4710 C.2     1  UNL1        0.0130
     26  C         18.3460  -22.2340   -6.0020 C.2     1  UNL1       -0.0390
     27  C         18.8700  -21.1140   -5.3230 C.2     1  UNL1        0.0090
     28  C         18.8370  -21.0060   -3.9290 C.2     1  UNL1        0.0010
     29  C         18.2740  -22.0240   -3.1670 C.2     1  UNL1        0.0000
     30  C         17.7420  -23.1420   -3.8000 C.2     1  UNL1        0.0010
     31  C         17.7780  -23.2420   -5.1930 C.2     1  UNL1        0.0090
@<TRIPOS>BOND
     1    19    17    2
     2    17    16   am
     3    17    20    1
     4    18    16    1
     5    21    20    2
     6    21    23    1
     7    16    15    1
     8    20    22    1
     9    23    24    2
    10    15    14    2
    11    22    14    1
    12    22    25    2
    13    24    25    1
    14    14    13    1
    15     5     6    1
    16     5     4    1
    17    13     3    1
    18     8     7    1
    19     8     9    1
    20     7     6    1
    21    12     3    1
    22     3     2   am
    23     2     4   am
    24     2     1    2
    25     9    10    1
    26     6    10    1
    27     6    11    1
    28     4    11    1
    29    11    26    1
    30    26    27    2
    31    26    31    1
    32    27    28    1
    33    31    30    2
    34    28    29    2
    35    30    29    1
