@<TRIPOS>MOLECULE
32708_out_ligand_01.pdbqt
 31 33 0 0 0
SMALL
GASTEIGER

@<TRIPOS>ATOM
      1  C         21.8530  -22.6770  -11.1240 C.2     1  UNL1        0.0240
      2  C         20.9690  -21.7670  -11.6990 C.2     1  UNL1        0.0250
      3  C         19.6630  -21.6750  -11.2130 C.2     1  UNL1        0.0200
      4  C         19.2340  -22.4910  -10.1510 C.2     1  UNL1        0.0530
      5  C         20.1210  -23.4300   -9.6070 C.2     1  UNL1        0.0510
      6 CL         19.6830  -24.5400   -8.3580 Cl      1  UNL1       -0.0830
      7  C         21.4290  -23.5210  -10.0990 C.2     1  UNL1        0.0490
      8  N         23.1830  -22.8220  -11.6330 N.pl3   1  UNL1       -0.1810
      9  H         23.4470  -23.8080  -11.6990 H       1  UNL1        0.1460
     10  S         24.3880  -22.0900  -10.6650 S.O2    1  UNL1        0.2450
     11  O         23.7830  -21.2230   -9.6790 O.2     1  UNL1       -0.2060
     12  O         25.2970  -23.1570  -10.3000 O.2     1  UNL1       -0.2060
     13  C         25.1860  -21.0600  -11.8710 C.2     1  UNL1        0.0740
     14  C         26.2490  -20.2360  -11.4950 C.2     1  UNL1        0.0250
     15  C         26.8570  -19.4220  -12.4540 C.2     1  UNL1        0.0080
     16  C         26.4070  -19.4280  -13.7820 C.2     1  UNL1       -0.0620
     17  C         27.0400  -18.5240  -14.7990 C.3     1  UNL1        0.0480
     18  C         25.3190  -20.2410  -14.1370 C.2     1  UNL1        0.0080
     19  C         24.7090  -21.0590  -13.1850 C.2     1  UNL1        0.0250
     20  C         17.8310  -22.2960   -9.6970 C.2     1  UNL1        0.2530
     21  O         16.9770  -21.9490  -10.5060 O.2     1  UNL1       -0.2680
     22  N         17.5890  -22.4570   -8.3530 N.am    1  UNL1       -0.3520
     23  H         18.3150  -22.8460   -7.7620 H       1  UNL1        0.1630
     24  C         16.2510  -22.4380   -7.8090 C.3     1  UNL1        0.1640
     25  C         16.2710  -22.7320   -6.3360 C.2     1  UNL1       -0.0020
     26  C         17.4160  -23.2620   -5.7240 C.2     1  UNL1        0.0120
     27  C         17.4340  -23.5040   -4.3470 C.2     1  UNL1        0.0010
     28  C         16.3140  -23.2110   -3.5670 C.2     1  UNL1        0.0030
     29  C         15.1760  -22.6690   -4.1640 C.2     1  UNL1        0.0430
     30  C         15.1650  -22.4320   -5.5360 C.2     1  UNL1        0.1240
     31  F         14.0680  -21.8940   -6.0900 F       1  UNL1       -0.2050
@<TRIPOS>BOND
     1    17    16    1
     2    18    16    2
     3    18    19    1
     4    16    15    1
     5    19    13    2
     6    15    14    2
     7    13    14    1
     8    13    10    1
     9     2     3    1
    10     2     1    2
    11     9     8    1
    12     8     1    1
    13     8    10    1
    14     3     4    2
    15     1     7    1
    16    10    12    2
    17    10    11    2
    18    21    20    2
    19     4    20    1
    20     4     5    1
    21     7     5    2
    22    20    22   am
    23     5     6    1
    24    22    24    1
    25    22    23    1
    26    24    25    1
    27    25    26    2
    28    25    30    1
    29    31    30    1
    30    26    27    1
    31    30    29    2
    32    27    28    2
    33    29    28    1
