@<TRIPOS>MOLECULE
32718_out_ligand_01.pdbqt
 33 36 0 0 0
SMALL
GASTEIGER

@<TRIPOS>ATOM
      1  C         19.9470  -22.3730  -10.5560 C.2     1  UNL1        0.0330
      2  C         19.4340  -21.5540  -11.5720 C.2     1  UNL1        0.0170
      3  C         18.0760  -21.2250  -11.6000 C.2     1  UNL1        0.0030
      4  C         17.2250  -21.6970  -10.6030 C.2     1  UNL1        0.0250
      5  C         17.7450  -22.4840   -9.5700 C.2     1  UNL1        0.0800
      6  C         19.1000  -22.8350   -9.5430 C.2     1  UNL1        0.0420
      7  C         21.3980  -22.7020  -10.5760 C.2     1  UNL1        0.2510
      8  O         21.8400  -23.5620   -9.8220 O.2     1  UNL1       -0.2680
      9  N         22.1750  -21.9720  -11.4490 N.am    1  UNL1       -0.3530
     10  H         21.7960  -21.1260  -11.8520 H       1  UNL1        0.1630
     11  C         23.6160  -22.0940  -11.4520 C.3     1  UNL1        0.1610
     12  C         24.1140  -22.4830  -12.8200 C.2     1  UNL1       -0.0380
     13  C         24.8520  -23.6640  -12.9950 C.2     1  UNL1        0.0120
     14  C         25.3340  -24.0220  -14.2560 C.2     1  UNL1        0.0400
     15  C         25.0860  -23.2000  -15.3520 C.2     1  UNL1        0.1020
     16  C         24.3830  -22.0040  -15.1830 C.2     1  UNL1        0.1020
     17  O         25.5690  -23.6230  -16.5640 O.2     1  UNL1       -0.3460
     18  C         23.8890  -21.6510  -13.9270 C.2     1  UNL1        0.0480
     19  O         24.1350  -21.1260  -16.2080 O.2     1  UNL1       -0.3460
     20  C         24.9600  -21.4070  -17.3450 C.3     1  UNL1        0.2020
     21  C         24.9740  -22.8970  -17.6430 C.3     1  UNL1        0.2020
     22  S         16.6700  -23.0850   -8.2860 S.O2    1  UNL1        0.2630
     23  O         16.0200  -24.2710   -8.8010 O.2     1  UNL1       -0.2000
     24  O         15.9030  -21.9650   -7.7830 O.2     1  UNL1       -0.2000
     25  N         17.7450  -23.6080   -7.0910 N.pl3   1  UNL1       -0.2780
     26  H         18.5700  -24.0440   -7.5060 H       1  UNL1        0.1790
     27  C         18.0000  -22.7420   -5.9840 C.2     1  UNL1        0.0810
     28  C         18.8630  -21.6550   -6.1040 C.2     1  UNL1        0.0330
     29  C         19.1270  -20.8530   -4.9890 C.2     1  UNL1        0.0020
     30  C         18.5330  -21.1400   -3.7570 C.2     1  UNL1        0.0030
     31  C         17.6710  -22.2290   -3.6350 C.2     1  UNL1        0.0440
     32  C         17.4100  -23.0200   -4.7480 C.2     1  UNL1        0.1430
     33  F         16.5890  -24.0760   -4.6280 F       1  UNL1       -0.2040
@<TRIPOS>BOND
     1    21    20    1
     2    21    17    1
     3    20    19    1
     4    17    15    1
     5    19    16    1
     6    15    16    2
     7    15    14    1
     8    16    18    1
     9    14    13    2
    10    18    12    2
    11    13    12    1
    12    12    11    1
    13    10     9    1
    14     3     2    1
    15     3     4    2
    16     2     1    2
    17    11     9    1
    18     9     7   am
    19     4     5    1
    20     7     1    1
    21     7     8    2
    22     1     6    1
    23     5     6    2
    24     5    22    1
    25    23    22    2
    26    22    24    2
    27    22    25    1
    28    26    25    1
    29    25    27    1
    30    28    27    2
    31    28    29    1
    32    27    32    1
    33    29    30    2
    34    32    33    1
    35    32    31    2
    36    30    31    1
