@<TRIPOS>MOLECULE
32714_out_ligand_01.pdbqt
 33 36 0 0 0
SMALL
GASTEIGER

@<TRIPOS>ATOM
      1  C         21.6300  -22.8670  -10.0630 C.2     1  UNL1        0.0800
      2  C         21.8880  -24.0310   -9.3310 C.2     1  UNL1        0.0250
      3  C         20.8280  -24.7370   -8.7590 C.2     1  UNL1        0.0030
      4  C         19.5170  -24.2910   -8.9370 C.2     1  UNL1        0.0170
      5  C         19.2690  -23.1510   -9.7100 C.2     1  UNL1        0.0330
      6  C         20.3220  -22.4220  -10.2650 C.2     1  UNL1        0.0420
      7  C         17.8760  -22.6870   -9.8750 C.2     1  UNL1        0.2530
      8  O         17.6760  -21.8520  -10.7530 O.2     1  UNL1       -0.2670
      9  N         16.8840  -23.2200   -9.0570 N.am    1  UNL1       -0.3480
     10  C         15.4970  -22.9170   -9.3840 C.3     1  UNL1        0.1530
     11  C         17.1410  -24.0940   -7.9020 C.3     1  UNL1        0.1650
     12  C         16.7660  -23.5020   -6.5580 C.2     1  UNL1       -0.0290
     13  C         15.5710  -23.9380   -5.9550 C.2     1  UNL1        0.0100
     14  C         15.1700  -23.4390   -4.7220 C.2     1  UNL1        0.0020
     15  C         15.9580  -22.4970   -4.0670 C.2     1  UNL1        0.0120
     16  C         17.1540  -22.0370   -4.6370 C.2     1  UNL1       -0.0250
     17  C         17.9320  -21.0850   -3.9590 C.2     1  UNL1        0.0120
     18  C         17.5770  -22.5340   -5.8960 C.2     1  UNL1       -0.0180
     19  C         19.1230  -20.6100   -4.5040 C.2     1  UNL1        0.0010
     20  C         19.5510  -21.0830   -5.7360 C.2     1  UNL1        0.0010
     21  C         18.7890  -22.0320   -6.4220 C.2     1  UNL1        0.0130
     22  S         22.9750  -21.9540  -10.7850 S.O2    1  UNL1        0.2630
     23  O         22.5040  -21.3600  -12.0170 O.2     1  UNL1       -0.2000
     24  O         23.5460  -21.1410   -9.7330 O.2     1  UNL1       -0.2000
     25  N         24.1100  -23.1550  -11.1260 N.pl3   1  UNL1       -0.2810
     26  H         23.7940  -24.0790  -10.8370 H       1  UNL1        0.1790
     27  C         24.8830  -23.0630  -12.3160 C.2     1  UNL1        0.0420
     28  C         25.6480  -21.9300  -12.5850 C.2     1  UNL1        0.0300
     29  C         26.3680  -21.8400  -13.7790 C.2     1  UNL1        0.0090
     30  C         26.3170  -22.8780  -14.7170 C.2     1  UNL1       -0.0620
     31  C         27.1150  -22.7960  -15.9850 C.3     1  UNL1        0.0480
     32  C         25.5590  -24.0190  -14.4300 C.2     1  UNL1        0.0090
     33  C         24.8410  -24.1110  -13.2350 C.2     1  UNL1        0.0300
@<TRIPOS>BOND
     1    31    30    1
     2    30    32    2
     3    30    29    1
     4    32    33    1
     5    29    28    2
     6    33    27    2
     7    28    27    1
     8    27    25    1
     9    23    22    2
    10    25    26    1
    11    25    22    1
    12    22     1    1
    13    22    24    2
    14     8     7    2
    15     6     1    2
    16     6     5    1
    17     1     2    1
    18     7     5    1
    19     7     9   am
    20     5     4    2
    21    10     9    1
    22     2     3    2
    23     9    11    1
    24     4     3    1
    25    11    12    1
    26    12    13    2
    27    12    18    1
    28    21    18    1
    29    21    20    2
    30    13    14    1
    31    18    16    2
    32    20    19    1
    33    14    15    2
    34    16    15    1
    35    16    17    1
    36    19    17    2
