@<TRIPOS>MOLECULE
32726_out_ligand_01.pdbqt
 33 36 0 0 0
SMALL
GASTEIGER

@<TRIPOS>ATOM
      1  C         20.2610  -22.0830   -7.0250 C.2     1  UNL1        0.0330
      2  C         20.1120  -21.0040   -6.1430 C.2     1  UNL1        0.0170
      3  C         18.9610  -20.8940   -5.3580 C.2     1  UNL1        0.0030
      4  C         17.9620  -21.8640   -5.4390 C.2     1  UNL1        0.0250
      5  C         18.1250  -22.9470   -6.3080 C.2     1  UNL1        0.0800
      6  C         19.2630  -23.0590   -7.1100 C.2     1  UNL1        0.0420
      7  C         21.4830  -22.2590   -7.8530 C.2     1  UNL1        0.2510
      8  O         22.4450  -21.5220   -7.6700 O.2     1  UNL1       -0.2680
      9  N         21.4520  -23.2810   -8.7740 N.am    1  UNL1       -0.3530
     10  H         20.7230  -23.9770   -8.7030 H       1  UNL1        0.1630
     11  C         22.6340  -23.6570   -9.5200 C.3     1  UNL1        0.1610
     12  C         22.7040  -22.8960  -10.8190 C.2     1  UNL1       -0.0380
     13  C         21.5850  -22.2050  -11.3070 C.2     1  UNL1        0.0120
     14  C         21.6510  -21.5190  -12.5230 C.2     1  UNL1        0.0400
     15  C         22.8340  -21.5210  -13.2590 C.2     1  UNL1        0.1020
     16  C         23.9440  -22.2350  -12.7970 C.2     1  UNL1        0.1020
     17  O         22.8310  -20.8110  -14.4320 O.2     1  UNL1       -0.3460
     18  C         23.8840  -22.9080  -11.5780 C.2     1  UNL1        0.0480
     19  O         25.1270  -22.3120  -13.4880 O.2     1  UNL1       -0.3460
     20  C         24.9650  -21.8960  -14.8470 C.3     1  UNL1        0.2020
     21  C         24.1620  -20.6080  -14.9210 C.3     1  UNL1        0.2020
     22  S         16.8800  -24.2130   -6.4010 S.O2    1  UNL1        0.2630
     23  O         17.5310  -25.4610   -6.7360 O.2     1  UNL1       -0.2000
     24  O         16.0560  -24.0890   -5.2180 O.2     1  UNL1       -0.2000
     25  N         15.9280  -23.7130   -7.7050 N.pl3   1  UNL1       -0.2810
     26  H         15.0380  -23.3240   -7.3980 H       1  UNL1        0.1790
     27  C         16.5540  -23.1300   -8.8410 C.2     1  UNL1        0.0420
     28  C         16.1490  -21.8580   -9.2560 C.2     1  UNL1        0.0330
     29  C         16.7720  -21.2530  -10.3490 C.2     1  UNL1        0.0440
     30  C         17.7890  -21.9240  -11.0190 C.2     1  UNL1        0.1160
     31  F         18.3870  -21.3420  -12.0650 F       1  UNL1       -0.2060
     32  C         18.1930  -23.1920  -10.6170 C.2     1  UNL1        0.0440
     33  C         17.5730  -23.7980   -9.5230 C.2     1  UNL1        0.0330
@<TRIPOS>BOND
     1    21    20    1
     2    21    17    1
     3    20    19    1
     4    17    15    1
     5    19    16    1
     6    15    16    2
     7    15    14    1
     8    16    18    1
     9    14    13    2
    10    31    30    1
    11    18    12    2
    12    13    12    1
    13    30    32    2
    14    30    29    1
    15    12    11    1
    16    32    33    1
    17    29    28    2
    18    33    27    2
    19    11     9    1
    20    28    27    1
    21    27    25    1
    22     9    10    1
    23     9     7   am
    24     7     8    2
    25     7     1    1
    26    25    26    1
    27    25    22    1
    28     6     1    2
    29     6     5    1
    30     1     2    1
    31    23    22    2
    32    22     5    1
    33    22    24    2
    34     5     4    2
    35     2     3    2
    36     4     3    1
