@<TRIPOS>MOLECULE
32735_out_ligand_01.pdbqt
 32 34 0 0 0
SMALL
GASTEIGER

@<TRIPOS>ATOM
      1  C         20.3260  -22.9890  -10.1130 C.2     1  UNL1        0.0330
      2  C         19.6680  -22.0160  -10.8700 C.2     1  UNL1        0.0170
      3  C         20.3260  -21.4040  -11.9400 C.2     1  UNL1        0.0090
      4  C         21.6400  -21.7690  -12.2750 C.2     1  UNL1       -0.0400
      5  C         22.3240  -21.0750  -13.4190 C.3     1  UNL1        0.0500
      6  C         22.2860  -22.7530  -11.5100 C.2     1  UNL1        0.0290
      7  C         21.6350  -23.3610  -10.4350 C.2     1  UNL1        0.0420
      8  C         19.6640  -23.6650   -8.9690 C.2     1  UNL1        0.2520
      9  N         18.4010  -23.2080   -8.6560 N.am    1  UNL1       -0.3480
     10  H         18.0880  -22.3480   -9.0790 H       1  UNL1        0.1630
     11  O         20.2510  -24.5530   -8.3650 O.2     1  UNL1       -0.2680
     12  C         17.7160  -23.6510   -7.4530 C.3     1  UNL1        0.1180
     13  C         16.2020  -23.8180   -7.6850 C.3     1  UNL1        0.0250
     14  C         15.6770  -22.8950   -8.7790 C.3     1  UNL1        0.0070
     15  C         17.9980  -22.7480   -6.2500 C.2     1  UNL1       -0.0300
     16  C         18.9360  -21.7110   -6.4500 C.2     1  UNL1        0.0100
     17  C         19.2880  -20.8300   -5.4290 C.2     1  UNL1        0.0010
     18  C         18.7080  -20.9650   -4.1760 C.2     1  UNL1        0.0010
     19  C         17.7800  -21.9790   -3.9510 C.2     1  UNL1        0.0070
     20  C         17.4190  -22.8870   -4.9670 C.2     1  UNL1       -0.0540
     21  C         16.3750  -23.9130   -4.6230 C.3     1  UNL1        0.0490
     22  N         23.6560  -23.0960  -11.7820 N.pl3   1  UNL1       -0.1810
     23  H         23.8070  -24.0950  -11.6260 H       1  UNL1        0.1460
     24  S         24.7820  -22.2840  -10.7820 S.O2    1  UNL1        0.2450
     25  O         24.1040  -21.3180   -9.9470 O.2     1  UNL1       -0.2060
     26  O         25.6440  -23.3060  -10.2280 O.2     1  UNL1       -0.2060
     27  C         25.7040  -21.3840  -12.0030 C.2     1  UNL1        0.0740
     28  C         25.8250  -21.9140  -13.2910 C.2     1  UNL1        0.0250
     29  C         26.5400  -21.2080  -14.2590 C.2     1  UNL1        0.0020
     30  C         27.1210  -19.9800  -13.9400 C.2     1  UNL1        0.0000
     31  C         26.9850  -19.4490  -12.6550 C.2     1  UNL1        0.0020
     32  C         26.2730  -20.1490  -11.6810 C.2     1  UNL1        0.0250
@<TRIPOS>BOND
     1    29    30    2
     2    29    28    1
     3    30    31    1
     4     5     4    1
     5    28    27    2
     6    31    32    2
     7     4     3    2
     8     4     6    1
     9    27    32    1
    10    27    24    1
    11     3     2    1
    12    22    23    1
    13    22     6    1
    14    22    24    1
    15     6     7    2
    16     2     1    2
    17    24    26    2
    18    24    25    2
    19     7     1    1
    20     1     8    1
    21    10     9    1
    22     8     9   am
    23     8    11    2
    24    14    13    1
    25     9    12    1
    26    13    12    1
    27    12    15    1
    28    16    15    2
    29    16    17    1
    30    15    20    1
    31    17    18    2
    32    20    21    1
    33    20    19    2
    34    18    19    1
