@<TRIPOS>MOLECULE
32733_out_ligand_01.pdbqt
 33 35 0 0 0
SMALL
GASTEIGER

@<TRIPOS>ATOM
      1  C         20.7270  -22.5460  -10.8520 C.2     1  UNL1        0.0230
      2  C         20.8220  -21.4450  -11.7030 C.2     1  UNL1        0.0240
      3  C         19.7110  -20.6280  -11.9120 C.2     1  UNL1        0.0030
      4  C         18.5080  -20.9050  -11.2600 C.2     1  UNL1        0.0170
      5  C         18.4220  -21.9900  -10.3760 C.2     1  UNL1        0.0330
      6  C         19.5390  -22.8130  -10.1760 C.2     1  UNL1        0.0410
      7  C         17.1580  -22.3350   -9.6660 C.2     1  UNL1        0.2520
      8  O         16.0770  -22.1030  -10.1940 O.2     1  UNL1       -0.2680
      9  N         17.2900  -22.9170   -8.4280 N.am    1  UNL1       -0.3490
     10  H         18.1900  -23.2780   -8.1390 H       1  UNL1        0.1630
     11  C         16.1390  -23.3130   -7.6300 C.3     1  UNL1        0.1140
     12  C         15.8240  -24.7990   -7.8140 C.3     1  UNL1        0.0370
     13  C         16.3920  -22.9130   -6.1820 C.2     1  UNL1       -0.0290
     14  C         17.5330  -22.1550   -5.8470 C.2     1  UNL1        0.0160
     15  C         17.7860  -21.7460   -4.5310 C.2     1  UNL1       -0.0610
     16  C         18.9880  -20.9050   -4.2100 C.3     1  UNL1        0.0480
     17  C         16.8690  -22.0740   -3.5330 C.2     1  UNL1        0.0070
     18  C         15.7280  -22.8090   -3.8430 C.2     1  UNL1        0.0080
     19  C         15.4670  -23.2230   -5.1590 C.2     1  UNL1       -0.0540
     20  C         14.1990  -23.9930   -5.4340 C.3     1  UNL1        0.0490
     21  N         21.8780  -23.3730  -10.6410 N.pl3   1  UNL1       -0.1810
     22  H         21.6200  -24.2370  -10.1560 H       1  UNL1        0.1460
     23  S         23.1090  -22.6410   -9.7130 S.O2    1  UNL1        0.2450
     24  O         23.6760  -23.6880   -8.8910 O.2     1  UNL1       -0.2060
     25  O         22.6460  -21.3910   -9.1540 O.2     1  UNL1       -0.2060
     26  C         24.2740  -22.2500  -10.9970 C.2     1  UNL1        0.0750
     27  C         24.2260  -22.9630  -12.1970 C.2     1  UNL1        0.0270
     28  C         25.1520  -22.6720  -13.2000 C.2     1  UNL1        0.0380
     29  C         26.1200  -21.6770  -13.0130 C.2     1  UNL1        0.0680
     30  C         26.1440  -20.9570  -11.8170 C.2     1  UNL1        0.0380
     31  C         25.2180  -21.2400  -10.8060 C.2     1  UNL1        0.0270
     32  O         26.9740  -21.5100  -14.0680 O.2     1  UNL1       -0.3560
     33  C         26.8000  -22.3760  -15.1820 C.3     1  UNL1        0.2100
@<TRIPOS>BOND
     1    33    32    1
     2    32    29    1
     3    28    29    2
     4    28    27    1
     5    29    30    1
     6    27    26    2
     7     3     2    1
     8     3     4    2
     9    30    31    2
    10     2     1    2
    11     4     5    1
    12    26    31    1
    13    26    23    1
    14     1    21    1
    15     1     6    1
    16    21    22    1
    17    21    23    1
    18     5     6    2
    19     5     7    1
    20     8     7    2
    21    23    25    2
    22    23    24    2
    23     7     9   am
    24     9    10    1
    25     9    11    1
    26    12    11    1
    27    11    13    1
    28    13    14    2
    29    13    19    1
    30    14    15    1
    31    20    19    1
    32    19    18    2
    33    15    16    1
    34    15    17    2
    35    18    17    1
