@<TRIPOS>MOLECULE
32737_out_ligand_01.pdbqt
 30 32 0 0 0
SMALL
GASTEIGER

@<TRIPOS>ATOM
      1  C         20.5260  -21.9370  -10.2490 C.2     1  UNL1        0.0800
      2  C         20.4320  -21.1000  -11.3650 C.2     1  UNL1        0.0250
      3  C         19.1770  -20.7990  -11.8940 C.2     1  UNL1        0.0030
      4  C         18.0240  -21.3230  -11.3030 C.2     1  UNL1        0.0170
      5  C         18.1230  -22.1450  -10.1710 C.2     1  UNL1        0.0330
      6  C         19.3800  -22.4610   -9.6460 C.2     1  UNL1        0.0420
      7  S         22.1170  -22.3260   -9.5650 S.O2    1  UNL1        0.2630
      8  O         21.8890  -23.1760   -8.4160 O.2     1  UNL1       -0.2000
      9  O         22.8850  -21.1050   -9.4450 O.2     1  UNL1       -0.2000
     10  N         22.8020  -23.3110  -10.7550 N.pl3   1  UNL1       -0.2810
     11  H         22.8760  -24.2750  -10.4340 H       1  UNL1        0.1790
     12  C         23.8810  -22.7860  -11.5170 C.2     1  UNL1        0.0420
     13  C         25.1890  -22.9250  -11.0610 C.2     1  UNL1        0.0300
     14  C         26.2420  -22.3780  -11.7970 C.2     1  UNL1        0.0090
     15  C         25.9910  -21.6950  -12.9940 C.2     1  UNL1       -0.0620
     16  C         27.1200  -21.0770  -13.7670 C.3     1  UNL1        0.0480
     17  C         24.6690  -21.5440  -13.4300 C.2     1  UNL1        0.0090
     18  C         23.6160  -22.0900  -12.6940 C.2     1  UNL1        0.0300
     19  C         16.9210  -22.7340   -9.5250 C.2     1  UNL1        0.2510
     20  O         15.8050  -22.4460   -9.9420 O.2     1  UNL1       -0.2680
     21  N         17.1550  -23.6000   -8.4830 N.am    1  UNL1       -0.3530
     22  H         18.0980  -23.8400   -8.2120 H       1  UNL1        0.1630
     23  C         16.0770  -24.1900   -7.7210 C.3     1  UNL1        0.1640
     24  C         16.0110  -23.5930   -6.3430 C.2     1  UNL1       -0.0020
     25  C         14.9440  -22.7620   -5.9750 C.2     1  UNL1        0.0120
     26  C         14.8950  -22.1960   -4.6990 C.2     1  UNL1        0.0010
     27  C         15.9130  -22.4500   -3.7800 C.2     1  UNL1        0.0030
     28  C         16.9850  -23.2670   -4.1400 C.2     1  UNL1        0.0430
     29  C         17.0260  -23.8260   -5.4130 C.2     1  UNL1        0.1240
     30  F         18.0720  -24.5980   -5.7450 F       1  UNL1       -0.2050
@<TRIPOS>BOND
     1    16    15    1
     2    17    15    2
     3    17    18    1
     4    15    14    1
     5    18    12    2
     6     3     2    1
     7     3     4    2
     8    14    13    2
     9    12    13    1
    10    12    10    1
    11     2     1    2
    12     4     5    1
    13    10    11    1
    14    10     7    1
    15     1     6    1
    16     1     7    1
    17     5     6    2
    18     5    19    1
    19    20    19    2
    20     7     9    2
    21     7     8    2
    22    19    21   am
    23    21    22    1
    24    21    23    1
    25    23    24    1
    26    24    25    2
    27    24    29    1
    28    25    26    1
    29    30    29    1
    30    29    28    2
    31    26    27    2
    32    28    27    1
