@<TRIPOS>MOLECULE
32738_out_ligand_01.pdbqt
 30 32 0 0 0
SMALL
GASTEIGER

@<TRIPOS>ATOM
      1  C         20.4970  -22.1730  -10.0600 C.2     1  UNL1        0.0800
      2  C         20.4540  -21.3830  -11.2100 C.2     1  UNL1        0.0250
      3  C         19.2200  -21.0760  -11.7840 C.2     1  UNL1        0.0030
      4  C         18.0400  -21.5650  -11.2180 C.2     1  UNL1        0.0170
      5  C         18.0890  -22.3760  -10.0760 C.2     1  UNL1        0.0330
      6  C         19.3250  -22.6760   -9.4920 C.2     1  UNL1        0.0420
      7  S         22.0560  -22.5700   -9.3110 S.O2    1  UNL1        0.2630
      8  O         22.0570  -21.9620   -7.9970 O.2     1  UNL1       -0.2000
      9  O         22.3080  -23.9830   -9.4750 O.2     1  UNL1       -0.2000
     10  N         23.1500  -21.6840  -10.2450 N.pl3   1  UNL1       -0.2810
     11  H         23.4620  -20.8490   -9.7480 H       1  UNL1        0.1790
     12  C         24.1230  -22.4010  -10.9920 C.2     1  UNL1        0.0420
     13  C         25.3880  -22.6160  -10.4550 C.2     1  UNL1        0.0300
     14  C         26.3580  -23.2860  -11.2060 C.2     1  UNL1        0.0090
     15  C         26.0660  -23.7440  -12.4960 C.2     1  UNL1       -0.0620
     16  C         27.1210  -24.4300  -13.3140 C.3     1  UNL1        0.0480
     17  C         24.7970  -23.4990  -13.0350 C.2     1  UNL1        0.0090
     18  C         23.8270  -22.8310  -12.2840 C.2     1  UNL1        0.0300
     19  C         16.8620  -22.9150   -9.4290 C.2     1  UNL1        0.2510
     20  O         15.7620  -22.5990   -9.8650 O.2     1  UNL1       -0.2680
     21  N         17.0430  -23.7270   -8.3330 N.am    1  UNL1       -0.3530
     22  H         17.9500  -23.7660   -7.8920 H       1  UNL1        0.1630
     23  C         15.9190  -24.1870   -7.5450 C.3     1  UNL1        0.1610
     24  C         15.9590  -23.5990   -6.1580 C.2     1  UNL1       -0.0380
     25  C         14.8760  -22.8480   -5.6730 C.2     1  UNL1        0.0090
     26  C         14.9100  -22.2860   -4.3940 C.2     1  UNL1        0.0040
     27  C         16.0250  -22.4790   -3.5800 C.2     1  UNL1        0.0420
     28  C         17.0980  -23.2190   -4.0580 C.2     1  UNL1        0.1170
     29  F         18.1700  -23.4080   -3.2760 F       1  UNL1       -0.2060
     30  C         17.0810  -23.7740   -5.3360 C.2     1  UNL1        0.0510
@<TRIPOS>BOND
     1    16    15    1
     2    17    15    2
     3    17    18    1
     4    15    14    1
     5    18    12    2
     6     3     4    2
     7     3     2    1
     8     4     5    1
     9     2     1    2
    10    14    13    2
    11    12    13    1
    12    12    10    1
    13    10    11    1
    14    10     7    1
    15     5     6    2
    16     5    19    1
    17     1     6    1
    18     1     7    1
    19    20    19    2
    20     9     7    2
    21    19    21   am
    22     7     8    2
    23    21    22    1
    24    21    23    1
    25    23    24    1
    26    24    25    2
    27    24    30    1
    28    25    26    1
    29    30    28    2
    30    26    27    2
    31    28    27    1
    32    28    29    1
