@<TRIPOS>MOLECULE
32734_out_ligand_01.pdbqt
 31 33 0 0 0
SMALL
GASTEIGER

@<TRIPOS>ATOM
      1  C         22.2390  -21.0260  -13.4560 C.3     1  UNL1        0.0500
      2  C         21.4870  -21.5990  -12.2880 C.2     1  UNL1       -0.0400
      3  C         20.1560  -21.2120  -12.0690 C.2     1  UNL1        0.0090
      4  C         19.4230  -21.7450  -11.0060 C.2     1  UNL1        0.0170
      5  C         20.0120  -22.6870  -10.1570 C.2     1  UNL1        0.0330
      6  C         21.3380  -23.0790  -10.3610 C.2     1  UNL1        0.0420
      7  C         22.0700  -22.5390  -11.4220 C.2     1  UNL1        0.0290
      8  C         19.2710  -23.2860   -9.0180 C.2     1  UNL1        0.2520
      9  O         19.6460  -24.3480   -8.5350 O.2     1  UNL1       -0.2680
     10  N         18.1620  -22.5940   -8.5910 N.am    1  UNL1       -0.3490
     11  H         17.8450  -21.7860   -9.1090 H       1  UNL1        0.1630
     12  C         17.3140  -23.0740   -7.5130 C.3     1  UNL1        0.1140
     13  C         15.8220  -22.9460   -7.8320 C.3     1  UNL1        0.0370
     14  C         17.7270  -22.4190   -6.1970 C.2     1  UNL1       -0.0300
     15  C         18.7130  -21.4100   -6.2730 C.2     1  UNL1        0.0100
     16  C         19.1640  -20.7410   -5.1350 C.2     1  UNL1        0.0010
     17  C         18.6370  -21.0630   -3.8930 C.2     1  UNL1        0.0010
     18  C         17.6550  -22.0460   -3.7930 C.2     1  UNL1        0.0070
     19  C         17.1750  -22.7230   -4.9310 C.2     1  UNL1       -0.0540
     20  C         16.1260  -23.7780   -4.7080 C.3     1  UNL1        0.0490
     21  N         23.4080  -23.0100  -11.6630 N.pl3   1  UNL1       -0.1810
     22  H         23.6890  -22.7950  -12.6230 H       1  UNL1        0.1460
     23  S         24.5810  -22.2890  -10.6490 S.O2    1  UNL1        0.2450
     24  O         25.4040  -23.3080  -10.0330 O.2     1  UNL1       -0.2060
     25  O         23.8850  -21.2900   -9.8660 O.2     1  UNL1       -0.2060
     26  C         25.5780  -21.4520  -11.8560 C.2     1  UNL1        0.0740
     27  C         26.2400  -20.2750  -11.4950 C.2     1  UNL1        0.0250
     28  C         27.0160  -19.6060  -12.4420 C.2     1  UNL1        0.0020
     29  C         27.1190  -20.1090  -13.7400 C.2     1  UNL1        0.0000
     30  C         26.4450  -21.2780  -14.0990 C.2     1  UNL1        0.0020
     31  C         25.6670  -21.9530  -13.1580 C.2     1  UNL1        0.0250
@<TRIPOS>BOND
     1    30    29    2
     2    30    31    1
     3    29    28    1
     4     1     2    1
     5    31    26    2
     6    22    21    1
     7    28    27    2
     8     2     3    2
     9     2     7    1
    10     3     4    1
    11    26    27    1
    12    26    23    1
    13    21     7    1
    14    21    23    1
    15     7     6    2
    16     4     5    2
    17    23    24    2
    18    23    25    2
    19     6     5    1
    20     5     8    1
    21    11    10    1
    22     8    10   am
    23     8     9    2
    24    10    12    1
    25    13    12    1
    26    12    14    1
    27    15    14    2
    28    15    16    1
    29    14    19    1
    30    16    17    2
    31    19    20    1
    32    19    18    2
    33    17    18    1
