@<TRIPOS>MOLECULE
32748_out_ligand_01.pdbqt
 30 32 0 0 0
SMALL
GASTEIGER

@<TRIPOS>ATOM
      1  C         21.4900  -22.1240  -10.6700 C.2     1  UNL1        0.0800
      2  C         21.1750  -21.4220  -11.8400 C.2     1  UNL1        0.0250
      3  C         19.8440  -21.1240  -12.1310 C.2     1  UNL1        0.0030
      4  C         18.8340  -21.5170  -11.2510 C.2     1  UNL1        0.0170
      5  C         19.1630  -22.2030  -10.0740 C.2     1  UNL1        0.0330
      6  C         20.4870  -22.5410   -9.7920 C.2     1  UNL1        0.0420
      7  S         23.1850  -22.5010  -10.2890 S.O2    1  UNL1        0.2630
      8  O         23.9100  -21.2500  -10.2700 O.2     1  UNL1       -0.2000
      9  O         23.2050  -23.3980   -9.1520 O.2     1  UNL1       -0.2000
     10  N         23.7100  -23.3310  -11.6600 N.pl3   1  UNL1       -0.2810
     11  H         23.8350  -24.3250  -11.4840 H       1  UNL1        0.1790
     12  C         24.5820  -22.6940  -12.5870 C.2     1  UNL1        0.0420
     13  C         24.0250  -21.8830  -13.5780 C.2     1  UNL1        0.0300
     14  C         24.8490  -21.2670  -14.5230 C.2     1  UNL1        0.0090
     15  C         26.2370  -21.4430  -14.4750 C.2     1  UNL1       -0.0620
     16  C         27.1200  -20.8120  -15.5100 C.3     1  UNL1        0.0480
     17  C         26.7850  -22.2580  -13.4780 C.2     1  UNL1        0.0090
     18  C         25.9610  -22.8740  -12.5330 C.2     1  UNL1        0.0300
     19  C         18.1040  -22.6270   -9.1350 C.2     1  UNL1        0.2530
     20  O         17.0140  -22.0690   -9.2300 O.2     1  UNL1       -0.2670
     21  N         18.3900  -23.6210   -8.2020 N.am    1  UNL1       -0.3480
     22  C         19.6410  -24.3670   -8.1440 C.3     1  UNL1        0.1530
     23  C         17.4450  -23.8230   -7.1080 C.3     1  UNL1        0.1640
     24  C         17.8120  -23.0090   -5.8900 C.2     1  UNL1       -0.0370
     25  C         17.5060  -23.4820   -4.6030 C.2     1  UNL1        0.0090
     26  C         17.8220  -22.7260   -3.4700 C.2     1  UNL1        0.0040
     27  C         18.4440  -21.4880   -3.6150 C.2     1  UNL1        0.0420
     28  C         18.7440  -21.0170   -4.8870 C.2     1  UNL1        0.1170
     29  F         19.3380  -19.8240   -5.0260 F       1  UNL1       -0.2060
     30  C         18.4350  -21.7610   -6.0210 C.2     1  UNL1        0.0510
@<TRIPOS>BOND
     1    16    15    1
     2    14    15    2
     3    14    13    1
     4    15    17    1
     5    13    12    2
     6    17    18    2
     7    12    18    1
     8    12    10    1
     9     3     2    1
    10     3     4    2
    11     2     1    2
    12    10    11    1
    13    10     7    1
    14     4     5    1
    15     1     7    1
    16     1     6    1
    17     7     8    2
    18     7     9    2
    19     5     6    2
    20     5    19    1
    21    20    19    2
    22    19    21   am
    23    21    22    1
    24    21    23    1
    25    23    24    1
    26    30    24    2
    27    30    28    1
    28    24    25    1
    29    29    28    1
    30    28    27    2
    31    25    26    2
    32    27    26    1
