@<TRIPOS>MOLECULE
32746_out_ligand_01.pdbqt
 30 32 0 0 0
SMALL
GASTEIGER

@<TRIPOS>ATOM
      1  C         21.5660  -21.9780  -10.6380 C.2     1  UNL1        0.0800
      2  C         21.2470  -21.2780  -11.8070 C.2     1  UNL1        0.0250
      3  C         19.9090  -21.0340  -12.1240 C.2     1  UNL1        0.0030
      4  C         18.8990  -21.4830  -11.2720 C.2     1  UNL1        0.0170
      5  C         19.2330  -22.1560  -10.0890 C.2     1  UNL1        0.0330
      6  C         20.5670  -22.4120   -9.7660 C.2     1  UNL1        0.0420
      7  S         23.2630  -22.3290  -10.2440 S.O2    1  UNL1        0.2630
      8  O         24.0030  -21.0860  -10.2970 O.2     1  UNL1       -0.2000
      9  O         23.2600  -23.1450   -9.0490 O.2     1  UNL1       -0.2000
     10  N         23.7510  -23.3300  -11.5130 N.pl3   1  UNL1       -0.2810
     11  H         23.0060  -23.9570  -11.8110 H       1  UNL1        0.1790
     12  C         24.5980  -22.7930  -12.5230 C.2     1  UNL1        0.0420
     13  C         24.0280  -22.0890  -13.5840 C.2     1  UNL1        0.0300
     14  C         24.8470  -21.5100  -14.5570 C.2     1  UNL1        0.0090
     15  C         26.2390  -21.6420  -14.4820 C.2     1  UNL1       -0.0620
     16  C         27.1200  -20.9900  -15.5070 C.3     1  UNL1        0.0480
     17  C         26.8020  -22.3400  -13.4060 C.2     1  UNL1        0.0090
     18  C         25.9830  -22.9170  -12.4320 C.2     1  UNL1        0.0300
     19  C         18.1760  -22.6970   -9.2130 C.2     1  UNL1        0.2530
     20  O         17.0670  -22.1730   -9.2990 O.2     1  UNL1       -0.2670
     21  N         18.4840  -23.7400   -8.3470 N.am    1  UNL1       -0.3480
     22  C         19.7600  -24.4440   -8.3220 C.3     1  UNL1        0.1530
     23  C         17.5270  -24.0650   -7.2920 C.3     1  UNL1        0.1640
     24  C         17.7950  -23.2830   -6.0280 C.2     1  UNL1       -0.0400
     25  C         17.3970  -23.7910   -4.7850 C.2     1  UNL1        0.0090
     26  C         17.6280  -23.0650   -3.6170 C.2     1  UNL1        0.0010
     27  C         18.2540  -21.8210   -3.6800 C.2     1  UNL1        0.0070
     28  C         18.6480  -21.2880   -4.9130 C.2     1  UNL1       -0.0610
     29  C         19.3610  -19.9690   -4.9750 C.3     1  UNL1        0.0480
     30  C         18.4270  -22.0300   -6.0810 C.2     1  UNL1        0.0150
@<TRIPOS>BOND
     1    16    15    1
     2    14    15    2
     3    14    13    1
     4    15    17    1
     5    13    12    2
     6    17    18    2
     7    12    18    1
     8    12    10    1
     9     3     2    1
    10     3     4    2
    11    11    10    1
    12     2     1    2
    13    10     7    1
    14     4     5    1
    15     1     7    1
    16     1     6    1
    17     8     7    2
    18     7     9    2
    19     5     6    2
    20     5    19    1
    21    20    19    2
    22    19    21   am
    23    21    22    1
    24    21    23    1
    25    23    24    1
    26    30    24    2
    27    30    28    1
    28    24    25    1
    29    29    28    1
    30    28    27    2
    31    25    26    2
    32    27    26    1
