@<TRIPOS>MOLECULE
32744_out_ligand_01.pdbqt
 33 36 0 0 0
SMALL
GASTEIGER

@<TRIPOS>ATOM
      1  C         18.1830  -22.4540   -5.9100 C.2     1  UNL1        0.0800
      2  C         18.2260  -21.3010   -5.1200 C.2     1  UNL1        0.0250
      3  C         19.3250  -20.4490   -5.2130 C.2     1  UNL1        0.0030
      4  C         20.3780  -20.7590   -6.0770 C.2     1  UNL1        0.0170
      5  C         20.3480  -21.9320   -6.8440 C.2     1  UNL1        0.0330
      6  C         19.2430  -22.7850   -6.7610 C.2     1  UNL1        0.0420
      7  C         21.4930  -22.2140   -7.7540 C.2     1  UNL1        0.2510
      8  O         22.4960  -21.5120   -7.7050 O.2     1  UNL1       -0.2680
      9  N         21.3520  -23.2950   -8.5960 N.am    1  UNL1       -0.3530
     10  H         20.6060  -23.9550   -8.4310 H       1  UNL1        0.1630
     11  C         22.4490  -23.7560   -9.4190 C.3     1  UNL1        0.1610
     12  C         22.5220  -22.9640  -10.6990 C.2     1  UNL1       -0.0380
     13  C         21.3990  -22.2760  -11.1830 C.2     1  UNL1        0.0120
     14  C         21.4690  -21.5590  -12.3800 C.2     1  UNL1        0.0400
     15  C         22.6600  -21.5260  -13.1030 C.2     1  UNL1        0.1020
     16  C         23.7750  -22.2360  -12.6470 C.2     1  UNL1        0.1020
     17  O         22.6600  -20.7840  -14.2560 O.2     1  UNL1       -0.3460
     18  C         23.7110  -22.9410  -11.4460 C.2     1  UNL1        0.0480
     19  O         24.9650  -22.2800  -13.3260 O.2     1  UNL1       -0.3460
     20  C         24.8140  -21.8260  -14.6750 C.3     1  UNL1        0.2020
     21  C         23.9940  -20.5470  -14.7210 C.3     1  UNL1        0.2020
     22  S         16.7750  -23.5380   -5.8060 S.O2    1  UNL1        0.2630
     23  O         15.5890  -22.7090   -5.7780 O.2     1  UNL1       -0.2000
     24  O         17.0410  -24.5020   -4.7590 O.2     1  UNL1       -0.2000
     25  N         16.7740  -24.3120   -7.3090 N.pl3   1  UNL1       -0.2810
     26  H         16.0950  -25.0690   -7.3470 H       1  UNL1        0.1790
     27  C         16.9670  -23.5340   -8.4840 C.2     1  UNL1        0.0420
     28  C         16.0590  -22.5200   -8.7850 C.2     1  UNL1        0.0300
     29  C         16.2720  -21.7030   -9.8980 C.2     1  UNL1        0.0090
     30  C         17.3970  -21.8900  -10.7110 C.2     1  UNL1       -0.0620
     31  C         17.6110  -21.0290  -11.9210 C.3     1  UNL1        0.0480
     32  C         18.2910  -22.9250  -10.4100 C.2     1  UNL1        0.0090
     33  C         18.0810  -23.7390   -9.2960 C.2     1  UNL1        0.0300
@<TRIPOS>BOND
     1    21    20    1
     2    21    17    1
     3    20    19    1
     4    17    15    1
     5    19    16    1
     6    15    16    2
     7    15    14    1
     8    16    18    1
     9    14    13    2
    10    31    30    1
    11    18    12    2
    12    13    12    1
    13    30    32    2
    14    30    29    1
    15    12    11    1
    16    32    33    1
    17    29    28    2
    18    11     9    1
    19    33    27    2
    20    28    27    1
    21     9    10    1
    22     9     7   am
    23    27    25    1
    24     7     8    2
    25     7     5    1
    26    26    25    1
    27    25    22    1
    28     5     6    1
    29     5     4    2
    30     6     1    2
    31     4     3    1
    32     1    22    1
    33     1     2    1
    34    22    23    2
    35    22    24    2
    36     3     2    2
