@<TRIPOS>MOLECULE
32747_out_ligand_01.pdbqt
 30 32 0 0 0
SMALL
GASTEIGER

@<TRIPOS>ATOM
      1  C         21.0210  -22.0290  -10.5670 C.2     1  UNL1        0.0800
      2  C         20.6510  -21.0550  -11.5010 C.2     1  UNL1        0.0250
      3  C         19.2980  -20.7800  -11.7140 C.2     1  UNL1        0.0030
      4  C         18.3230  -21.4810  -11.0040 C.2     1  UNL1        0.0170
      5  C         18.7070  -22.4750  -10.0950 C.2     1  UNL1        0.0330
      6  C         20.0550  -22.7560   -9.8670 C.2     1  UNL1        0.0420
      7  S         22.7400  -22.3830  -10.2980 S.O2    1  UNL1        0.2630
      8  O         22.8090  -23.5400   -9.4270 O.2     1  UNL1       -0.2000
      9  O         23.4150  -21.1540   -9.9440 O.2     1  UNL1       -0.2000
     10  N         23.2550  -22.9160  -11.8170 N.pl3   1  UNL1       -0.2810
     11  H         23.6100  -23.8710  -11.7580 H       1  UNL1        0.1790
     12  C         23.9880  -22.0050  -12.6250 C.2     1  UNL1        0.0420
     13  C         23.3740  -21.4080  -13.7230 C.2     1  UNL1        0.0300
     14  C         24.0710  -20.4680  -14.4860 C.2     1  UNL1        0.0090
     15  C         25.3910  -20.1310  -14.1620 C.2     1  UNL1       -0.0620
     16  C         26.1290  -19.0920  -14.9520 C.3     1  UNL1        0.0480
     17  C         25.9940  -20.7290  -13.0480 C.2     1  UNL1        0.0090
     18  C         25.2960  -21.6640  -12.2810 C.2     1  UNL1        0.0300
     19  C         17.6880  -23.1850   -9.2990 C.2     1  UNL1        0.2530
     20  O         16.5980  -23.3710   -9.8380 O.2     1  UNL1       -0.2670
     21  N         18.0080  -23.6100   -8.0150 N.am    1  UNL1       -0.3480
     22  C         19.2180  -23.2390   -7.2890 C.3     1  UNL1        0.1530
     23  C         17.0220  -24.4060   -7.2840 C.3     1  UNL1        0.1670
     24  C         16.2940  -23.6150   -6.2310 C.2     1  UNL1       -0.0020
     25  C         15.1690  -22.8410   -6.5580 C.2     1  UNL1        0.0120
     26  C         14.5000  -22.1100   -5.5730 C.2     1  UNL1        0.0010
     27  C         14.9450  -22.1430   -4.2510 C.2     1  UNL1        0.0030
     28  C         16.0610  -22.9060   -3.9150 C.2     1  UNL1        0.0430
     29  C         16.7230  -23.6320   -4.9020 C.2     1  UNL1        0.1240
     30  F         17.8020  -24.3500   -4.5560 F       1  UNL1       -0.2050
@<TRIPOS>BOND
     1    16    15    1
     2    14    15    2
     3    14    13    1
     4    15    17    1
     5    13    12    2
     6    17    18    2
     7    12    18    1
     8    12    10    1
     9    10    11    1
    10    10     7    1
    11     3     2    1
    12     3     4    2
    13     2     1    2
    14     4     5    1
    15     1     7    1
    16     1     6    1
    17     7     9    2
    18     7     8    2
    19     5     6    2
    20     5    19    1
    21    20    19    2
    22    19    21   am
    23    21    22    1
    24    21    23    1
    25    23    24    1
    26    25    24    2
    27    25    26    1
    28    24    29    1
    29    26    27    2
    30    29    30    1
    31    29    28    2
    32    27    28    1
