@<TRIPOS>MOLECULE
32745_out_ligand_01.pdbqt
 29 31 0 0 0
SMALL
GASTEIGER

@<TRIPOS>ATOM
      1  C         19.3640  -22.1160   -6.1750 C.2     1  UNL1        0.0330
      2  C         19.5300  -20.8620   -5.5720 C.2     1  UNL1        0.0170
      3  C         18.8150  -20.5450   -4.4160 C.2     1  UNL1        0.0030
      4  C         17.9280  -21.4710   -3.8650 C.2     1  UNL1        0.0240
      5  C         17.7380  -22.7090   -4.4770 C.2     1  UNL1        0.0230
      6  C         18.4560  -23.0340   -5.6280 C.2     1  UNL1        0.0410
      7  C         20.1050  -22.5190   -7.4030 C.2     1  UNL1        0.2510
      8  O         21.2500  -22.1210   -7.5850 O.2     1  UNL1       -0.2680
      9  N         19.4340  -23.3110   -8.3060 N.am    1  UNL1       -0.3530
     10  H         18.4880  -23.6170   -8.1280 H       1  UNL1        0.1630
     11  C         20.1010  -23.8350   -9.4760 C.3     1  UNL1        0.1640
     12  C         20.2680  -22.7720  -10.5220 C.2     1  UNL1       -0.0020
     13  C         19.1820  -21.9650  -10.9000 C.2     1  UNL1        0.0120
     14  C         19.3360  -20.9880  -11.8870 C.2     1  UNL1        0.0010
     15  C         20.5720  -20.8080  -12.5080 C.2     1  UNL1        0.0030
     16  C         21.6540  -21.6080  -12.1460 C.2     1  UNL1        0.0430
     17  C         21.4940  -22.5820  -11.1630 C.2     1  UNL1        0.1240
     18  F         22.5440  -23.3500  -10.8400 F       1  UNL1       -0.2050
     19  N         16.8300  -23.6710   -3.9240 N.pl3   1  UNL1       -0.1810
     20  H         17.1530  -24.6340   -4.0300 H       1  UNL1        0.1460
     21  S         15.2190  -23.5600   -4.4730 S.O2    1  UNL1        0.2450
     22  O         14.5190  -24.7930   -4.1820 O.2     1  UNL1       -0.2060
     23  O         14.7090  -22.2710   -4.0570 O.2     1  UNL1       -0.2060
     24  C         15.4850  -23.5000   -6.2290 C.2     1  UNL1        0.0740
     25  C         15.6800  -24.6970   -6.9250 C.2     1  UNL1        0.0250
     26  C         15.8920  -24.6600   -8.3030 C.2     1  UNL1        0.0020
     27  C         15.9030  -23.4360   -8.9760 C.2     1  UNL1        0.0000
     28  C         15.6970  -22.2460   -8.2750 C.2     1  UNL1        0.0020
     29  C         15.4850  -22.2730   -6.8970 C.2     1  UNL1        0.0250
@<TRIPOS>BOND
     1    15    16    2
     2    15    14    1
     3    16    17    1
     4    14    13    2
     5    17    18    1
     6    17    12    2
     7    13    12    1
     8    12    11    1
     9    11     9    1
    10    27    26    2
    11    27    28    1
    12     9    10    1
    13     9     7   am
    14    26    25    1
    15    28    29    2
    16     8     7    2
    17     7     1    1
    18    25    24    2
    19    29    24    1
    20    24    21    1
    21     1     6    2
    22     1     2    1
    23     6     5    1
    24     2     3    2
    25     5    19    1
    26     5     4    2
    27    21    22    2
    28    21    23    2
    29    21    19    1
    30     3     4    1
    31    20    19    1
