@<TRIPOS>MOLECULE
32750_out_ligand_01.pdbqt
 31 33 0 0 0
SMALL
GASTEIGER

@<TRIPOS>ATOM
      1  C         18.6230  -22.1780  -10.0510 C.2     1  UNL1        0.0330
      2  C         18.3020  -21.4100  -11.1790 C.2     1  UNL1        0.0170
      3  C         19.3200  -20.9440  -12.0130 C.2     1  UNL1        0.0030
      4  C         20.6510  -21.2410  -11.7200 C.2     1  UNL1        0.0250
      5  C         20.9600  -21.9930  -10.5800 C.2     1  UNL1        0.0800
      6  C         19.9520  -22.4460   -9.7250 C.2     1  UNL1        0.0420
      7  C         17.5550  -22.6780   -9.1630 C.2     1  UNL1        0.2530
      8  N         17.8600  -23.6790   -8.2430 N.am    1  UNL1       -0.3480
      9  C         19.2000  -24.2040   -8.0090 C.3     1  UNL1        0.1530
     10  O         16.4400  -22.1770   -9.2880 O.2     1  UNL1       -0.2670
     11  C         16.7510  -24.3710   -7.5900 C.3     1  UNL1        0.1640
     12  C         16.3670  -23.7100   -6.2870 C.2     1  UNL1       -0.0380
     13  C         15.0780  -23.8870   -5.7640 C.2     1  UNL1        0.0090
     14  C         14.7230  -23.3020   -4.5510 C.2     1  UNL1        0.0030
     15  C         15.6550  -22.5360   -3.8520 C.2     1  UNL1        0.0370
     16  C         16.9440  -22.3470   -4.3550 C.2     1  UNL1        0.0680
     17  C         17.2980  -22.9370   -5.5700 C.2     1  UNL1        0.0450
     18  O         17.7550  -21.5770   -3.5670 O.2     1  UNL1       -0.3560
     19  C         18.7880  -20.8490   -4.2200 C.3     1  UNL1        0.2100
     20  S         22.6520  -22.3920  -10.2090 S.O2    1  UNL1        0.2630
     21  O         22.6430  -23.5910   -9.4000 O.2     1  UNL1       -0.2000
     22  O         23.3140  -21.1860   -9.7590 O.2     1  UNL1       -0.2000
     23  N         23.2790  -22.8390  -11.7110 N.pl3   1  UNL1       -0.2810
     24  H         22.6730  -23.4960  -12.1980 H       1  UNL1        0.1790
     25  C         24.0240  -21.9060  -12.4840 C.2     1  UNL1        0.0420
     26  C         25.2730  -21.4430  -12.0720 C.2     1  UNL1        0.0300
     27  C         25.9630  -20.5080  -12.8490 C.2     1  UNL1        0.0090
     28  C         25.4110  -20.0280  -14.0420 C.2     1  UNL1       -0.0620
     29  C         26.1680  -19.0460  -14.8860 C.3     1  UNL1        0.0480
     30  C         24.1730  -20.5240  -14.4660 C.2     1  UNL1        0.0090
     31  C         23.4830  -21.4580  -13.6900 C.2     1  UNL1        0.0300
@<TRIPOS>BOND
     1    29    28    1
     2    30    28    2
     3    30    31    1
     4    28    27    1
     5    31    25    2
     6    27    26    2
     7    25    26    1
     8    25    23    1
     9    24    23    1
    10     3     4    2
    11     3     2    1
    12     4     5    1
    13    23    20    1
    14     2     1    2
    15     5    20    1
    16     5     6    2
    17    20    22    2
    18    20    21    2
    19     1     6    1
    20     1     7    1
    21    10     7    2
    22     7     8   am
    23     8     9    1
    24     8    11    1
    25    11    12    1
    26    12    13    2
    27    12    17    1
    28    13    14    1
    29    17    16    2
    30    14    15    2
    31    16    15    1
    32    16    18    1
    33    19    18    1
