@<TRIPOS>MOLECULE
32757_out_ligand_01.pdbqt
 30 32 0 0 0
SMALL
GASTEIGER

@<TRIPOS>ATOM
      1  C         21.4900  -22.1780  -10.5520 C.2     1  UNL1        0.0800
      2  C         21.2150  -21.5740  -11.7850 C.2     1  UNL1        0.0250
      3  C         19.8930  -21.3150  -12.1490 C.2     1  UNL1        0.0030
      4  C         18.8530  -21.6550  -11.2830 C.2     1  UNL1        0.0170
      5  C         19.1410  -22.2490  -10.0490 C.2     1  UNL1        0.0330
      6  C         20.4560  -22.5460   -9.6890 C.2     1  UNL1        0.0420
      7  S         23.1730  -22.5190  -10.0900 S.O2    1  UNL1        0.2630
      8  O         23.8600  -21.2490   -9.9840 O.2     1  UNL1       -0.2000
      9  O         23.1580  -23.4560   -8.9870 O.2     1  UNL1       -0.2000
     10  N         23.8020  -23.2730  -11.4620 N.pl3   1  UNL1       -0.2800
     11  H         23.8320  -24.2850  -11.3660 H       1  UNL1        0.1790
     12  C         24.8010  -22.6280  -12.2500 C.2     1  UNL1        0.0480
     13  C         24.4260  -21.8680  -13.3610 C.2     1  UNL1        0.0300
     14  C         25.3900  -21.2160  -14.1290 C.2     1  UNL1        0.0020
     15  C         26.7360  -21.3290  -13.7960 C.2     1  UNL1        0.0010
     16  C         27.1190  -22.1010  -12.6990 C.2     1  UNL1        0.0090
     17  C         26.1600  -22.7600  -11.9120 C.2     1  UNL1       -0.0350
     18  C         26.6210  -23.5970  -10.7520 C.3     1  UNL1        0.0500
     19  C         18.0480  -22.6250   -9.1280 C.2     1  UNL1        0.2530
     20  O         16.9800  -22.0330   -9.2540 O.2     1  UNL1       -0.2670
     21  N         18.2820  -23.6130   -8.1750 N.am    1  UNL1       -0.3480
     22  C         19.5030  -24.4060   -8.0850 C.3     1  UNL1        0.1530
     23  C         17.3030  -23.7790   -7.1050 C.3     1  UNL1        0.1640
     24  C         17.6800  -22.9960   -5.8690 C.2     1  UNL1       -0.0370
     25  C         17.4500  -23.5170   -4.5860 C.2     1  UNL1        0.0090
     26  C         17.8190  -22.7960   -3.4480 C.2     1  UNL1        0.0040
     27  C         18.4250  -21.5480   -3.5810 C.2     1  UNL1        0.0420
     28  C         18.6550  -21.0300   -4.8510 C.2     1  UNL1        0.1170
     29  F         19.2420  -19.8330   -4.9760 F       1  UNL1       -0.2060
     30  C         18.2900  -21.7380   -5.9910 C.2     1  UNL1        0.0510
@<TRIPOS>BOND
     1    14    15    2
     2    14    13    1
     3    15    16    1
     4    13    12    2
     5    16    17    2
     6    12    17    1
     7    12    10    1
     8     3     2    1
     9     3     4    2
    10    17    18    1
    11     2     1    2
    12    10    11    1
    13    10     7    1
    14     4     5    1
    15     1     7    1
    16     1     6    1
    17     7     8    2
    18     7     9    2
    19     5     6    2
    20     5    19    1
    21    20    19    2
    22    19    21   am
    23    21    22    1
    24    21    23    1
    25    23    24    1
    26    30    24    2
    27    30    28    1
    28    24    25    1
    29    29    28    1
    30    28    27    2
    31    25    26    2
    32    27    26    1
