@<TRIPOS>MOLECULE
32759_out_ligand_01.pdbqt
 32 34 0 0 0
SMALL
GASTEIGER

@<TRIPOS>ATOM
      1  C         19.3490  -22.2150  -10.1680 C.2     1  UNL1        0.0330
      2  C         19.0650  -21.5140  -11.3500 C.2     1  UNL1        0.0170
      3  C         20.1060  -21.0760  -12.1700 C.2     1  UNL1        0.0030
      4  C         21.4290  -21.3500  -11.8180 C.2     1  UNL1        0.0250
      5  C         21.7010  -22.0830  -10.6570 C.2     1  UNL1        0.0800
      6  C         20.6670  -22.5330   -9.8330 C.2     1  UNL1        0.0420
      7  C         18.2510  -22.6800   -9.2880 C.2     1  UNL1        0.2530
      8  N         18.5370  -23.6460   -8.3230 N.am    1  UNL1       -0.3480
      9  C         19.7160  -24.5040   -8.3350 C.3     1  UNL1        0.1530
     10  O         17.1380  -22.1810   -9.4580 O.2     1  UNL1       -0.2670
     11  C         17.6100  -23.7900   -7.2020 C.3     1  UNL1        0.1670
     12  C         17.9420  -22.8710   -6.0430 C.2     1  UNL1       -0.0070
     13  C         18.7930  -21.7720   -6.2480 C.2     1  UNL1        0.0110
     14  C         19.1220  -20.9200   -5.1930 C.2     1  UNL1        0.0010
     15  C         18.6000  -21.1550   -3.9220 C.2     1  UNL1        0.0030
     16  C         17.7410  -22.2360   -3.7050 C.2     1  UNL1        0.0370
     17  C         17.4100  -23.0970   -4.7560 C.2     1  UNL1        0.0760
     18  O         16.5630  -24.1630   -4.6420 O.2     1  UNL1       -0.3510
     19  C         15.2410  -23.9250   -4.1650 C.3     1  UNL1        0.1710
     20  C         14.4880  -23.1850   -5.2590 C.3     1  UNL1        0.0340
     21  S         23.3860  -22.4130  -10.2090 S.O2    1  UNL1        0.2630
     22  O         23.3910  -23.1360   -8.9560 O.2     1  UNL1       -0.2000
     23  O         24.1140  -21.1700  -10.3620 O.2     1  UNL1       -0.2000
     24  N         23.9220  -23.4370  -11.4460 N.pl3   1  UNL1       -0.2800
     25  H         23.1490  -23.9950  -11.8120 H       1  UNL1        0.1790
     26  C         24.8580  -22.9140  -12.3900 C.2     1  UNL1        0.0480
     27  C         24.3730  -22.2970  -13.5460 C.2     1  UNL1        0.0300
     28  C         25.2590  -21.7990  -14.5030 C.2     1  UNL1        0.0020
     29  C         26.6320  -21.9350  -14.3140 C.2     1  UNL1        0.0010
     30  C         27.1210  -22.5700  -13.1700 C.2     1  UNL1        0.0090
     31  C         26.2410  -23.0690  -12.1940 C.2     1  UNL1       -0.0350
     32  C         26.7980  -23.7740  -10.9900 C.3     1  UNL1        0.0500
@<TRIPOS>BOND
     1    28    29    2
     2    28    27    1
     3    29    30    1
     4    27    26    2
     5    30    31    2
     6    26    31    1
     7    26    24    1
     8    31    32    1
     9     3     4    2
    10     3     2    1
    11     4     5    1
    12    25    24    1
    13    24    21    1
    14     2     1    2
    15     5    21    1
    16     5     6    2
    17    23    21    2
    18    21    22    2
    19     1     6    1
    20     1     7    1
    21    10     7    2
    22     7     8   am
    23     9     8    1
    24     8    11    1
    25    11    12    1
    26    13    12    2
    27    13    14    1
    28    12    17    1
    29    20    19    1
    30    14    15    2
    31    17    18    1
    32    17    16    2
    33    18    19    1
    34    15    16    1
