@<TRIPOS>MOLECULE
32766_out_ligand_01.pdbqt
 30 32 0 0 0
SMALL
GASTEIGER

@<TRIPOS>ATOM
      1  C         21.0080  -22.1610  -10.4910 C.2     1  UNL1        0.0800
      2  C         20.7560  -21.1920  -11.4720 C.2     1  UNL1        0.0250
      3  C         19.4380  -20.8500  -11.7820 C.2     1  UNL1        0.0030
      4  C         18.3780  -21.4560  -11.1010 C.2     1  UNL1        0.0170
      5  C         18.6370  -22.4060  -10.1000 C.2     1  UNL1        0.0330
      6  C         19.9550  -22.7650   -9.7960 C.2     1  UNL1        0.0420
      7  S         22.6920  -22.5570  -10.0580 S.O2    1  UNL1        0.2630
      8  O         22.6580  -23.5990   -9.0540 O.2     1  UNL1       -0.2000
      9  O         23.3750  -21.3020   -9.8080 O.2     1  UNL1       -0.2000
     10  N         23.3450  -23.1570  -11.4920 N.pl3   1  UNL1       -0.2800
     11  H         23.1010  -24.1320  -11.6480 H       1  UNL1        0.1790
     12  C         24.6110  -22.6890  -11.9520 C.2     1  UNL1        0.0480
     13  C         25.7670  -23.0450  -11.2550 C.2     1  UNL1        0.0300
     14  C         27.0200  -22.6420  -11.7160 C.2     1  UNL1        0.0020
     15  C         27.1210  -21.8780  -12.8740 C.2     1  UNL1        0.0010
     16  C         25.9690  -21.5050  -13.5650 C.2     1  UNL1        0.0090
     17  C         24.6990  -21.8970  -13.1100 C.2     1  UNL1       -0.0350
     18  C         23.4860  -21.4790  -13.8910 C.3     1  UNL1        0.0500
     19  C         17.5350  -23.0520   -9.3450 C.2     1  UNL1        0.2510
     20  O         16.4170  -23.1290   -9.8370 O.2     1  UNL1       -0.2680
     21  N         17.8790  -23.5790   -8.1190 N.am    1  UNL1       -0.3530
     22  H         18.8600  -23.6680   -7.8890 H       1  UNL1        0.1630
     23  C         16.9660  -24.4320   -7.3930 C.3     1  UNL1        0.1610
     24  C         16.3350  -23.6840   -6.2470 C.2     1  UNL1       -0.0380
     25  C         16.9160  -23.7380   -4.9670 C.2     1  UNL1        0.0090
     26  C         16.3790  -23.0030   -3.9080 C.2     1  UNL1        0.0040
     27  C         15.2620  -22.1940   -4.1210 C.2     1  UNL1        0.0420
     28  C         14.6890  -22.1330   -5.3910 C.2     1  UNL1        0.1170
     29  F         13.6270  -21.3350   -5.6040 F       1  UNL1       -0.2060
     30  C         15.2130  -22.8660   -6.4510 C.2     1  UNL1        0.0510
@<TRIPOS>BOND
     1    18    17    1
     2    16    17    1
     3    16    15    2
     4    17    12    2
     5    15    14    1
     6    12    10    1
     7    12    13    1
     8     3     2    1
     9     3     4    2
    10    14    13    2
    11    11    10    1
    12    10     7    1
    13     2     1    2
    14     4     5    1
    15     1     7    1
    16     1     6    1
    17     5     6    2
    18     5    19    1
    19     7     9    2
    20     7     8    2
    21    20    19    2
    22    19    21   am
    23    21    22    1
    24    21    23    1
    25    23    24    1
    26    30    24    2
    27    30    28    1
    28    24    25    1
    29    29    28    1
    30    28    27    2
    31    25    26    2
    32    27    26    1
