@<TRIPOS>MOLECULE
32765_out_ligand_01.pdbqt
 30 32 0 0 0
SMALL
GASTEIGER

@<TRIPOS>ATOM
      1  C         20.3940  -21.9700  -10.3620 C.2     1  UNL1        0.0800
      2  C         20.1910  -21.0690  -11.4110 C.2     1  UNL1        0.0250
      3  C         18.8910  -20.7820  -11.8270 C.2     1  UNL1        0.0030
      4  C         17.8050  -21.3820  -11.1840 C.2     1  UNL1        0.0170
      5  C         18.0080  -22.2570  -10.1080 C.2     1  UNL1        0.0330
      6  C         19.3110  -22.5550   -9.6950 C.2     1  UNL1        0.0420
      7  S         22.0500  -22.3390   -9.8260 S.O2    1  UNL1        0.2630
      8  O         22.7180  -21.0770   -9.5800 O.2     1  UNL1       -0.2000
      9  O         21.9570  -23.3480   -8.7940 O.2     1  UNL1       -0.2000
     10  N         22.7740  -22.9870  -11.2040 N.pl3   1  UNL1       -0.2800
     11  H         22.5320  -23.9640  -11.3490 H       1  UNL1        0.1790
     12  C         24.0620  -22.5370  -11.6130 C.2     1  UNL1        0.0480
     13  C         25.1810  -22.8780  -10.8460 C.2     1  UNL1        0.0300
     14  C         26.4580  -22.4930  -11.2510 C.2     1  UNL1        0.0020
     15  C         26.6230  -21.7630  -12.4230 C.2     1  UNL1        0.0010
     16  C         25.5090  -21.4080  -13.1860 C.2     1  UNL1        0.0090
     17  C         24.2150  -21.7840  -12.7900 C.2     1  UNL1       -0.0350
     18  C         23.0460  -21.3790  -13.6410 C.3     1  UNL1        0.0500
     19  C         16.8130  -22.8650   -9.4580 C.2     1  UNL1        0.2510
     20  O         15.6890  -22.5820   -9.8610 O.2     1  UNL1       -0.2680
     21  N         17.0520  -23.7080   -8.3950 N.am    1  UNL1       -0.3530
     22  H         17.9720  -23.7370   -7.9770 H       1  UNL1        0.1630
     23  C         15.9720  -24.2520   -7.6010 C.3     1  UNL1        0.1640
     24  C         15.9470  -23.6380   -6.2300 C.2     1  UNL1       -0.0020
     25  C         14.9080  -22.7770   -5.8480 C.2     1  UNL1        0.0120
     26  C         14.9050  -22.1900   -4.5810 C.2     1  UNL1        0.0010
     27  C         15.9420  -22.4500   -3.6850 C.2     1  UNL1        0.0030
     28  C         16.9860  -23.2960   -4.0590 C.2     1  UNL1        0.0430
     29  C         16.9810  -23.8770   -5.3240 C.2     1  UNL1        0.1240
     30  F         18.0010  -24.6760   -5.6700 F       1  UNL1       -0.2050
@<TRIPOS>BOND
     1    18    17    1
     2    16    17    1
     3    16    15    2
     4    17    12    2
     5    15    14    1
     6     3     2    1
     7     3     4    2
     8    12    10    1
     9    12    13    1
    10     2     1    2
    11    11    10    1
    12    14    13    2
    13    10     7    1
    14     4     5    1
    15     1     7    1
    16     1     6    1
    17     5     6    2
    18     5    19    1
    19    20    19    2
    20     7     8    2
    21     7     9    2
    22    19    21   am
    23    21    22    1
    24    21    23    1
    25    23    24    1
    26    24    25    2
    27    24    29    1
    28    25    26    1
    29    30    29    1
    30    29    28    2
    31    26    27    2
    32    28    27    1
