@<TRIPOS>MOLECULE
32763_out_ligand_01.pdbqt
 33 36 0 0 0
SMALL
GASTEIGER

@<TRIPOS>ATOM
      1  C         21.6450  -22.9120   -9.9480 C.2     1  UNL1        0.0800
      2  C         21.9260  -24.0820   -9.2340 C.2     1  UNL1        0.0250
      3  C         20.8770  -24.8500   -8.7230 C.2     1  UNL1        0.0030
      4  C         19.5570  -24.4380   -8.9110 C.2     1  UNL1        0.0170
      5  C         19.2960  -23.2460   -9.5940 C.2     1  UNL1        0.0330
      6  C         20.3300  -22.4770  -10.1270 C.2     1  UNL1        0.0420
      7  C         17.9040  -22.8080   -9.7930 C.2     1  UNL1        0.2530
      8  O         17.7170  -21.9420  -10.6420 O.2     1  UNL1       -0.2670
      9  N         16.9030  -23.3850   -9.0060 N.am    1  UNL1       -0.3480
     10  C         15.5760  -22.7890   -9.0940 C.3     1  UNL1        0.1530
     11  C         17.2100  -24.2000   -7.8210 C.3     1  UNL1        0.1650
     12  C         16.8560  -23.5700   -6.4870 C.2     1  UNL1       -0.0290
     13  C         15.6810  -24.0030   -5.8450 C.2     1  UNL1        0.0100
     14  C         15.2910  -23.4540   -4.6290 C.2     1  UNL1        0.0020
     15  C         16.0670  -22.4650   -4.0340 C.2     1  UNL1        0.0120
     16  C         17.2450  -22.0110   -4.6410 C.2     1  UNL1       -0.0250
     17  C         18.0150  -21.0120   -4.0220 C.2     1  UNL1        0.0120
     18  C         17.6590  -22.5620   -5.8810 C.2     1  UNL1       -0.0180
     19  C         19.1930  -20.5480   -4.6040 C.2     1  UNL1        0.0010
     20  C         19.6170  -21.0790   -5.8130 C.2     1  UNL1        0.0010
     21  C         18.8590  -22.0710   -6.4430 C.2     1  UNL1        0.0130
     22  S         22.9740  -21.9360  -10.6070 S.O2    1  UNL1        0.2630
     23  O         22.5640  -21.5080  -11.9300 O.2     1  UNL1       -0.2000
     24  O         23.3780  -20.9710   -9.6080 O.2     1  UNL1       -0.2000
     25  N         24.1950  -23.0790  -10.8400 N.pl3   1  UNL1       -0.2800
     26  H         23.9160  -23.9980  -10.5000 H       1  UNL1        0.1790
     27  C         24.9560  -23.0210  -12.0430 C.2     1  UNL1        0.0480
     28  C         24.6640  -23.9360  -13.0580 C.2     1  UNL1        0.0300
     29  C         25.4140  -23.9450  -14.2330 C.2     1  UNL1        0.0020
     30  C         26.4590  -23.0390  -14.3930 C.2     1  UNL1        0.0010
     31  C         26.7510  -22.1180  -13.3820 C.2     1  UNL1        0.0090
     32  C         26.0030  -22.0980  -12.1940 C.2     1  UNL1       -0.0350
     33  C         26.3420  -21.0960  -11.1260 C.3     1  UNL1        0.0500
@<TRIPOS>BOND
     1    30    29    2
     2    30    31    1
     3    29    28    1
     4    31    32    2
     5    28    27    2
     6    32    27    1
     7    32    33    1
     8    27    25    1
     9    23    22    2
    10    25    22    1
    11    25    26    1
    12     8     7    2
    13    22     1    1
    14    22    24    2
    15     6     1    2
    16     6     5    1
    17     1     2    1
    18     7     5    1
    19     7     9   am
    20     5     4    2
    21     2     3    2
    22    10     9    1
    23     9    11    1
    24     4     3    1
    25    11    12    1
    26    12    18    2
    27    12    13    1
    28    21    18    1
    29    21    20    2
    30    18    16    1
    31    13    14    2
    32    20    19    1
    33    16    15    2
    34    16    17    1
    35    14    15    1
    36    19    17    2
