@<TRIPOS>MOLECULE
32771_out_ligand_01.pdbqt
 30 32 0 0 0
SMALL
GASTEIGER

@<TRIPOS>ATOM
      1  C         18.8600  -22.4040  -10.0970 C.2     1  UNL1        0.0330
      2  C         18.5390  -21.4390  -11.0610 C.2     1  UNL1        0.0170
      3  C         19.5550  -20.8090  -11.7800 C.2     1  UNL1        0.0030
      4  C         20.8890  -21.1350  -11.5300 C.2     1  UNL1        0.0250
      5  C         21.1990  -22.0900  -10.5540 C.2     1  UNL1        0.0800
      6  C         20.1910  -22.7180   -9.8180 C.2     1  UNL1        0.0420
      7  C         17.7910  -23.0560   -9.3140 C.2     1  UNL1        0.2530
      8  N         18.0260  -23.3540   -7.9750 N.am    1  UNL1       -0.3480
      9  C         19.2240  -22.9690   -7.2390 C.3     1  UNL1        0.1530
     10  O         16.7420  -23.3100   -9.9020 O.2     1  UNL1       -0.2670
     11  C         17.0940  -24.2550   -7.3000 C.3     1  UNL1        0.1640
     12  C         16.3360  -23.5560   -6.1930 C.2     1  UNL1       -0.0400
     13  C         16.6810  -23.7530   -4.8510 C.2     1  UNL1        0.0090
     14  C         15.9560  -23.1260   -3.8370 C.2     1  UNL1        0.0010
     15  C         14.8830  -22.2950   -4.1550 C.2     1  UNL1        0.0070
     16  C         14.5290  -22.0740   -5.4900 C.2     1  UNL1       -0.0610
     17  C         13.3560  -21.2060   -5.8370 C.3     1  UNL1        0.0480
     18  C         15.2530  -22.7180   -6.5020 C.2     1  UNL1        0.0150
     19  S         22.8940  -22.4960  -10.2190 S.O2    1  UNL1        0.2630
     20  O         22.8920  -23.5730   -9.2520 O.2     1  UNL1       -0.2000
     21  O         23.6260  -21.2730   -9.9730 O.2     1  UNL1       -0.2000
     22  N         23.4010  -23.1830  -11.6790 N.pl3   1  UNL1       -0.2800
     23  H         23.1950  -24.1810  -11.6960 H       1  UNL1        0.1790
     24  C         24.6440  -22.7590  -12.2280 C.2     1  UNL1        0.0480
     25  C         25.8250  -23.2460  -11.6600 C.2     1  UNL1        0.0300
     26  C         27.0620  -22.8890  -12.1950 C.2     1  UNL1        0.0020
     27  C         27.1210  -22.0500  -13.3040 C.2     1  UNL1        0.0010
     28  C         25.9430  -21.5650  -13.8780 C.2     1  UNL1        0.0090
     29  C         24.6900  -21.9110  -13.3470 C.2     1  UNL1       -0.0350
     30  C         23.4440  -21.3900  -14.0050 C.3     1  UNL1        0.0500
@<TRIPOS>BOND
     1    30    29    1
     2    28    29    1
     3    28    27    2
     4    29    24    2
     5    27    26    1
     6    24    22    1
     7    24    25    1
     8    26    25    2
     9     3     4    2
    10     3     2    1
    11    23    22    1
    12    22    19    1
    13     4     5    1
    14     2     1    2
    15     5    19    1
    16     5     6    2
    17    19    21    2
    18    19    20    2
    19     1     6    1
    20     1     7    1
    21    10     7    2
    22     7     8   am
    23     8    11    1
    24     8     9    1
    25    11    12    1
    26    18    12    2
    27    18    16    1
    28    12    13    1
    29    17    16    1
    30    16    15    2
    31    13    14    2
    32    15    14    1
