@<TRIPOS>MOLECULE
32770_out_ligand_01.pdbqt
 33 36 0 0 0
SMALL
GASTEIGER

@<TRIPOS>ATOM
      1  C         18.0920  -22.5580   -9.8370 C.2     1  UNL1        0.0800
      2  C         17.6240  -21.7520  -10.8790 C.2     1  UNL1        0.0250
      3  C         18.5290  -21.2190  -11.7970 C.2     1  UNL1        0.0030
      4  C         19.8930  -21.5050  -11.6830 C.2     1  UNL1        0.0170
      5  C         20.3550  -22.3390  -10.6560 C.2     1  UNL1        0.0330
      6  C         19.4510  -22.8670   -9.7280 C.2     1  UNL1        0.0420
      7  C         21.7990  -22.6670  -10.5020 C.2     1  UNL1        0.2510
      8  O         22.1410  -23.6200   -9.8120 O.2     1  UNL1       -0.2680
      9  N         22.6790  -21.8650  -11.1970 N.am    1  UNL1       -0.3530
     10  H         22.3180  -21.2670  -11.9270 H       1  UNL1        0.1630
     11  C         24.0890  -22.1790  -11.2580 C.3     1  UNL1        0.1610
     12  C         24.4880  -22.5710  -12.6570 C.2     1  UNL1       -0.0380
     13  C         25.0230  -23.8440  -12.9090 C.2     1  UNL1        0.0120
     14  C         25.3770  -24.2220  -14.2050 C.2     1  UNL1        0.0400
     15  C         25.1970  -23.3330  -15.2620 C.2     1  UNL1        0.1020
     16  C         24.6310  -22.0760  -15.0270 C.2     1  UNL1        0.1020
     17  O         25.5880  -23.7610  -16.5050 O.2     1  UNL1       -0.3460
     18  C         24.2890  -21.6900  -13.7320 C.2     1  UNL1        0.0480
     19  O         24.3870  -21.1630  -16.0230 O.2     1  UNL1       -0.3460
     20  C         24.4530  -21.7750  -17.3170 C.3     1  UNL1        0.2020
     21  C         25.6770  -22.6710  -17.4270 C.3     1  UNL1        0.2020
     22  S         16.9360  -23.2510   -8.6760 S.O2    1  UNL1        0.2630
     23  O         15.7090  -23.5200   -9.4010 O.2     1  UNL1       -0.2000
     24  O         17.6100  -24.3020   -7.9460 O.2     1  UNL1       -0.2000
     25  N         16.5870  -21.9640   -7.6450 N.pl3   1  UNL1       -0.2800
     26  H         16.9490  -21.0790   -7.9910 H       1  UNL1        0.1790
     27  C         16.5210  -22.1690   -6.2370 C.2     1  UNL1        0.0480
     28  C         15.3040  -22.5220   -5.6460 C.2     1  UNL1        0.0300
     29  C         15.2300  -22.7660   -4.2760 C.2     1  UNL1        0.0020
     30  C         16.3700  -22.6500   -3.4880 C.2     1  UNL1        0.0010
     31  C         17.5850  -22.2820   -4.0680 C.2     1  UNL1        0.0090
     32  C         17.6770  -22.0350   -5.4470 C.2     1  UNL1       -0.0350
     33  C         19.0030  -21.6380   -6.0310 C.3     1  UNL1        0.0500
@<TRIPOS>BOND
     1    21    20    1
     2    21    17    1
     3    20    19    1
     4    17    15    1
     5    19    16    1
     6    15    16    2
     7    15    14    1
     8    16    18    1
     9    14    13    2
    10    18    12    2
    11    13    12    1
    12    12    11    1
    13    10     9    1
    14     3     4    2
    15     3     2    1
    16     4     5    1
    17    11     9    1
    18     9     7   am
    19     2     1    2
    20     5     7    1
    21     5     6    2
    22     7     8    2
    23     1     6    1
    24     1    22    1
    25    23    22    2
    26    22    24    2
    27    22    25    1
    28    26    25    1
    29    25    27    1
    30    27    28    2
    31    27    32    1
    32    33    32    1
    33    28    29    1
    34    32    31    2
    35    29    30    2
    36    31    30    1
