@<TRIPOS>MOLECULE
32783_out_ligand_01.pdbqt
 32 34 0 0 0
SMALL
GASTEIGER

@<TRIPOS>ATOM
      1  C         19.3090  -22.1580  -10.0890 C.2     1  UNL1        0.0330
      2  C         18.9900  -21.6030  -11.3350 C.2     1  UNL1        0.0170
      3  C         20.0100  -21.2540  -12.2220 C.2     1  UNL1        0.0030
      4  C         21.3440  -21.4750  -11.8720 C.2     1  UNL1        0.0250
      5  C         21.6470  -22.0550  -10.6350 C.2     1  UNL1        0.0750
      6  C         20.6370  -22.4030   -9.7350 C.2     1  UNL1        0.0410
      7  C         18.2360  -22.5630   -9.1590 C.2     1  UNL1        0.2530
      8  N         18.4950  -23.5670   -8.2320 N.am    1  UNL1       -0.3480
      9  C         19.7240  -24.3470   -8.1740 C.3     1  UNL1        0.1530
     10  O         17.1660  -21.9670   -9.2520 O.2     1  UNL1       -0.2670
     11  C         17.5390  -23.7670   -7.1430 C.3     1  UNL1        0.1670
     12  C         17.8350  -22.8740   -5.9560 C.2     1  UNL1       -0.0070
     13  C         18.7400  -21.8090   -6.1210 C.2     1  UNL1        0.0110
     14  C         19.0570  -20.9720   -5.0540 C.2     1  UNL1        0.0010
     15  C         18.4790  -21.1940   -3.8100 C.2     1  UNL1        0.0030
     16  C         17.5830  -22.2500   -3.6290 C.2     1  UNL1        0.0370
     17  C         17.2500  -23.0940   -4.6940 C.2     1  UNL1        0.0760
     18  O         16.4000  -24.1640   -4.6090 O.2     1  UNL1       -0.3510
     19  C         15.0240  -23.9440   -4.3040 C.3     1  UNL1        0.1710
     20  C         14.3600  -23.1200   -5.3940 C.3     1  UNL1        0.0340
     21  S         23.3370  -22.3550  -10.1760 S.O2    1  UNL1        0.2450
     22  O         23.3060  -23.0930   -8.9340 O.2     1  UNL1       -0.2060
     23  O         24.0630  -21.1100  -10.3220 O.2     1  UNL1       -0.2060
     24  N         23.8400  -23.3570  -11.4630 N.pl3   1  UNL1       -0.1810
     25  H         23.0060  -23.5860  -12.0070 H       1  UNL1        0.1460
     26  C         24.8370  -22.7620  -12.3020 C.2     1  UNL1        0.0230
     27  C         26.1490  -22.6710  -11.8420 C.2     1  UNL1        0.0240
     28  C         27.1200  -22.0650  -12.6370 C.2     1  UNL1        0.0020
     29  C         26.7750  -21.5330  -13.8810 C.2     1  UNL1        0.0070
     30  C         25.4500  -21.5870  -14.3330 C.2     1  UNL1       -0.0600
     31  C         25.0840  -21.0300  -15.6780 C.3     1  UNL1        0.0480
     32  C         24.4810  -22.2120  -13.5360 C.2     1  UNL1        0.0310
@<TRIPOS>BOND
     1    31    30    1
     2    30    29    2
     3    30    32    1
     4    29    28    1
     5    32    26    2
     6    28    27    2
     7    26    27    1
     8    26    24    1
     9     3     4    2
    10     3     2    1
    11    25    24    1
    12     4     5    1
    13    24    21    1
    14     2     1    2
    15     5    21    1
    16     5     6    2
    17    23    21    2
    18    21    22    2
    19     1     6    1
    20     1     7    1
    21    10     7    2
    22     7     8   am
    23     8     9    1
    24     8    11    1
    25    11    12    1
    26    13    12    2
    27    13    14    1
    28    12    17    1
    29    20    19    1
    30    14    15    2
    31    17    18    1
    32    17    16    2
    33    18    19    1
    34    15    16    1
