@<TRIPOS>MOLECULE
32780_out_ligand_01.pdbqt
 30 32 0 0 0
SMALL
GASTEIGER

@<TRIPOS>ATOM
      1  C         20.8780  -22.2710  -10.3930 C.2     1  UNL1        0.0800
      2  C         20.8380  -21.3260  -11.4230 C.2     1  UNL1        0.0250
      3  C         19.6110  -20.8170  -11.8480 C.2     1  UNL1        0.0030
      4  C         18.4290  -21.2630  -11.2540 C.2     1  UNL1        0.0170
      5  C         18.4790  -22.2320  -10.2440 C.2     1  UNL1        0.0330
      6  C         19.7020  -22.7330   -9.7970 C.2     1  UNL1        0.0420
      7  S         22.4360  -22.9200   -9.8450 S.O2    1  UNL1        0.2630
      8  O         23.1760  -21.8160   -9.2730 O.2     1  UNL1       -0.2000
      9  O         22.1960  -24.1250   -9.0800 O.2     1  UNL1       -0.2000
     10  N         23.2040  -23.3110  -11.2940 N.pl3   1  UNL1       -0.2810
     11  H         22.5380  -23.4180  -12.0570 H       1  UNL1        0.1790
     12  C         24.4430  -22.6830  -11.5860 C.2     1  UNL1        0.0430
     13  C         25.5940  -23.1110  -10.9270 C.2     1  UNL1        0.0300
     14  C         26.8140  -22.4910  -11.1920 C.2     1  UNL1        0.0030
     15  C         26.8790  -21.4390  -12.1080 C.2     1  UNL1        0.0070
     16  C         25.7230  -20.9920  -12.7590 C.2     1  UNL1       -0.0600
     17  C         25.7920  -19.8730  -13.7560 C.3     1  UNL1        0.0480
     18  C         24.5030  -21.6310  -12.5010 C.2     1  UNL1        0.0370
     19  C         17.2370  -22.6940   -9.5920 C.2     1  UNL1        0.2530
     20  O         16.1820  -22.2230  -10.0090 O.2     1  UNL1       -0.2670
     21  N         17.3220  -23.6350   -8.5620 N.am    1  UNL1       -0.3480
     22  C         16.0600  -24.0430   -7.9590 C.3     1  UNL1        0.1530
     23  C         18.5200  -23.7690   -7.7240 C.3     1  UNL1        0.1640
     24  C         18.4880  -22.9360   -6.4630 C.2     1  UNL1       -0.0370
     25  C         17.8170  -23.4090   -5.3230 C.2     1  UNL1        0.0090
     26  C         17.7500  -22.6370   -4.1590 C.2     1  UNL1        0.0040
     27  C         18.3450  -21.3790   -4.1270 C.2     1  UNL1        0.0420
     28  C         19.0000  -20.9020   -5.2550 C.2     1  UNL1        0.1170
     29  F         19.5690  -19.6900   -5.2250 F       1  UNL1       -0.2060
     30  C         19.0720  -21.6620   -6.4190 C.2     1  UNL1        0.0510
@<TRIPOS>BOND
     1    17    16    1
     2    16    18    1
     3    16    15    2
     4    18    12    2
     5    15    14    1
     6    11    10    1
     7     3     2    1
     8     3     4    2
     9    12    10    1
    10    12    13    1
    11     2     1    2
    12    10     7    1
    13     4     5    1
    14    14    13    2
    15     1     7    1
    16     1     6    1
    17     5     6    2
    18     5    19    1
    19    20    19    2
    20     7     8    2
    21     7     9    2
    22    19    21   am
    23    21    22    1
    24    21    23    1
    25    23    24    1
    26    24    30    2
    27    24    25    1
    28    30    28    1
    29    25    26    2
    30    28    29    1
    31    28    27    2
    32    26    27    1
