@<TRIPOS>MOLECULE
32781_out_ligand_01.pdbqt
 30 32 0 0 0
SMALL
GASTEIGER

@<TRIPOS>ATOM
      1  C         18.1690  -22.2870   -5.2730 C.2     1  UNL1        0.0800
      2  C         18.7500  -21.1030   -4.8000 C.2     1  UNL1        0.0250
      3  C         19.8540  -20.5610   -5.4620 C.2     1  UNL1        0.0030
      4  C         20.3690  -21.1990   -6.5910 C.2     1  UNL1        0.0170
      5  C         19.7760  -22.3800   -7.0530 C.2     1  UNL1        0.0330
      6  C         18.6890  -22.9460   -6.3880 C.2     1  UNL1        0.0420
      7  S         16.7740  -22.9760   -4.4210 S.O2    1  UNL1        0.2630
      8  O         16.9540  -24.4060   -4.2980 O.2     1  UNL1       -0.2000
      9  O         16.5270  -22.1550   -3.2530 O.2     1  UNL1       -0.2000
     10  N         15.5030  -22.6550   -5.4910 N.pl3   1  UNL1       -0.2810
     11  H         14.6030  -22.8260   -5.0440 H       1  UNL1        0.1790
     12  C         15.6470  -23.0780   -6.8410 C.2     1  UNL1        0.0430
     13  C         15.3800  -24.4070   -7.1620 C.2     1  UNL1        0.0300
     14  C         15.5030  -24.8380   -8.4810 C.2     1  UNL1        0.0030
     15  C         15.8840  -23.9380   -9.4770 C.2     1  UNL1        0.0070
     16  C         16.1370  -22.5960   -9.1640 C.2     1  UNL1       -0.0600
     17  C         16.5660  -21.6320  -10.2310 C.3     1  UNL1        0.0480
     18  C         16.0290  -22.1750   -7.8320 C.2     1  UNL1        0.0370
     19  C         20.3300  -23.0680   -8.2350 C.2     1  UNL1        0.2530
     20  O         19.6130  -23.8950   -8.7910 O.2     1  UNL1       -0.2670
     21  N         21.6260  -22.7560   -8.6390 N.am    1  UNL1       -0.3480
     22  C         22.4680  -21.7570   -7.9960 C.3     1  UNL1        0.1530
     23  C         22.2510  -23.6050   -9.6490 C.3     1  UNL1        0.1640
     24  C         22.4660  -22.8710  -10.9530 C.2     1  UNL1       -0.0400
     25  C         23.7190  -22.9140  -11.5880 C.2     1  UNL1        0.0120
     26  C         23.9310  -22.2220  -12.7810 C.2     1  UNL1        0.0430
     27  C         22.8920  -21.4880  -13.3400 C.2     1  UNL1        0.1160
     28  F         23.0940  -20.8220  -14.4840 F       1  UNL1       -0.2060
     29  C         21.6460  -21.4300  -12.7270 C.2     1  UNL1        0.0430
     30  C         21.4320  -22.1200  -11.5330 C.2     1  UNL1        0.0120
@<TRIPOS>BOND
     1    28    27    1
     2    27    26    2
     3    27    29    1
     4    26    25    1
     5    29    30    2
     6    25    24    2
     7    30    24    1
     8    24    23    1
     9    17    16    1
    10    23    21    1
    11    15    16    2
    12    15    14    1
    13    16    18    1
    14    20    19    2
    15    21    19   am
    16    21    22    1
    17    14    13    2
    18    19     5    1
    19    18    12    2
    20    13    12    1
    21     5     4    2
    22     5     6    1
    23    12    10    1
    24     4     3    1
    25     6     1    2
    26    10    11    1
    27    10     7    1
    28     3     2    2
    29     1     2    1
    30     1     7    1
    31     7     8    2
    32     7     9    2
