@<TRIPOS>MOLECULE
32782_out_ligand_01.pdbqt
 31 33 0 0 0
SMALL
GASTEIGER

@<TRIPOS>ATOM
      1  C         18.8460  -22.2330  -10.0290 C.2     1  UNL1        0.0330
      2  C         18.6390  -21.5740  -11.2460 C.2     1  UNL1        0.0170
      3  C         19.7340  -21.2170  -12.0340 C.2     1  UNL1        0.0030
      4  C         21.0280  -21.5240  -11.6070 C.2     1  UNL1        0.0250
      5  C         21.2190  -22.1890  -10.3870 C.2     1  UNL1        0.0800
      6  C         20.1320  -22.5230   -9.5760 C.2     1  UNL1        0.0420
      7  C         17.6880  -22.6070   -9.1960 C.2     1  UNL1        0.2530
      8  N         17.8530  -23.6250   -8.2610 N.am    1  UNL1       -0.3480
      9  C         19.1160  -24.3010   -7.9980 C.3     1  UNL1        0.1530
     10  O         16.6380  -22.0030   -9.3890 O.2     1  UNL1       -0.2670
     11  C         16.6580  -24.1720   -7.6240 C.3     1  UNL1        0.1640
     12  C         16.4110  -23.5620   -6.2640 C.2     1  UNL1       -0.0380
     13  C         15.2120  -23.7930   -5.5780 C.2     1  UNL1        0.0090
     14  C         14.9910  -23.2050   -4.3330 C.2     1  UNL1        0.0030
     15  C         15.9620  -22.3800   -3.7590 C.2     1  UNL1        0.0370
     16  C         17.1610  -22.1390   -4.4290 C.2     1  UNL1        0.0680
     17  C         17.3770  -22.7300   -5.6780 C.2     1  UNL1        0.0450
     18  O         18.1880  -21.3530   -3.9850 O.2     1  UNL1       -0.3560
     19  C         19.0300  -20.7750   -4.9740 C.3     1  UNL1        0.2100
     20  S         22.8680  -22.5880   -9.8560 S.O2    1  UNL1        0.2630
     21  O         22.7880  -23.6720   -8.9020 O.2     1  UNL1       -0.2000
     22  O         23.5320  -21.3430   -9.5260 O.2     1  UNL1       -0.2000
     23  N         23.5980  -23.1370  -11.2780 N.pl3   1  UNL1       -0.2810
     24  H         23.5700  -24.1520  -11.3550 H       1  UNL1        0.1790
     25  C         24.7330  -22.4550  -11.7970 C.2     1  UNL1        0.0430
     26  C         26.0170  -22.7440  -11.3420 C.2     1  UNL1        0.0300
     27  C         27.1170  -22.0930  -11.9010 C.2     1  UNL1        0.0030
     28  C         26.9320  -21.1460  -12.9080 C.2     1  UNL1        0.0070
     29  C         25.6440  -20.8320  -13.3580 C.2     1  UNL1       -0.0600
     30  C         25.4490  -19.8360  -14.4630 C.3     1  UNL1        0.0480
     31  C         24.5450  -21.5020  -12.8030 C.2     1  UNL1        0.0370
@<TRIPOS>BOND
     1    30    29    1
     2    29    28    2
     3    29    31    1
     4    28    27    1
     5    31    25    2
     6     3     4    2
     7     3     2    1
     8    27    26    2
     9    25    26    1
    10    25    23    1
    11     4     5    1
    12    24    23    1
    13    23    20    1
    14     2     1    2
    15     5    20    1
    16     5     6    2
    17     1     6    1
    18     1     7    1
    19    20    22    2
    20    20    21    2
    21    10     7    2
    22     7     8   am
    23     8     9    1
    24     8    11    1
    25    11    12    1
    26    12    17    2
    27    12    13    1
    28    17    16    1
    29    13    14    2
    30    19    18    1
    31    16    18    1
    32    16    15    2
    33    14    15    1
