@<TRIPOS>MOLECULE
3278_out_ligand_01.pdbqt
 30 32 0 0 0
SMALL
GASTEIGER

@<TRIPOS>ATOM
      1  C         23.2380  -23.5940   -9.7340 C.2     1  UNL1        0.2600
      2  O         23.8120  -23.9580   -8.7090 O.2     1  UNL1       -0.2670
      3  N         21.8750  -23.7430   -9.8700 N.am    1  UNL1       -0.3520
      4  H         21.4510  -23.5420  -10.7640 H       1  UNL1        0.1630
      5  C         23.9290  -22.9810  -10.8670 C.ar    1  UNL1        0.0960
      6  S         22.9670  -22.1390  -12.0160 S.2     1  UNL1       -0.0690
      7  C         24.3130  -21.7050  -12.9620 C.ar    1  UNL1        0.1230
      8  C         25.4980  -22.2100  -12.4510 C.ar    1  UNL1       -0.0090
      9  C         26.8320  -22.0010  -13.1010 C.3     1  UNL1        0.0520
     10  C         25.2670  -22.9250  -11.2220 C.ar    1  UNL1        0.0640
     11 CL         26.5730  -23.6010  -10.3260 Cl      1  UNL1       -0.0820
     12  S         23.9560  -20.7290  -14.4140 S.O2    1  UNL1        0.2460
     13  O         24.8450  -19.5960  -14.3160 O.2     1  UNL1       -0.2060
     14  O         23.9900  -21.6720  -15.5050 O.2     1  UNL1       -0.2060
     15  N         22.3950  -20.1300  -14.2970 N.3     1  UNL1       -0.2250
     16  H         21.8880  -20.1990  -15.1780 H       1  UNL1        0.1360
     17  H         22.3570  -19.2200  -13.8420 H       1  UNL1        0.1360
     18  C         21.0880  -24.5110   -8.9340 C.3     1  UNL1        0.1610
     19  C         20.2430  -23.5930   -8.0890 C.2     1  UNL1       -0.0400
     20  C         20.7790  -22.4030   -7.5840 C.2     1  UNL1        0.0090
     21  C         20.0100  -21.5760   -6.7670 C.2     1  UNL1        0.0010
     22  C         18.7030  -21.9350   -6.4390 C.2     1  UNL1        0.0120
     23  C         18.1380  -23.1270   -6.9240 C.2     1  UNL1        0.0040
     24  C         18.9290  -23.9500   -7.7450 C.2     1  UNL1        0.0210
     25  C         16.7240  -23.5380   -6.5290 C.3     1  UNL1        0.1890
     26  C         16.0540  -24.3060   -7.6660 C.3     1  UNL1        0.0850
     27  O         15.9320  -22.3710   -6.2330 O.3     1  UNL1       -0.3490
     28  C         15.3590  -22.6220   -4.9520 C.3     1  UNL1        0.1980
     29  C         16.3420  -23.5480   -4.2950 C.3     1  UNL1        0.1980
     30  O         16.7540  -24.3910   -5.3670 O.3     1  UNL1       -0.3490
@<TRIPOS>BOND
     1    14    12    2
     2    16    15    1
     3    12    13    2
     4    12    15    1
     5    12     7    1
     6    15    17    1
     7     9     8    1
     8     7     8   ar
     9     7     6   ar
    10     8    10   ar
    11     6     5   ar
    12    10     5   ar
    13    10    11    1
    14     5     1    1
    15     4     3    1
    16     3     1   am
    17     3    18    1
    18     1     2    2
    19    18    19    1
    20    19    24    2
    21    19    20    1
    22    24    23    1
    23    26    25    1
    24    20    21    2
    25    23    25    1
    26    23    22    2
    27    21    22    1
    28    25    27    1
    29    25    30    1
    30    27    28    1
    31    30    29    1
    32    28    29    1
