@<TRIPOS>MOLECULE
32793_out_ligand_01.pdbqt
 30 32 0 0 0
SMALL
GASTEIGER

@<TRIPOS>ATOM
      1  C         17.9000  -22.7090   -4.3720 C.2     1  UNL1        0.0230
      2  C         18.0230  -21.4080   -3.8840 C.2     1  UNL1        0.0240
      3  C         18.8200  -20.4820   -4.5560 C.2     1  UNL1        0.0030
      4  C         19.5040  -20.8580   -5.7140 C.2     1  UNL1        0.0170
      5  C         19.3950  -22.1680   -6.1990 C.2     1  UNL1        0.0330
      6  C         18.5740  -23.0890   -5.5320 C.2     1  UNL1        0.0410
      7  N         17.0450  -23.6470   -3.7030 N.pl3   1  UNL1       -0.1810
      8  H         17.3490  -24.6100   -3.8590 H       1  UNL1        0.1460
      9  S         15.4010  -23.5440   -4.1570 S.O2    1  UNL1        0.2450
     10  O         14.9130  -22.2660   -3.6850 O.2     1  UNL1       -0.2060
     11  O         14.7250  -24.7860   -3.8480 O.2     1  UNL1       -0.2060
     12  C         15.5630  -23.4530   -5.9230 C.2     1  UNL1        0.0740
     13  C         15.4800  -22.2180   -6.5720 C.2     1  UNL1        0.0250
     14  C         15.6030  -22.1650   -7.9610 C.2     1  UNL1        0.0080
     15  C         15.7970  -23.3380   -8.7040 C.2     1  UNL1       -0.0620
     16  C         15.9290  -23.2900  -10.1980 C.3     1  UNL1        0.0480
     17  C         15.8740  -24.5700   -8.0370 C.2     1  UNL1        0.0080
     18  C         15.7530  -24.6320   -6.6490 C.2     1  UNL1        0.0250
     19  C         20.1030  -22.6250   -7.4300 C.2     1  UNL1        0.2510
     20  O         21.2310  -22.2160   -7.6770 O.2     1  UNL1       -0.2680
     21  N         19.4120  -23.4810   -8.2600 N.am    1  UNL1       -0.3530
     22  H         18.4070  -23.5410   -8.1670 H       1  UNL1        0.1630
     23  C         19.9630  -23.8560   -9.5430 C.3     1  UNL1        0.1640
     24  C         19.9740  -22.6850  -10.4840 C.2     1  UNL1       -0.0020
     25  C         18.8360  -21.8770  -10.6280 C.2     1  UNL1        0.0120
     26  C         18.8510  -20.7830  -11.4950 C.2     1  UNL1        0.0010
     27  C         20.0000  -20.4830  -12.2260 C.2     1  UNL1        0.0030
     28  C         21.1370  -21.2770  -12.0870 C.2     1  UNL1        0.0430
     29  C         21.1170  -22.3660  -11.2200 C.2     1  UNL1        0.1240
     30  F         22.2260  -23.1100  -11.0940 F       1  UNL1       -0.2050
@<TRIPOS>BOND
     1    27    28    2
     2    27    26    1
     3    28    29    1
     4    26    25    2
     5    29    30    1
     6    29    24    2
     7    25    24    1
     8    24    23    1
     9    16    15    1
    10    23    21    1
    11    15    17    2
    12    15    14    1
    13    21    22    1
    14    21    19   am
    15    17    18    1
    16    14    13    2
    17    20    19    2
    18    19     5    1
    19    18    12    2
    20    13    12    1
    21     5     4    2
    22     5     6    1
    23    12     9    1
    24     4     3    1
    25     6     1    2
    26     3     2    2
    27     1     2    1
    28     1     7    1
    29     9    11    2
    30     9     7    1
    31     9    10    2
    32     8     7    1
