@<TRIPOS>MOLECULE
32792_out_ligand_01.pdbqt
 31 33 0 0 0
SMALL
GASTEIGER

@<TRIPOS>ATOM
      1  C         19.4900  -21.4220  -11.5300 C.2     1  UNL1        0.0330
      2  C         20.0300  -20.6190  -12.5410 C.2     1  UNL1        0.0170
      3  C         21.3550  -20.8030  -12.9450 C.2     1  UNL1        0.0090
      4  C         22.1510  -21.7990  -12.3610 C.2     1  UNL1       -0.0400
      5  C         23.5780  -21.9540  -12.8050 C.3     1  UNL1        0.0500
      6  C         21.5960  -22.6040  -11.3540 C.2     1  UNL1        0.0290
      7  C         20.2750  -22.4180  -10.9400 C.2     1  UNL1        0.0420
      8  C         18.0860  -21.2670  -11.0710 C.2     1  UNL1        0.2510
      9  N         17.6230  -22.2200  -10.1930 N.am    1  UNL1       -0.3530
     10  H         18.1380  -23.0830  -10.0880 H       1  UNL1        0.1630
     11  O         17.4010  -20.3430  -11.4940 O.2     1  UNL1       -0.2680
     12  C         16.2350  -22.2280   -9.7910 C.3     1  UNL1        0.1610
     13  C         16.0790  -22.8910   -8.4500 C.2     1  UNL1       -0.0400
     14  C         16.6240  -24.1590   -8.2120 C.2     1  UNL1        0.0090
     15  C         16.5080  -24.7520   -6.9550 C.2     1  UNL1        0.0010
     16  C         15.8500  -24.0820   -5.9230 C.2     1  UNL1        0.0070
     17  C         15.2960  -22.8160   -6.1400 C.2     1  UNL1       -0.0610
     18  C         14.6230  -22.0790   -5.0210 C.3     1  UNL1        0.0480
     19  C         15.4290  -22.2210   -7.4020 C.2     1  UNL1        0.0150
     20  N         22.4050  -23.5890  -10.6860 N.pl3   1  UNL1       -0.1810
     21  H         21.8150  -24.3490  -10.3400 H       1  UNL1        0.1460
     22  S         23.2460  -22.9810   -9.3270 S.O2    1  UNL1        0.2450
     23  O         24.0020  -24.0340   -8.6880 O.2     1  UNL1       -0.2060
     24  O         23.8590  -21.7390   -9.7470 O.2     1  UNL1       -0.2060
     25  C         21.8800  -22.5850   -8.2580 C.2     1  UNL1        0.0740
     26  C         21.9220  -21.4010   -7.5120 C.2     1  UNL1        0.0260
     27  C         20.8500  -21.0760   -6.6800 C.2     1  UNL1        0.0250
     28  C         19.7460  -21.9280   -6.6040 C.2     1  UNL1        0.0340
     29 CL         18.4280  -21.5240   -5.5760 Cl      1  UNL1       -0.0840
     30  C         19.7030  -23.1020   -7.3580 C.2     1  UNL1        0.0250
     31  C         20.7710  -23.4340   -8.1930 C.2     1  UNL1        0.0260
@<TRIPOS>BOND
     1     3     2    1
     2     3     4    2
     3     5     4    1
     4     2     1    2
     5     4     6    1
     6     1     8    1
     7     1     7    1
     8    11     8    2
     9     6     7    2
    10     6    20    1
    11     8     9   am
    12    20    21    1
    13    20    22    1
    14     9    10    1
    15     9    12    1
    16    12    13    1
    17    24    22    2
    18    22    23    2
    19    22    25    1
    20    13    14    2
    21    13    19    1
    22    25    31    2
    23    25    26    1
    24    14    15    1
    25    31    30    1
    26    26    27    2
    27    19    17    2
    28    30    28    2
    29    15    16    2
    30    27    28    1
    31    28    29    1
    32    17    16    1
    33    17    18    1
