@<TRIPOS>MOLECULE
32796_out_ligand_01.pdbqt
 30 32 0 0 0
SMALL
GASTEIGER

@<TRIPOS>ATOM
      1  C         20.5210  -21.9510  -10.2410 C.2     1  UNL1        0.0750
      2  C         20.4440  -21.1330  -11.3730 C.2     1  UNL1        0.0250
      3  C         19.1980  -20.8380  -11.9250 C.2     1  UNL1        0.0030
      4  C         18.0350  -21.3540  -11.3460 C.2     1  UNL1        0.0170
      5  C         18.1140  -22.1660  -10.2050 C.2     1  UNL1        0.0330
      6  C         19.3650  -22.4820   -9.6620 C.2     1  UNL1        0.0410
      7  S         22.1170  -22.3490   -9.5680 S.O2    1  UNL1        0.2450
      8  O         22.9040  -21.1350   -9.5320 O.2     1  UNL1       -0.2060
      9  O         21.8980  -23.1620   -8.3920 O.2     1  UNL1       -0.2060
     10  N         22.7460  -23.3010  -10.8390 N.pl3   1  UNL1       -0.1810
     11  H         21.9820  -23.4430  -11.5020 H       1  UNL1        0.1460
     12  C         23.8680  -22.7010  -11.5040 C.2     1  UNL1        0.0230
     13  C         25.1600  -22.8910  -11.0140 C.2     1  UNL1        0.0240
     14  C         26.2420  -22.3310  -11.6910 C.2     1  UNL1        0.0020
     15  C         26.0350  -21.5990  -12.8620 C.2     1  UNL1        0.0070
     16  C         24.7440  -21.4380  -13.3790 C.2     1  UNL1       -0.0600
     17  C         24.5190  -20.6450  -14.6330 C.3     1  UNL1        0.0480
     18  C         23.6590  -21.9900  -12.6860 C.2     1  UNL1        0.0310
     19  C         16.9020  -22.7410   -9.5580 C.2     1  UNL1        0.2510
     20  O         15.7890  -22.4390   -9.9740 O.2     1  UNL1       -0.2680
     21  N         17.1130  -23.6210   -8.5220 N.am    1  UNL1       -0.3530
     22  H         18.0470  -23.8760   -8.2370 H       1  UNL1        0.1630
     23  C         16.0200  -24.1810   -7.7580 C.3     1  UNL1        0.1640
     24  C         15.9800  -23.5940   -6.3770 C.2     1  UNL1       -0.0020
     25  C         14.9420  -22.7320   -5.9960 C.2     1  UNL1        0.0120
     26  C         14.9180  -22.1750   -4.7150 C.2     1  UNL1        0.0010
     27  C         15.9320  -22.4690   -3.8040 C.2     1  UNL1        0.0030
     28  C         16.9740  -23.3170   -4.1750 C.2     1  UNL1        0.0430
     29  C         16.9920  -23.8680   -5.4540 C.2     1  UNL1        0.1240
     30  F         18.0110  -24.6690   -5.7970 F       1  UNL1       -0.2050
@<TRIPOS>BOND
     1    17    16    1
     2    16    15    2
     3    16    18    1
     4    15    14    1
     5    18    12    2
     6     3     2    1
     7     3     4    2
     8    14    13    2
     9    12    13    1
    10    12    10    1
    11    11    10    1
    12     2     1    2
    13     4     5    1
    14    10     7    1
    15     1     6    1
    16     1     7    1
    17     5     6    2
    18     5    19    1
    19    20    19    2
    20     7     8    2
    21     7     9    2
    22    19    21   am
    23    21    22    1
    24    21    23    1
    25    23    24    1
    26    24    25    2
    27    24    29    1
    28    25    26    1
    29    30    29    1
    30    29    28    2
    31    26    27    2
    32    28    27    1
