@<TRIPOS>MOLECULE
32803_out_ligand_01.pdbqt
 33 36 0 0 0
SMALL
GASTEIGER

@<TRIPOS>ATOM
      1  C         17.6850  -22.4470   -9.9030 C.2     1  UNL1        0.0800
      2  C         17.2520  -21.5580  -10.8920 C.2     1  UNL1        0.0250
      3  C         18.1790  -21.0120  -11.7770 C.2     1  UNL1        0.0030
      4  C         19.5260  -21.3710  -11.6870 C.2     1  UNL1        0.0170
      5  C         19.9500  -22.2920  -10.7190 C.2     1  UNL1        0.0330
      6  C         19.0280  -22.8290   -9.8160 C.2     1  UNL1        0.0420
      7  C         21.3940  -22.6500  -10.6650 C.2     1  UNL1        0.2510
      8  O         21.7820  -23.4980   -9.8710 O.2     1  UNL1       -0.2680
      9  N         22.2200  -21.9610  -11.5260 N.am    1  UNL1       -0.3530
     10  H         21.8700  -21.1230  -11.9720 H       1  UNL1        0.1630
     11  C         23.6590  -22.0990  -11.4550 C.3     1  UNL1        0.1610
     12  C         24.2210  -22.4930  -12.7960 C.2     1  UNL1       -0.0380
     13  C         24.8700  -23.7250  -12.9680 C.2     1  UNL1        0.0120
     14  C         25.3730  -24.0930  -14.2190 C.2     1  UNL1        0.0400
     15  C         25.2280  -23.2340  -15.3060 C.2     1  UNL1        0.1020
     16  C         24.5530  -22.0190  -15.1540 C.2     1  UNL1        0.1020
     17  O         25.7650  -23.6520  -16.4980 O.2     1  UNL1       -0.3460
     18  C         24.0630  -21.6450  -13.9030 C.2     1  UNL1        0.0480
     19  O         24.3390  -21.1440  -16.1880 O.2     1  UNL1       -0.3460
     20  C         24.5670  -21.7690  -17.4550 C.3     1  UNL1        0.2020
     21  C         25.8580  -22.5710  -17.4340 C.3     1  UNL1        0.2020
     22  S         16.5110  -23.1390   -8.7580 S.O2    1  UNL1        0.2630
     23  O         15.8010  -22.0470   -8.1270 O.2     1  UNL1       -0.2000
     24  O         15.8010  -24.1870   -9.4620 O.2     1  UNL1       -0.2000
     25  N         17.4920  -23.9150   -7.6260 N.pl3   1  UNL1       -0.2810
     26  H         18.2590  -24.4250   -8.0600 H       1  UNL1        0.1790
     27  C         17.7380  -23.2860   -6.3730 C.2     1  UNL1        0.0430
     28  C         17.2460  -23.8350   -5.1920 C.2     1  UNL1        0.0300
     29  C         17.4660  -23.1820   -3.9790 C.2     1  UNL1        0.0030
     30  C         18.1710  -21.9780   -3.9500 C.2     1  UNL1        0.0070
     31  C         18.6560  -21.4110   -5.1350 C.2     1  UNL1       -0.0600
     32  C         19.4350  -20.1300   -5.1010 C.3     1  UNL1        0.0480
     33  C         18.4470  -22.0820   -6.3480 C.2     1  UNL1        0.0370
@<TRIPOS>BOND
     1    20    21    1
     2    20    19    1
     3    21    17    1
     4    17    15    1
     5    19    16    1
     6    15    16    2
     7    15    14    1
     8    16    18    1
     9    14    13    2
    10    18    12    2
    11    13    12    1
    12    12    11    1
    13    10     9    1
    14     3     4    2
    15     3     2    1
    16     4     5    1
    17     9    11    1
    18     9     7   am
    19     2     1    2
    20     5     7    1
    21     5     6    2
    22     7     8    2
    23     1     6    1
    24     1    22    1
    25    24    22    2
    26    22    23    2
    27    22    25    1
    28    26    25    1
    29    25    27    1
    30    27    33    2
    31    27    28    1
    32    33    31    1
    33    28    29    2
    34    31    32    1
    35    31    30    2
    36    29    30    1
