@<TRIPOS>MOLECULE
32809_out_ligand_01.pdbqt
 32 34 0 0 0
SMALL
GASTEIGER

@<TRIPOS>ATOM
      1  C         17.6520  -22.3050   -4.9960 C.2     1  UNL1        0.0760
      2  C         18.1010  -21.0630   -4.5380 C.2     1  UNL1        0.0250
      3  C         19.2440  -20.4950   -5.0970 C.2     1  UNL1        0.0030
      4  C         19.9340  -21.1650   -6.1130 C.2     1  UNL1        0.0170
      5  C         19.4780  -22.4100   -6.5770 C.2     1  UNL1        0.0330
      6  C         18.3410  -22.9900   -6.0010 C.2     1  UNL1        0.0410
      7  C         20.1830  -23.1590   -7.6550 C.2     1  UNL1        0.2520
      8  O         19.6850  -24.1800   -8.1150 O.2     1  UNL1       -0.2680
      9  N         21.3660  -22.6200   -8.1080 N.am    1  UNL1       -0.3490
     10  H         21.6360  -21.6890   -7.8300 H       1  UNL1        0.1630
     11  C         22.1150  -23.2240   -9.2010 C.3     1  UNL1        0.1140
     12  C         23.6140  -23.2680   -8.8810 C.3     1  UNL1        0.0370
     13  C         21.7750  -22.4890  -10.4940 C.2     1  UNL1       -0.0290
     14  C         20.5020  -21.9080  -10.6690 C.2     1  UNL1        0.0160
     15  C         20.1500  -21.2430  -11.8520 C.2     1  UNL1       -0.0610
     16  C         18.7800  -20.6510  -12.0110 C.3     1  UNL1        0.0480
     17  C         21.0720  -21.1880  -12.8960 C.2     1  UNL1        0.0070
     18  C         22.3290  -21.7740  -12.7550 C.2     1  UNL1        0.0080
     19  C         22.6920  -22.4350  -11.5700 C.2     1  UNL1       -0.0540
     20  C         24.0610  -23.0560  -11.4840 C.3     1  UNL1        0.0490
     21  S         16.2080  -23.0250   -4.2450 S.O2    1  UNL1        0.2470
     22  O         15.8360  -22.1480   -3.1530 O.2     1  UNL1       -0.2050
     23  O         16.4740  -24.4320   -4.0220 O.2     1  UNL1       -0.2050
     24  N         15.0490  -22.8900   -5.5070 N.pl3   1  UNL1       -0.1760
     25  C         14.0850  -21.7730   -5.3540 C.3     1  UNL1        0.1360
     26  C         15.6130  -22.9870   -6.8300 C.2     1  UNL1        0.0250
     27  C         15.9530  -21.8590   -7.5810 C.2     1  UNL1        0.0250
     28  C         16.4270  -22.0060   -8.8880 C.2     1  UNL1        0.0080
     29  C         16.5540  -23.2790   -9.4590 C.2     1  UNL1       -0.0620
     30  C         17.0360  -23.4320  -10.8710 C.3     1  UNL1        0.0480
     31  C         16.1710  -24.4000   -8.7140 C.2     1  UNL1        0.0080
     32  C         15.6980  -24.2540   -7.4080 C.2     1  UNL1        0.0250
@<TRIPOS>BOND
     1    17    18    2
     2    17    15    1
     3    18    19    1
     4    16    15    1
     5    15    14    2
     6    19    20    1
     7    19    13    2
     8    30    29    1
     9    14    13    1
    10    13    11    1
    11    29    28    2
    12    29    31    1
    13    11    12    1
    14    11     9    1
    15    28    27    1
    16    31    32    2
    17     8     7    2
    18     9    10    1
    19     9     7   am
    20     7     5    1
    21    27    26    2
    22    32    26    1
    23    26    24    1
    24     5     4    2
    25     5     6    1
    26     4     3    1
    27     6     1    2
    28    24    25    1
    29    24    21    1
    30     3     2    2
    31     1     2    1
    32     1    21    1
    33    21    23    2
    34    21    22    2
