@<TRIPOS>MOLECULE
32804_out_ligand_01.pdbqt
 30 32 0 0 0
SMALL
GASTEIGER

@<TRIPOS>ATOM
      1  C         21.3630  -22.1260  -10.5560 C.2     1  UNL1        0.0800
      2  C         21.0810  -21.1720  -11.5420 C.2     1  UNL1        0.0250
      3  C         19.7550  -20.8360  -11.8190 C.2     1  UNL1        0.0030
      4  C         18.7190  -21.4520  -11.1150 C.2     1  UNL1        0.0170
      5  C         19.0190  -22.4010  -10.1310 C.2     1  UNL1        0.0330
      6  C         20.3390  -22.7330   -9.8270 C.2     1  UNL1        0.0420
      7  S         23.0540  -22.5380  -10.1940 S.O2    1  UNL1        0.2630
      8  O         23.8030  -21.3000  -10.1440 O.2     1  UNL1       -0.2000
      9  O         23.0660  -23.4680   -9.0850 O.2     1  UNL1       -0.2000
     10  N         23.5300  -23.3110  -11.5940 N.pl3   1  UNL1       -0.2810
     11  H         23.0560  -24.1880  -11.8330 H       1  UNL1        0.1790
     12  C         24.5520  -22.8000  -12.4280 C.2     1  UNL1        0.0430
     13  C         25.8760  -23.1430  -12.1530 C.2     1  UNL1        0.0300
     14  C         26.8960  -22.6960  -12.9960 C.2     1  UNL1        0.0030
     15  C         26.5880  -21.9200  -14.1180 C.2     1  UNL1        0.0070
     16  C         25.2580  -21.5750  -14.4000 C.2     1  UNL1       -0.0600
     17  C         24.9210  -20.7870  -15.6360 C.3     1  UNL1        0.0480
     18  C         24.2400  -22.0350  -13.5530 C.2     1  UNL1        0.0370
     19  C         17.9210  -23.0440   -9.3870 C.2     1  UNL1        0.2530
     20  O         16.8800  -23.2710   -9.9990 O.2     1  UNL1       -0.2670
     21  N         18.1350  -23.3750   -8.0540 N.am    1  UNL1       -0.3480
     22  C         19.3600  -23.0870   -7.3250 C.3     1  UNL1        0.1530
     23  C         17.1560  -24.2370   -7.3930 C.3     1  UNL1        0.1670
     24  C         16.3850  -23.5040   -6.3270 C.2     1  UNL1       -0.0020
     25  C         15.2600  -22.7350   -6.6520 C.2     1  UNL1        0.0120
     26  C         14.5300  -22.0870   -5.6540 C.2     1  UNL1        0.0010
     27  C         14.9230  -22.1880   -4.3210 C.2     1  UNL1        0.0030
     28  C         16.0400  -22.9510   -3.9860 C.2     1  UNL1        0.0430
     29  C         16.7540  -23.6080   -4.9840 C.2     1  UNL1        0.1240
     30  F         17.8340  -24.3280   -4.6390 F       1  UNL1       -0.2050
@<TRIPOS>BOND
     1    17    16    1
     2    16    15    2
     3    16    18    1
     4    15    14    1
     5    18    12    2
     6    14    13    2
     7    12    13    1
     8    12    10    1
     9    11    10    1
    10     3     2    1
    11     3     4    2
    12    10     7    1
    13     2     1    2
    14     4     5    1
    15     1     7    1
    16     1     6    1
    17     7     8    2
    18     7     9    2
    19     5     6    2
    20     5    19    1
    21    20    19    2
    22    19    21   am
    23    21    23    1
    24    21    22    1
    25    23    24    1
    26    25    24    2
    27    25    26    1
    28    24    29    1
    29    26    27    2
    30    29    30    1
    31    29    28    2
    32    27    28    1
