@<TRIPOS>MOLECULE
32818_out_ligand_01.pdbqt
 32 35 0 0 0
SMALL
GASTEIGER

@<TRIPOS>ATOM
      1  C         20.5620  -21.9980   -7.1580 C.2     1  UNL1        0.0330
      2  C         20.4550  -20.9520   -6.2290 C.2     1  UNL1        0.0170
      3  C         19.2690  -20.7660   -5.5140 C.2     1  UNL1        0.0030
      4  C         18.1940  -21.6310   -5.7100 C.2     1  UNL1        0.0250
      5  C         18.3190  -22.7000   -6.6060 C.2     1  UNL1        0.0800
      6  C         19.4920  -22.8840   -7.3410 C.2     1  UNL1        0.0420
      7  C         21.7970  -22.2150   -7.9550 C.2     1  UNL1        0.2510
      8  O         22.7420  -21.4480   -7.8290 O.2     1  UNL1       -0.2680
      9  N         21.8000  -23.3230   -8.7680 N.am    1  UNL1       -0.3530
     10  H         21.0160  -23.9560   -8.7670 H       1  UNL1        0.1630
     11  C         22.9390  -23.6780   -9.5830 C.3     1  UNL1        0.1610
     12  C         22.9630  -22.8770  -10.8590 C.2     1  UNL1       -0.0380
     13  C         21.7690  -22.4180  -11.4330 C.2     1  UNL1        0.0120
     14  C         21.7890  -21.6700  -12.6140 C.2     1  UNL1        0.0400
     15  C         23.0020  -21.3900  -13.2370 C.2     1  UNL1        0.1020
     16  C         24.1990  -21.8310  -12.6670 C.2     1  UNL1        0.1020
     17  O         22.9440  -20.6700  -14.4040 O.2     1  UNL1       -0.3460
     18  C         24.1820  -22.5800  -11.4910 C.2     1  UNL1        0.0480
     19  O         25.4330  -21.5720  -13.2110 O.2     1  UNL1       -0.3460
     20  C         25.3610  -20.5300  -14.1920 C.3     1  UNL1        0.2020
     21  C         24.1790  -20.7460  -15.1230 C.3     1  UNL1        0.2020
     22  S         16.9580  -23.8220   -6.8430 S.O2    1  UNL1        0.2630
     23  O         17.2160  -25.0100   -6.0570 O.2     1  UNL1       -0.2000
     24  O         15.7370  -23.0650   -6.6670 O.2     1  UNL1       -0.2000
     25  N         17.0550  -24.1910   -8.4880 N.pl3   1  UNL1       -0.2810
     26  H         16.4720  -24.9870   -8.7370 H       1  UNL1        0.1790
     27  C         17.1680  -23.1320   -9.4340 C.2     1  UNL1        0.0420
     28  C         18.2910  -23.0830  -10.2610 C.2     1  UNL1        0.0300
     29  C         18.4040  -22.0790  -11.2230 C.2     1  UNL1        0.0020
     30  C         17.3960  -21.1240  -11.3570 C.2     1  UNL1        0.0000
     31  C         16.2790  -21.1680  -10.5250 C.2     1  UNL1        0.0020
     32  C         16.1660  -22.1700   -9.5600 C.2     1  UNL1        0.0300
@<TRIPOS>BOND
     1    21    17    1
     2    21    20    1
     3    17    15    1
     4    20    19    1
     5    15    16    2
     6    15    14    1
     7    19    16    1
     8    16    18    1
     9    14    13    2
    10    18    12    2
    11    13    12    1
    12    30    29    2
    13    30    31    1
    14    29    28    1
    15    12    11    1
    16    31    32    2
    17    28    27    2
    18    11     9    1
    19    32    27    1
    20    27    25    1
    21     9    10    1
    22     9     7   am
    23    26    25    1
    24    25    22    1
    25     7     8    2
    26     7     1    1
    27     6     1    2
    28     6     5    1
    29     1     2    1
    30    22    24    2
    31    22     5    1
    32    22    23    2
    33     5     4    2
    34     2     3    2
    35     4     3    1
