@<TRIPOS>MOLECULE
32819_out_ligand_01.pdbqt
 31 33 0 0 0
SMALL
GASTEIGER

@<TRIPOS>ATOM
      1  C         19.3530  -22.2330  -10.1790 C.2     1  UNL1        0.0330
      2  C         19.0210  -21.5710  -11.3660 C.2     1  UNL1        0.0170
      3  C         20.0280  -21.2020  -12.2610 C.2     1  UNL1        0.0030
      4  C         21.3610  -21.5060  -11.9750 C.2     1  UNL1        0.0250
      5  C         21.6780  -22.1760  -10.7900 C.2     1  UNL1        0.0800
      6  C         20.6790  -22.5660   -9.8960 C.2     1  UNL1        0.0420
      7  C         18.3020  -22.6390   -9.2210 C.2     1  UNL1        0.2530
      8  N         18.5880  -23.6260   -8.2870 N.am    1  UNL1       -0.3480
      9  C         19.8160  -24.4100   -8.2490 C.3     1  UNL1        0.1530
     10  O         17.2130  -22.0800   -9.3120 O.2     1  UNL1       -0.2670
     11  C         17.6370  -23.8470   -7.1970 C.3     1  UNL1        0.1670
     12  C         17.9020  -22.9360   -6.0180 C.2     1  UNL1       -0.0070
     13  C         18.7550  -21.8320   -6.1860 C.2     1  UNL1        0.0110
     14  C         19.0480  -20.9890   -5.1130 C.2     1  UNL1        0.0010
     15  C         18.5020  -21.2450   -3.8580 C.2     1  UNL1        0.0030
     16  C         17.6520  -22.3380   -3.6760 C.2     1  UNL1        0.0370
     17  C         17.3340  -23.1680   -4.7550 C.2     1  UNL1        0.0760
     18  O         16.5370  -24.2720   -4.6040 O.2     1  UNL1       -0.3510
     19  C         15.1790  -23.9890   -4.2460 C.3     1  UNL1        0.1710
     20  C         14.4530  -23.2330   -5.3490 C.3     1  UNL1        0.0340
     21  S         23.3750  -22.5420  -10.4000 S.O2    1  UNL1        0.2630
     22  O         23.3970  -23.3640   -9.2110 O.2     1  UNL1       -0.2000
     23  O         24.1130  -21.3010  -10.4690 O.2     1  UNL1       -0.2000
     24  N         23.8700  -23.4570  -11.7310 N.pl3   1  UNL1       -0.2810
     25  H         23.9270  -24.4480  -11.5080 H       1  UNL1        0.1790
     26  C         24.8290  -22.9150  -12.6310 C.2     1  UNL1        0.0420
     27  C         26.1950  -23.1110  -12.4270 C.2     1  UNL1        0.0300
     28  C         27.1190  -22.6050  -13.3430 C.2     1  UNL1        0.0020
     29  C         26.6770  -21.9030  -14.4630 C.2     1  UNL1        0.0000
     30  C         25.3120  -21.6990  -14.6650 C.2     1  UNL1        0.0020
     31  C         24.3870  -22.2050  -13.7480 C.2     1  UNL1        0.0300
@<TRIPOS>BOND
     1    30    29    2
     2    30    31    1
     3    29    28    1
     4    31    26    2
     5    28    27    2
     6    26    27    1
     7    26    24    1
     8     3     4    2
     9     3     2    1
    10     4     5    1
    11    24    25    1
    12    24    21    1
    13     2     1    2
    14     5    21    1
    15     5     6    2
    16    23    21    2
    17    21    22    2
    18     1     6    1
    19     1     7    1
    20    10     7    2
    21     7     8   am
    22     8     9    1
    23     8    11    1
    24    11    12    1
    25    13    12    2
    26    13    14    1
    27    12    17    1
    28    20    19    1
    29    14    15    2
    30    17    18    1
    31    17    16    2
    32    18    19    1
    33    15    16    1
