@<TRIPOS>MOLECULE
32820_out_ligand_01.pdbqt
 32 34 0 0 0
SMALL
GASTEIGER

@<TRIPOS>ATOM
      1  C         21.0920  -22.5130  -11.0130 C.2     1  UNL1        0.0240
      2  C         20.9120  -21.4520  -11.8920 C.2     1  UNL1        0.0260
      3  C         19.6740  -20.8120  -11.9620 C.2     1  UNL1        0.0260
      4  C         18.6080  -21.2250  -11.1510 C.2     1  UNL1        0.0490
      5 CL         17.1190  -20.3740  -11.3730 Cl      1  UNL1       -0.0830
      6  C         18.7820  -22.2900  -10.2540 C.2     1  UNL1        0.0550
      7  C         20.0350  -22.9360  -10.2070 C.2     1  UNL1        0.0430
      8  C         17.7480  -22.8320   -9.3200 C.2     1  UNL1        0.2540
      9  O         16.6970  -23.2720   -9.7760 O.2     1  UNL1       -0.2680
     10  N         18.0350  -22.8550   -7.9780 N.am    1  UNL1       -0.3490
     11  H         18.8500  -22.3570   -7.6420 H       1  UNL1        0.1630
     12  C         17.0700  -23.2840   -6.9780 C.3     1  UNL1        0.1140
     13  C         16.9350  -24.8070   -6.8980 C.3     1  UNL1        0.0370
     14  C         17.3820  -22.6360   -5.6320 C.2     1  UNL1       -0.0300
     15  C         18.5100  -21.7880   -5.5760 C.2     1  UNL1        0.0100
     16  C         18.8850  -21.1450   -4.3970 C.2     1  UNL1        0.0010
     17  C         18.1380  -21.3340   -3.2430 C.2     1  UNL1        0.0010
     18  C         17.0260  -22.1740   -3.2680 C.2     1  UNL1        0.0070
     19  C         16.6410  -22.8460   -4.4450 C.2     1  UNL1       -0.0540
     20  C         15.4160  -23.7170   -4.3690 C.3     1  UNL1        0.0490
     21  N         22.3480  -23.2000  -10.9590 N.pl3   1  UNL1       -0.1810
     22  H         22.7100  -23.4260  -11.8870 H       1  UNL1        0.1460
     23  S         23.5710  -22.3720  -10.0980 S.O2    1  UNL1        0.2450
     24  O         24.3280  -23.3140   -9.3030 O.2     1  UNL1       -0.2060
     25  O         22.9550  -21.1990   -9.5170 O.2     1  UNL1       -0.2060
     26  C         24.6080  -21.8440  -11.4390 C.2     1  UNL1        0.0740
     27  C         24.3470  -22.3220  -12.7250 C.2     1  UNL1        0.0250
     28  C         25.1590  -21.9160  -13.7860 C.2     1  UNL1        0.0080
     29  C         26.2240  -21.0310  -13.5660 C.2     1  UNL1       -0.0620
     30  C         27.1210  -20.6280  -14.7000 C.3     1  UNL1        0.0480
     31  C         26.4860  -20.5800  -12.2650 C.2     1  UNL1        0.0080
     32  C         25.6790  -20.9820  -11.2000 C.2     1  UNL1        0.0250
@<TRIPOS>BOND
     1    30    29    1
     2    28    29    2
     3    28    27    1
     4    29    31    1
     5    27    26    2
     6    31    32    2
     7     3     2    1
     8     3     4    2
     9     2     1    2
    10    22    21    1
    11    26    32    1
    12    26    23    1
    13     5     4    1
    14     4     6    1
    15     1    21    1
    16     1     7    1
    17    21    23    1
    18     6     7    2
    19     6     8    1
    20    23    25    2
    21    23    24    2
    22     9     8    2
    23     8    10   am
    24    10    11    1
    25    10    12    1
    26    12    13    1
    27    12    14    1
    28    14    15    2
    29    14    19    1
    30    15    16    1
    31    19    20    1
    32    19    18    2
    33    16    17    2
    34    18    17    1
