@<TRIPOS>MOLECULE
32831_out_ligand_01.pdbqt
 33 35 0 0 0
SMALL
GASTEIGER

@<TRIPOS>ATOM
      1  C         17.1380  -22.4690   -9.3650 C.2     1  UNL1        0.0810
      2  C         16.4280  -21.6470  -10.2480 C.2     1  UNL1        0.0250
      3  C         17.0900  -21.0530  -11.3220 C.2     1  UNL1        0.0030
      4  C         18.4520  -21.2890  -11.5200 C.2     1  UNL1        0.0170
      5  C         19.1540  -22.1350  -10.6470 C.2     1  UNL1        0.0330
      6  C         18.4970  -22.7240   -9.5620 C.2     1  UNL1        0.0420
      7  C         20.6090  -22.3920  -10.8190 C.2     1  UNL1        0.2560
      8  O         21.1980  -22.9760   -9.9190 O.2     1  UNL1       -0.2670
      9  N         21.1370  -21.9510  -12.0190 N.am    1  UNL1       -0.3230
     10  H         20.4850  -21.5850  -12.7010 H       1  UNL1        0.1690
     11  C         22.4790  -22.0320  -12.4430 C.2     1  UNL1        0.0350
     12  C         22.8360  -21.3020  -13.5840 C.2     1  UNL1        0.0300
     13  C         24.1490  -21.3250  -14.0650 C.2     1  UNL1        0.0190
     14  C         25.1300  -22.0730  -13.4060 C.2     1  UNL1        0.0320
     15  C         24.7760  -22.8140  -12.2740 C.2     1  UNL1        0.0190
     16  C         23.4590  -22.7870  -11.7940 C.2     1  UNL1        0.0300
     17  C         26.5120  -22.0640  -13.9570 C.2     1  UNL1        0.2490
     18  N         27.0720  -20.8530  -14.2520 N.am    1  UNL1       -0.3660
     19  H         26.5270  -20.0080  -14.3420 H       1  UNL1        0.1590
     20  H         27.9620  -20.8830  -14.7340 H       1  UNL1        0.1590
     21  O         27.1210  -23.1040  -14.1750 O.2     1  UNL1       -0.2680
     22  S         16.2740  -23.2300   -8.0050 S.O2    1  UNL1        0.2650
     23  O         15.4700  -22.1870   -7.4020 O.2     1  UNL1       -0.2000
     24  O         15.6670  -24.4450   -8.5090 O.2     1  UNL1       -0.2000
     25  N         17.5650  -23.6400   -6.9740 N.pl3   1  UNL1       -0.2760
     26  C         17.7730  -25.0730   -6.6920 C.3     1  UNL1        0.1700
     27  C         17.8440  -22.7290   -5.8970 C.2     1  UNL1        0.0500
     28  C         18.8610  -21.7980   -6.1480 C.2     1  UNL1        0.0310
     29  C         19.2460  -20.8810   -5.1710 C.2     1  UNL1        0.0020
     30  C         18.6180  -20.8930   -3.9310 C.2     1  UNL1        0.0010
     31  C         17.6140  -21.8260   -3.6680 C.2     1  UNL1        0.0090
     32  C         17.2230  -22.7680   -4.6380 C.2     1  UNL1       -0.0350
     33  C         16.1210  -23.7260   -4.2810 C.3     1  UNL1        0.0500
@<TRIPOS>BOND
     1    20    18    1
     2    19    18    1
     3    18    17   am
     4    21    17    2
     5    13    12    1
     6    13    14    2
     7    17    14    1
     8    12    11    2
     9    14    15    1
    10    10     9    1
    11    11     9    1
    12    11    16    1
    13    15    16    2
    14     9     7   am
    15     4     3    2
    16     4     5    1
    17     3     2    1
    18     7     5    1
    19     7     8    2
    20     5     6    2
    21     2     1    2
    22     6     1    1
    23     1    22    1
    24    24    22    2
    25    22    23    2
    26    22    25    1
    27    25    26    1
    28    25    27    1
    29    28    27    2
    30    28    29    1
    31    27    32    1
    32    29    30    2
    33    32    33    1
    34    32    31    2
    35    30    31    1
