@<TRIPOS>MOLECULE
32843_out_ligand_01.pdbqt
 31 33 0 0 0
SMALL
GASTEIGER

@<TRIPOS>ATOM
      1  C         23.2870  -22.7720  -11.2640 C.2     1  UNL1        0.0310
      2  C         23.4950  -23.5520  -10.1190 C.2     1  UNL1        0.0260
      3  C         22.4380  -23.8130   -9.2460 C.2     1  UNL1        0.0190
      4  C         21.1730  -23.2800   -9.5030 C.2     1  UNL1        0.0330
      5  C         20.9580  -22.5090  -10.6560 C.2     1  UNL1        0.0250
      6  C         22.0130  -22.2490  -11.5460 C.2     1  UNL1       -0.0390
      7  C         21.7670  -21.4080  -12.7670 C.3     1  UNL1        0.0500
      8  N         24.3760  -22.4840  -12.1690 N.pl3   1  UNL1       -0.1760
      9  C         24.8830  -23.6610  -12.9130 C.3     1  UNL1        0.1360
     10  S         25.5870  -21.4860  -11.4650 S.O2    1  UNL1        0.2470
     11  O         26.7740  -22.2950  -11.2650 O.2     1  UNL1       -0.2050
     12  O         25.0050  -20.7280  -10.3760 O.2     1  UNL1       -0.2050
     13  C         25.9260  -20.3290  -12.7720 C.2     1  UNL1        0.0750
     14  C         25.2950  -20.4620  -14.0100 C.2     1  UNL1        0.0250
     15  C         25.5740  -19.5450  -15.0240 C.2     1  UNL1        0.0080
     16  C         26.4930  -18.5080  -14.8120 C.2     1  UNL1       -0.0620
     17  C         26.7720  -17.5040  -15.8930 C.3     1  UNL1        0.0480
     18  C         27.1180  -18.3870  -13.5610 C.2     1  UNL1        0.0080
     19  C         26.8430  -19.3010  -12.5430 C.2     1  UNL1        0.0250
     20  C         20.0690  -23.5690   -8.5480 C.2     1  UNL1        0.2560
     21  O         19.8430  -24.7390   -8.2660 O.2     1  UNL1       -0.2670
     22  N         19.4330  -22.4460   -8.0520 N.am    1  UNL1       -0.3230
     23  H         19.8410  -21.5490   -8.2850 H       1  UNL1        0.1690
     24  C         18.3310  -22.4020   -7.1730 C.2     1  UNL1        0.0350
     25  C         17.0580  -22.5050   -7.7390 C.2     1  UNL1        0.0300
     26  C         15.9160  -22.4790   -6.9350 C.2     1  UNL1        0.0090
     27  C         16.0210  -22.3500   -5.5450 C.2     1  UNL1       -0.0560
     28  C         14.7730  -22.3270   -4.7070 C.3     1  UNL1        0.0490
     29  C         17.2990  -22.2470   -4.9630 C.2     1  UNL1       -0.0540
     30  C         17.4750  -22.1110   -3.4750 C.3     1  UNL1        0.0490
     31  C         18.4410  -22.2780   -5.7870 C.2     1  UNL1        0.0370
@<TRIPOS>BOND
     1    17    16    1
     2    15    16    2
     3    15    14    1
     4    16    18    1
     5    14    13    2
     6    18    19    2
     7     9     8    1
     8    13    19    1
     9    13    10    1
    10     7     6    1
    11     8    10    1
    12     8     1    1
    13     6     1    2
    14     6     5    1
    15    10    11    2
    16    10    12    2
    17     1     2    1
    18     5     4    2
    19     2     3    2
    20     4     3    1
    21     4    20    1
    22    20    21    2
    23    20    22   am
    24    23    22    1
    25    22    24    1
    26    25    24    2
    27    25    26    1
    28    24    31    1
    29    26    27    2
    30    31    29    2
    31    27    29    1
    32    27    28    1
    33    29    30    1
