@<TRIPOS>MOLECULE
32850_out_ligand_01.pdbqt
 32 34 0 0 0
SMALL
GASTEIGER

@<TRIPOS>ATOM
      1  C         21.8870  -22.6430  -11.0060 C.2     1  UNL1        0.0290
      2  C         21.3300  -23.0180   -9.7790 C.2     1  UNL1        0.0420
      3  C         20.0610  -22.5570   -9.4070 C.2     1  UNL1        0.0330
      4  C         19.3320  -21.7600  -10.2970 C.2     1  UNL1        0.0170
      5  C         19.8880  -21.3950  -11.5260 C.2     1  UNL1        0.0090
      6  C         21.1760  -21.8150  -11.8870 C.2     1  UNL1       -0.0400
      7  C         21.7280  -21.4040  -13.2230 C.3     1  UNL1        0.0500
      8  C         19.5300  -22.9610   -8.0710 C.2     1  UNL1        0.2520
      9  O         19.5520  -24.1430   -7.7520 O.2     1  UNL1       -0.2680
     10  N         19.0810  -21.9420   -7.2580 N.am    1  UNL1       -0.3490
     11  H         19.3560  -21.0030   -7.5080 H       1  UNL1        0.1630
     12  C         18.7070  -22.0890   -5.8520 C.3     1  UNL1        0.1140
     13  C         19.0450  -20.9020   -4.9470 C.3     1  UNL1        0.0370
     14  C         17.2600  -22.5520   -5.7220 C.2     1  UNL1       -0.0300
     15  C         16.3200  -22.1500   -6.6940 C.2     1  UNL1        0.0100
     16  C         14.9900  -22.5670   -6.6360 C.2     1  UNL1        0.0010
     17  C         14.5700  -23.3930   -5.6010 C.2     1  UNL1        0.0010
     18  C         15.4790  -23.8010   -4.6260 C.2     1  UNL1        0.0070
     19  C         16.8230  -23.3910   -4.6720 C.2     1  UNL1       -0.0540
     20  C         17.7480  -23.8680   -3.5840 C.3     1  UNL1        0.0490
     21  N         23.1740  -23.1700  -11.3760 N.pl3   1  UNL1       -0.1810
     22  H         23.3090  -23.1000  -12.3880 H       1  UNL1        0.1460
     23  S         24.4920  -22.3420  -10.6630 S.O2    1  UNL1        0.2450
     24  O         25.4200  -23.2840  -10.0770 O.2     1  UNL1       -0.2060
     25  O         23.9240  -21.2460   -9.9060 O.2     1  UNL1       -0.2060
     26  C         25.2660  -21.6650  -12.1120 C.2     1  UNL1        0.0740
     27  C         25.1830  -22.3680  -13.3170 C.2     1  UNL1        0.0250
     28  C         25.7900  -21.8450  -14.4610 C.2     1  UNL1        0.0080
     29  C         26.4920  -20.6340  -14.4000 C.2     1  UNL1       -0.0620
     30  C         27.1200  -20.0560  -15.6350 C.3     1  UNL1        0.0480
     31  C         26.5610  -19.9380  -13.1840 C.2     1  UNL1        0.0080
     32  C         25.9560  -20.4530  -12.0360 C.2     1  UNL1        0.0250
@<TRIPOS>BOND
     1    30    29    1
     2    28    29    2
     3    28    27    1
     4    29    31    1
     5    27    26    2
     6     7     6    1
     7    31    32    2
     8    22    21    1
     9    26    32    1
    10    26    23    1
    11     6     5    1
    12     6     1    2
    13     5     4    2
    14    21     1    1
    15    21    23    1
    16     1     2    1
    17    23    24    2
    18    23    25    2
    19     4     3    1
    20     2     3    2
    21     3     8    1
    22     8     9    2
    23     8    10   am
    24    11    10    1
    25    10    12    1
    26    15    16    1
    27    15    14    2
    28    16    17    2
    29    12    14    1
    30    12    13    1
    31    14    19    1
    32    17    18    1
    33    19    18    2
    34    19    20    1
