@<TRIPOS>MOLECULE
32889_out_ligand_01.pdbqt
 32 35 0 0 0
SMALL
GASTEIGER

@<TRIPOS>ATOM
      1  C         18.0550  -22.7190   -5.9180 C.2     1  UNL1        0.0250
      2  C         18.9400  -21.7620   -6.4260 C.2     1  UNL1        0.0260
      3  C         19.9120  -22.1290   -7.3640 C.2     1  UNL1        0.0190
      4  C         19.9900  -23.4590   -7.7940 C.2     1  UNL1        0.0320
      5  C         19.0970  -24.4130   -7.2920 C.2     1  UNL1        0.0190
      6  C         18.1210  -24.0410   -6.3680 C.2     1  UNL1        0.0260
      7  C         21.0200  -23.9120   -8.7580 C.2     1  UNL1        0.2520
      8  O         20.9810  -25.0570   -9.1850 O.2     1  UNL1       -0.2680
      9  N         21.9570  -22.9770   -9.1370 N.am    1  UNL1       -0.3480
     10  H         21.9360  -22.0380   -8.7590 H       1  UNL1        0.1630
     11  C         22.9530  -23.2850  -10.1520 C.3     1  UNL1        0.1180
     12  C         24.3580  -23.1960   -9.5370 C.3     1  UNL1        0.0300
     13  C         25.4110  -23.3990  -10.6180 C.3     1  UNL1        0.0070
     14  C         25.3410  -22.2770  -11.6530 C.3     1  UNL1        0.0390
     15  C         23.9340  -21.9750  -12.1100 C.2     1  UNL1       -0.0500
     16  C         23.7600  -21.2160  -13.2750 C.2     1  UNL1        0.0070
     17  C         22.8010  -22.4080  -11.3870 C.2     1  UNL1       -0.0290
     18  C         22.4810  -20.9050  -13.7400 C.2     1  UNL1        0.0010
     19  C         21.3570  -21.3520  -13.0490 C.2     1  UNL1        0.0010
     20  C         21.5140  -22.1060  -11.8890 C.2     1  UNL1        0.0100
     21  N         17.0650  -22.2840   -4.9600 N.pl3   1  UNL1       -0.1720
     22  C         17.4590  -22.4330   -3.5240 C.3     1  UNL1        0.1090
     23  C         18.5230  -21.4110   -3.1530 C.3     1  UNL1        0.0220
     24  S         15.4950  -22.8980   -5.3370 S.O2    1  UNL1        0.2480
     25  O         15.3460  -24.2150   -4.7540 O.2     1  UNL1       -0.2050
     26  O         14.5360  -21.8450   -5.0750 O.2     1  UNL1       -0.2050
     27  C         15.5910  -23.1330   -7.0980 C.2     1  UNL1        0.0750
     28  C         15.4060  -24.4190   -7.6170 C.2     1  UNL1        0.0250
     29  C         15.4760  -24.6170   -8.9960 C.2     1  UNL1        0.0020
     30  C         15.7260  -23.5360   -9.8460 C.2     1  UNL1        0.0000
     31  C         15.9040  -22.2540   -9.3210 C.2     1  UNL1        0.0020
     32  C         15.8340  -22.0460   -7.9430 C.2     1  UNL1        0.0250
@<TRIPOS>BOND
     1    18    16    1
     2    18    19    2
     3    16    15    2
     4    19    20    1
     5    15    14    1
     6    15    17    1
     7    20    17    2
     8    14    13    1
     9    17    11    1
    10    13    12    1
    11    11    12    1
    12    11     9    1
    13    30    31    2
    14    30    29    1
    15    31    32    1
    16     8     7    2
    17     9    10    1
    18     9     7   am
    19    29    28    2
    20     7     4    1
    21    32    27    2
    22     4     3    2
    23     4     5    1
    24    28    27    1
    25     3     2    1
    26     5     6    2
    27    27    24    1
    28     2     1    2
    29     6     1    1
    30     1    21    1
    31    24    26    2
    32    24    21    1
    33    24    25    2
    34    21    22    1
    35    22    23    1
