@<TRIPOS>MOLECULE
32883_out_ligand_01.pdbqt
 31 33 0 0 0
SMALL
GASTEIGER

@<TRIPOS>ATOM
      1  C         22.8910  -22.2650  -11.9910 C.2     1  UNL1        0.0320
      2  C         22.3950  -22.8110  -10.8010 C.2     1  UNL1        0.0420
      3  C         21.0850  -22.5330  -10.3920 C.2     1  UNL1        0.0340
      4  C         20.2900  -21.6660  -11.1480 C.2     1  UNL1        0.0170
      5  C         20.7900  -21.1100  -12.3280 C.2     1  UNL1        0.0090
      6  C         22.0860  -21.4150  -12.7700 C.2     1  UNL1       -0.0400
      7  C         22.6040  -20.7830  -14.0320 C.3     1  UNL1        0.0500
      8  N         24.2430  -22.5370  -12.4230 N.pl3   1  UNL1       -0.1760
      9  C         24.5440  -23.9700  -12.6560 C.3     1  UNL1        0.1360
     10  S         25.4260  -21.6890  -11.5020 S.O2    1  UNL1        0.2470
     11  O         24.7810  -21.0180  -10.3920 O.2     1  UNL1       -0.2050
     12  O         26.5540  -22.5770  -11.2930 O.2     1  UNL1       -0.2050
     13  C         25.9370  -20.4180  -12.6370 C.2     1  UNL1        0.0750
     14  C         26.6740  -19.3230  -12.1820 C.2     1  UNL1        0.0250
     15  C         27.0650  -18.3360  -13.0880 C.2     1  UNL1        0.0080
     16  C         26.7210  -18.4380  -14.4440 C.2     1  UNL1       -0.0620
     17  C         27.1210  -17.3540  -15.4020 C.3     1  UNL1        0.0480
     18  C         25.9600  -19.5310  -14.8800 C.2     1  UNL1        0.0080
     19  C         25.5680  -20.5230  -13.9800 C.2     1  UNL1        0.0250
     20  C         20.5860  -23.1590   -9.1330 C.2     1  UNL1        0.2560
     21  O         21.0850  -24.2190   -8.7750 O.2     1  UNL1       -0.2670
     22  N         19.5510  -22.4780   -8.5160 N.am    1  UNL1       -0.3230
     23  H         19.1570  -21.6910   -9.0120 H       1  UNL1        0.1690
     24  C         18.9080  -22.8130   -7.3050 C.2     1  UNL1        0.0350
     25  C         18.2240  -24.0060   -7.0900 C.2     1  UNL1        0.0300
     26  C         17.6170  -24.2610   -5.8560 C.2     1  UNL1        0.0090
     27  C         17.6810  -23.3280   -4.8110 C.2     1  UNL1       -0.0560
     28  C         17.0170  -23.6450   -3.4990 C.3     1  UNL1        0.0490
     29  C         18.3800  -22.1240   -5.0130 C.2     1  UNL1       -0.0540
     30  C         18.4860  -21.0890   -3.9280 C.3     1  UNL1        0.0490
     31  C         18.9830  -21.8810   -6.2610 C.2     1  UNL1        0.0370
@<TRIPOS>BOND
     1    17    16    1
     2    18    16    2
     3    18    19    1
     4    16    15    1
     5     7     6    1
     6    19    13    2
     7    15    14    2
     8     6     5    1
     9     6     1    2
    10     9     8    1
    11    13    14    1
    12    13    10    1
    13     8     1    1
    14     8    10    1
    15     5     4    2
    16     1     2    1
    17    10    12    2
    18    10    11    2
    19     4     3    1
    20     2     3    2
    21     3    20    1
    22    20    21    2
    23    20    22   am
    24    23    22    1
    25    22    24    1
    26    24    25    2
    27    24    31    1
    28    25    26    1
    29    31    29    2
    30    26    27    2
    31    29    27    1
    32    29    30    1
    33    27    28    1
