@<TRIPOS>MOLECULE
32899_out_ligand_01.pdbqt
 31 33 0 0 0
SMALL
GASTEIGER

@<TRIPOS>ATOM
      1  C         19.8750  -22.5200  -10.7070 C.2     1  UNL1        0.0320
      2  C         18.7450  -23.0400  -10.0650 C.2     1  UNL1        0.0420
      3  C         17.4960  -22.4360  -10.2460 C.2     1  UNL1        0.0330
      4  C         17.3730  -21.3110  -11.0670 C.2     1  UNL1        0.0170
      5  C         18.4980  -20.8000  -11.7160 C.2     1  UNL1        0.0090
      6  C         19.7580  -21.3920  -11.5390 C.2     1  UNL1       -0.0400
      7  C         20.9410  -20.8290  -12.2780 C.3     1  UNL1        0.0500
      8  N         21.1610  -23.1660  -10.5690 N.pl3   1  UNL1       -0.1760
      9  C         22.3240  -22.3150  -10.9180 C.3     1  UNL1        0.1360
     10  S         21.3160  -24.0310   -9.0850 S.O2    1  UNL1        0.2470
     11  O         20.3790  -25.1370   -9.1140 O.2     1  UNL1       -0.2050
     12  O         22.7210  -24.2460   -8.8010 O.2     1  UNL1       -0.2050
     13  C         20.7310  -22.8450   -7.8960 C.2     1  UNL1        0.0750
     14  C         19.4650  -23.0200   -7.3350 C.2     1  UNL1        0.0250
     15  C         19.0030  -22.1060   -6.3860 C.2     1  UNL1        0.0080
     16  C         19.8030  -21.0230   -5.9960 C.2     1  UNL1       -0.0620
     17  C         19.2890  -20.0250   -4.9990 C.3     1  UNL1        0.0480
     18  C         21.0610  -20.8460   -6.5910 C.2     1  UNL1        0.0080
     19  C         21.5300  -21.7570   -7.5380 C.2     1  UNL1        0.0250
     20  C         16.3280  -22.9990   -9.5240 C.2     1  UNL1        0.2510
     21  O         15.1940  -22.6430   -9.8220 O.2     1  UNL1       -0.2680
     22  N         16.6160  -23.8970   -8.5240 N.am    1  UNL1       -0.3530
     23  H         17.5670  -23.9820   -8.1920 H       1  UNL1        0.1630
     24  C         15.5650  -24.4240   -7.6870 C.3     1  UNL1        0.1610
     25  C         15.6160  -23.7950   -6.3200 C.2     1  UNL1       -0.0400
     26  C         14.7080  -22.7870   -5.9700 C.2     1  UNL1        0.0090
     27  C         14.7780  -22.1750   -4.7190 C.2     1  UNL1        0.0010
     28  C         15.7630  -22.5590   -3.8090 C.2     1  UNL1        0.0070
     29  C         16.6940  -23.5500   -4.1450 C.2     1  UNL1       -0.0610
     30  C         17.7330  -23.9790   -3.1550 C.3     1  UNL1        0.0480
     31  C         16.6060  -24.1700   -5.3990 C.2     1  UNL1        0.0150
@<TRIPOS>BOND
     1     7     6    1
     2     5     6    1
     3     5     4    2
     4     6     1    2
     5     4     3    1
     6     9     8    1
     7     1     8    1
     8     1     2    1
     9     8    10    1
    10     3     2    2
    11     3    20    1
    12    21    20    2
    13    20    22   am
    14    11    10    2
    15    10    12    2
    16    10    13    1
    17    22    23    1
    18    22    24    1
    19    13    19    2
    20    13    14    1
    21    24    25    1
    22    19    18    1
    23    14    15    2
    24    18    16    2
    25    15    16    1
    26    25    26    2
    27    25    31    1
    28    16    17    1
    29    26    27    1
    30    31    29    2
    31    27    28    2
    32    29    28    1
    33    29    30    1
