@<TRIPOS>MOLECULE
32936_out_ligand_01.pdbqt
 30 33 0 0 0
SMALL
GASTEIGER

@<TRIPOS>ATOM
      1  C         20.0970  -22.5880  -10.4720 C.2     1  UNL1        0.0320
      2  C         18.9850  -22.8420   -9.6610 C.2     1  UNL1        0.0420
      3  C         17.7530  -22.2550   -9.9600 C.2     1  UNL1        0.0330
      4  C         17.6250  -21.4210  -11.0740 C.2     1  UNL1        0.0170
      5  C         18.7350  -21.1650  -11.8810 C.2     1  UNL1        0.0090
      6  C         19.9800  -21.7470  -11.5930 C.2     1  UNL1       -0.0400
      7  C         21.1630  -21.4270  -12.4620 C.3     1  UNL1        0.0500
      8  N         21.3900  -23.1460  -10.1440 N.pl3   1  UNL1       -0.1760
      9  C         21.3400  -24.3950   -9.3450 C.3     1  UNL1        0.1360
     10  S         22.5030  -21.9630   -9.5770 S.O2    1  UNL1        0.2470
     11  O         21.9570  -20.6410   -9.8080 O.2     1  UNL1       -0.2050
     12  O         22.9520  -22.3650   -8.2570 O.2     1  UNL1       -0.2050
     13  C         23.8650  -22.1600  -10.7030 C.2     1  UNL1        0.0750
     14  C         24.9790  -21.3220  -10.6130 C.2     1  UNL1        0.0250
     15  C         26.0380  -21.4970  -11.5040 C.2     1  UNL1        0.0080
     16  C         25.9920  -22.5050  -12.4780 C.2     1  UNL1       -0.0620
     17  C         27.1200  -22.6630  -13.4550 C.3     1  UNL1        0.0480
     18  C         24.8550  -23.3200  -12.5710 C.2     1  UNL1        0.0080
     19  C         23.7910  -23.1520  -11.6830 C.2     1  UNL1        0.0250
     20  C         16.5930  -22.5560   -9.0840 C.2     1  UNL1        0.2520
     21  O         15.4600  -22.5700   -9.5490 O.2     1  UNL1       -0.2680
     22  N         16.8960  -22.8380   -7.7670 N.am    1  UNL1       -0.3520
     23  H         17.8500  -23.1130   -7.5700 H       1  UNL1        0.1630
     24  C         15.8690  -23.2980   -6.8570 C.3     1  UNL1        0.0890
     25  C         15.0610  -22.1630   -6.1900 C.3     1  UNL1        0.0300
     26  C         15.1870  -22.4830   -4.6880 C.3     1  UNL1       -0.0120
     27  C         16.6110  -22.1290   -4.2290 C.3     1  UNL1        0.0050
     28  C         15.2260  -24.0110   -4.6850 C.3     1  UNL1        0.0110
     29  C         17.4620  -23.2330   -4.8710 C.3     1  UNL1        0.0070
     30  C         16.4210  -24.0730   -5.6380 C.3     1  UNL1        0.0090
@<TRIPOS>BOND
     1    17    16    1
     2    18    16    2
     3    18    19    1
     4    16    15    1
     5     7     6    1
     6     5     6    1
     7     5     4    2
     8    19    13    2
     9     6     1    2
    10    15    14    2
    11     4     3    1
    12    13    14    1
    13    13    10    1
    14     1     8    1
    15     1     2    1
    16     8    10    1
    17     8     9    1
    18     3     2    2
    19     3    20    1
    20    11    10    2
    21    10    12    2
    22    21    20    2
    23    20    22   am
    24    22    23    1
    25    22    24    1
    26    24    25    1
    27    24    30    1
    28    25    26    1
    29    30    29    1
    30    30    28    1
    31    29    27    1
    32    26    28    1
    33    26    27    1
