@<TRIPOS>MOLECULE
32946_out_ligand_01.pdbqt
 32 34 0 0 0
SMALL
GASTEIGER

@<TRIPOS>ATOM
      1  C         22.7620  -22.4050  -11.8620 C.2     1  UNL1        0.0320
      2  C         22.2640  -23.0660  -10.7330 C.2     1  UNL1        0.0420
      3  C         20.9440  -22.8550  -10.3210 C.2     1  UNL1        0.0330
      4  C         20.1160  -21.9930  -11.0490 C.2     1  UNL1        0.0170
      5  C         20.6140  -21.3310  -12.1730 C.2     1  UNL1        0.0090
      6  C         21.9400  -21.5250  -12.5890 C.2     1  UNL1       -0.0400
      7  C         22.4540  -20.7980  -13.7990 C.3     1  UNL1        0.0500
      8  C         20.4510  -23.5880   -9.1260 C.2     1  UNL1        0.2520
      9  O         21.1400  -24.4610   -8.6150 O.2     1  UNL1       -0.2680
     10  N         19.2210  -23.1980   -8.6460 N.am    1  UNL1       -0.3490
     11  H         18.8190  -22.3300   -8.9760 H       1  UNL1        0.1630
     12  C         18.6600  -23.7610   -7.4270 C.3     1  UNL1        0.1140
     13  C         17.2800  -24.3770   -7.6950 C.3     1  UNL1        0.0370
     14  C         18.6630  -22.6890   -6.3420 C.2     1  UNL1       -0.0300
     15  C         19.5500  -21.5970   -6.4190 C.2     1  UNL1        0.0100
     16  C         19.5870  -20.6210   -5.4210 C.2     1  UNL1        0.0010
     17  C         18.7470  -20.7220   -4.3200 C.2     1  UNL1        0.0010
     18  C         17.8770  -21.8040   -4.2090 C.2     1  UNL1        0.0070
     19  C         17.8310  -22.8000   -5.2010 C.2     1  UNL1       -0.0540
     20  C         16.8760  -23.9490   -5.0180 C.3     1  UNL1        0.0490
     21  N         24.1290  -22.5980  -12.2880 N.pl3   1  UNL1       -0.1760
     22  C         24.5000  -24.0120  -12.5420 C.3     1  UNL1        0.1360
     23  S         25.2600  -21.7100  -11.3420 S.O2    1  UNL1        0.2470
     24  O         24.5540  -21.0130  -10.2850 O.2     1  UNL1       -0.2050
     25  O         26.3810  -22.5790  -11.0450 O.2     1  UNL1       -0.2050
     26  C         25.8160  -20.4710  -12.4900 C.2     1  UNL1        0.0750
     27  C         26.6560  -19.4410  -12.0610 C.2     1  UNL1        0.0250
     28  C         27.0790  -18.4760  -12.9760 C.2     1  UNL1        0.0080
     29  C         26.6580  -18.5290  -14.3110 C.2     1  UNL1       -0.0620
     30  C         27.1210  -17.5020  -15.3040 C.3     1  UNL1        0.0480
     31  C         25.8120  -19.5680  -14.7270 C.2     1  UNL1        0.0080
     32  C         25.3840  -20.5370  -13.8170 C.2     1  UNL1        0.0250
@<TRIPOS>BOND
     1    30    29    1
     2    31    29    2
     3    31    32    1
     4    29    28    1
     5    32    26    2
     6     7     6    1
     7    28    27    2
     8     6     5    1
     9     6     1    2
    10    22    21    1
    11    26    27    1
    12    26    23    1
    13    21     1    1
    14    21    23    1
    15     5     4    2
    16     1     2    1
    17    23    25    2
    18    23    24    2
    19     4     3    1
    20     2     3    2
    21     3     8    1
    22     8    10   am
    23     8     9    2
    24    11    10    1
    25    10    12    1
    26    13    12    1
    27    12    14    1
    28    15    14    2
    29    15    16    1
    30    14    19    1
    31    16    17    2
    32    19    20    1
    33    19    18    2
    34    17    18    1
