@<TRIPOS>MOLECULE
32964_out_ligand_01.pdbqt
 33 36 0 0 0
SMALL
GASTEIGER

@<TRIPOS>ATOM
      1  C         24.0560  -22.0360  -12.5590 C.2     1  UNL1        0.0250
      2  C         23.0790  -21.4630  -13.3800 C.2     1  UNL1        0.0260
      3  C         21.7630  -21.3590  -12.9260 C.2     1  UNL1        0.0190
      4  C         21.4240  -21.8130  -11.6460 C.2     1  UNL1        0.0320
      5  C         22.4000  -22.4010  -10.8310 C.2     1  UNL1        0.0190
      6  C         23.7150  -22.5090  -11.2900 C.2     1  UNL1        0.0260
      7  C         20.0130  -21.6830  -11.1910 C.2     1  UNL1        0.2560
      8  O         19.2950  -20.8790  -11.7720 O.2     1  UNL1       -0.2670
      9  N         19.6860  -22.4840  -10.1120 N.am    1  UNL1       -0.3220
     10  H         20.4580  -22.9630   -9.6750 H       1  UNL1        0.1690
     11  C         18.4200  -22.6390   -9.4870 C.2     1  UNL1        0.0460
     12  C         17.2970  -23.0430  -10.2210 C.2     1  UNL1        0.0300
     13  C         16.0610  -23.2150   -9.6050 C.2     1  UNL1        0.0030
     14  C         15.9260  -22.9890   -8.2420 C.2     1  UNL1        0.0120
     15  C         17.0230  -22.5870   -7.4700 C.2     1  UNL1       -0.0240
     16  C         16.8490  -22.3680   -6.0940 C.2     1  UNL1        0.0120
     17  C         18.2950  -22.4010   -8.0780 C.2     1  UNL1        0.0010
     18  C         17.9110  -21.9630   -5.2890 C.2     1  UNL1        0.0010
     19  C         19.1610  -21.7690   -5.8540 C.2     1  UNL1        0.0010
     20  C         19.3500  -21.9830   -7.2230 C.2     1  UNL1        0.0140
     21  N         25.4280  -22.1680  -12.9770 N.pl3   1  UNL1       -0.1690
     22  C         26.4430  -21.9400  -11.9180 C.3     1  UNL1        0.1400
     23  C         27.0520  -20.5880  -12.1560 C.2     1  UNL1       -0.0210
     24  C         26.7500  -19.4830  -11.4600 C.2     1  UNL1        0.0080
     25  S         25.7020  -23.5530  -13.9510 S.O2    1  UNL1        0.2480
     26  O         24.7150  -24.5660  -13.6320 O.2     1  UNL1       -0.2050
     27  O         27.1210  -23.8480  -13.9080 O.2     1  UNL1       -0.2050
     28  C         25.3070  -22.9570  -15.5790 C.2     1  UNL1        0.0750
     29  C         25.7300  -21.6880  -15.9860 C.2     1  UNL1        0.0250
     30  C         25.3990  -21.2350  -17.2630 C.2     1  UNL1        0.0020
     31  C         24.6580  -22.0480  -18.1230 C.2     1  UNL1        0.0000
     32  C         24.2470  -23.3180  -17.7150 C.2     1  UNL1        0.0020
     33  C         24.5730  -23.7780  -16.4400 C.2     1  UNL1        0.0250
@<TRIPOS>BOND
     1    31    32    2
     2    31    30    1
     3    32    33    1
     4    30    29    2
     5    33    28    2
     6    29    28    1
     7    28    25    1
     8    25    27    2
     9    25    26    2
    10    25    21    1
    11     2     3    1
    12     2     1    2
    13    21     1    1
    14    21    22    1
    15     3     4    2
    16     1     6    1
    17    23    22    1
    18    23    24    2
    19     8     7    2
    20     4     7    1
    21     4     5    1
    22     6     5    2
    23     7     9   am
    24    12    13    1
    25    12    11    2
    26     9    10    1
    27     9    11    1
    28    13    14    2
    29    11    17    1
    30    14    15    1
    31    17    15    2
    32    17    20    1
    33    15    16    1
    34    20    19    2
    35    16    18    2
    36    19    18    1
