@<TRIPOS>MOLECULE
32985_out_ligand_01.pdbqt
 32 34 0 0 0
SMALL
GASTEIGER

@<TRIPOS>ATOM
      1  C         22.4170  -23.1980   -8.9460 C.2     1  UNL1       -0.0440
      2  C         21.8780  -22.1680   -8.1590 C.2     1  UNL1        0.0090
      3  C         20.6150  -22.3000   -7.5760 C.2     1  UNL1        0.0170
      4  C         19.8620  -23.4630   -7.7920 C.2     1  UNL1        0.0320
      5  C         20.3980  -24.5010   -8.5650 C.2     1  UNL1        0.0170
      6  C         21.6640  -24.3680   -9.1410 C.2     1  UNL1        0.0090
      7  C         23.7790  -23.0460   -9.5900 C.3     1  UNL1        0.1460
      8  N         23.7740  -22.1180  -10.7560 N.3     1  UNL1       -0.1990
      9  C         22.8060  -22.5320  -11.8040 C.3     1  UNL1        0.1340
     10  C         21.7180  -21.5020  -11.9300 C.2     1  UNL1       -0.0220
     11  C         20.4220  -21.7130  -11.6380 C.2     1  UNL1        0.0080
     12  S         25.3470  -21.8130  -11.3660 S.O2    1  UNL1        0.2440
     13  O         25.6370  -20.3970  -11.2750 O.2     1  UNL1       -0.2060
     14  O         26.2310  -22.7970  -10.7640 O.2     1  UNL1       -0.2060
     15  C         25.1540  -22.1930  -13.0920 C.2     1  UNL1        0.0740
     16  C         24.8050  -21.1920  -14.0020 C.2     1  UNL1        0.0250
     17  C         24.6620  -21.5120  -15.3510 C.2     1  UNL1        0.0080
     18  C         24.8470  -22.8300  -15.7920 C.2     1  UNL1       -0.0620
     19  C         24.7040  -23.1580  -17.2470 C.3     1  UNL1        0.0480
     20  C         25.1980  -23.8230  -14.8660 C.2     1  UNL1        0.0080
     21  C         25.3440  -23.5100  -13.5160 C.2     1  UNL1        0.0250
     22  C         18.5050  -23.6420   -7.1960 C.2     1  UNL1        0.2560
     23  O         17.9750  -24.7430   -7.2800 O.2     1  UNL1       -0.2670
     24  N         17.9600  -22.4940   -6.6420 N.am    1  UNL1       -0.3220
     25  H         18.4560  -21.6310   -6.8200 H       1  UNL1        0.1690
     26  C         16.7380  -22.3690   -5.9380 C.2     1  UNL1        0.0410
     27  C         15.5000  -22.2910   -6.5940 C.2     1  UNL1        0.0300
     28  C         14.3070  -22.1910   -5.8730 C.2     1  UNL1        0.0020
     29  C         14.3340  -22.1740   -4.4840 C.2     1  UNL1        0.0010
     30  C         15.5550  -22.2530   -3.8130 C.2     1  UNL1        0.0090
     31  C         16.7660  -22.3500   -4.5240 C.2     1  UNL1       -0.0350
     32  C         18.0510  -22.4270   -3.7390 C.3     1  UNL1        0.0500
@<TRIPOS>BOND
     1    19    18    1
     2    18    17    2
     3    18    20    1
     4    17    16    1
     5    20    21    2
     6    16    15    2
     7    21    15    1
     8    15    12    1
     9    10     9    1
    10    10    11    2
    11     9     8    1
    12    12    13    2
    13    12    14    2
    14    12     8    1
    15     8     7    1
    16     7     1    1
    17     6     1    2
    18     6     5    1
    19     1     2    1
    20     5     4    2
    21     2     3    2
    22     4     3    1
    23     4    22    1
    24    23    22    2
    25    22    24   am
    26    25    24    1
    27    24    26    1
    28    27    26    2
    29    27    28    1
    30    26    31    1
    31    28    29    2
    32    31    30    2
    33    31    32    1
    34    29    30    1
