@<TRIPOS>MOLECULE
32_out_ligand_01.pdbqt
 32 35 0 0 0
SMALL
GASTEIGER

@<TRIPOS>ATOM
      1  C         22.1470  -21.7030  -12.6140 C.2     1  UNL1       -0.0270
      2  C         22.4680  -22.5760  -11.5740 C.2     1  UNL1        0.0120
      3  C         21.5340  -22.8830  -10.5760 C.2     1  UNL1        0.0310
      4  C         20.2500  -22.3210  -10.5610 C.2     1  UNL1        0.0430
      5  C         19.9140  -21.4660  -11.6320 C.2     1  UNL1       -0.0300
      6  C         20.8640  -21.1490  -12.6270 C.2     1  UNL1        0.0190
      7  C         18.5580  -20.8220  -11.7360 C.3     1  UNL1        0.0420
      8  C         17.5270  -21.6940  -11.0580 C.3     1  UNL1        0.0250
      9  C         17.9660  -21.9530   -9.6290 C.3     1  UNL1        0.1330
     10  N         19.2920  -22.5820   -9.5050 N.am    1  UNL1       -0.3130
     11  C         19.6480  -23.2320   -8.3020 C.2     1  UNL1        0.2610
     12  O         20.7310  -23.7340   -8.0070 O.2     1  UNL1       -0.2670
     13  C         23.1560  -21.3120  -13.6780 C.3     1  UNL1        0.1790
     14  C         24.5720  -21.0130  -13.1000 C.3     1  UNL1        0.3080
     15  N         25.5730  -20.3640  -13.9780 N.3     1  UNL1        0.0910
     16  C         26.4210  -19.4270  -13.2410 C.3     1  UNL1        0.3100
     17  C         26.3740  -21.3510  -14.7250 C.3     1  UNL1        0.3100
     18  C         25.6440  -21.9140  -15.9280 C.2     1  UNL1       -0.0300
     19  C         25.3980  -21.1110  -17.0520 C.2     1  UNL1        0.0090
     20  C         24.7060  -21.6180  -18.1530 C.2     1  UNL1        0.0010
     21  C         24.2430  -22.9340  -18.1380 C.2     1  UNL1        0.0000
     22  C         24.4790  -23.7430  -17.0270 C.2     1  UNL1        0.0010
     23  C         25.1750  -23.2360  -15.9260 C.2     1  UNL1        0.0090
     24  O         22.6570  -20.1710  -14.3870 O.3     1  UNL1       -0.3890
     25  H         23.2090  -19.4040  -14.1530 H       1  UNL1        0.2100
     26  C         18.6530  -23.2830   -7.2200 C.2     1  UNL1        0.0710
     27  C         17.6880  -24.2960   -7.2220 C.2     1  UNL1        0.0200
     28  C         16.7290  -24.3300   -6.2090 C.2     1  UNL1        0.0010
     29  C         16.7320  -23.3550   -5.2070 C.2     1  UNL1        0.0030
     30  C         17.6910  -22.3390   -5.2180 C.2     1  UNL1        0.0430
     31  C         18.6460  -22.3040   -6.2310 C.2     1  UNL1        0.1320
     32  F         19.5690  -21.3320   -6.2190 F       1  UNL1       -0.2050
@<TRIPOS>BOND
     1    20    21    2
     2    20    19    1
     3    21    22    1
     4    19    18    2
     5    22    23    2
     6    18    23    1
     7    18    17    1
     8    17    15    1
     9    24    25    1
    10    24    13    1
    11    15    16    1
    12    15    14    1
    13    13    14    1
    14    13     1    1
    15     6     1    2
    16     6     5    1
    17     1     2    1
    18     7     5    1
    19     7     8    1
    20     5     4    2
    21     2     3    2
    22     8     9    1
    23     3     4    1
    24     4    10    1
    25     9    10    1
    26    10    11   am
    27    11    12    2
    28    11    26    1
    29    27    26    2
    30    27    28    1
    31    26    31    1
    32    31    32    1
    33    31    30    2
    34    28    29    2
    35    30    29    1
