@<TRIPOS>MOLECULE
33038_out_ligand_01.pdbqt
 32 35 0 0 0
SMALL
GASTEIGER

@<TRIPOS>ATOM
      1  C         20.0900  -22.8470   -7.6480 C.2     1  UNL1       -0.0440
      2  C         21.0200  -21.8040   -7.5170 C.2     1  UNL1        0.0090
      3  C         22.2680  -21.8860   -8.1420 C.2     1  UNL1        0.0170
      4  C         22.6020  -23.0130   -8.9050 C.2     1  UNL1        0.0320
      5  C         21.6860  -24.0660   -9.0220 C.2     1  UNL1        0.0170
      6  C         20.4400  -23.9800   -8.3960 C.2     1  UNL1        0.0090
      7  C         23.9420  -23.0560   -9.5520 C.2     1  UNL1        0.2520
      8  O         24.7680  -23.8970   -9.2080 O.2     1  UNL1       -0.2680
      9  N         24.1890  -22.0920  -10.5060 N.am    1  UNL1       -0.3480
     10  H         23.5650  -21.3010  -10.5860 H       1  UNL1        0.1630
     11  C         25.4910  -21.9630  -11.1480 C.3     1  UNL1        0.1180
     12  C         25.9380  -20.4900  -11.1060 C.3     1  UNL1        0.0300
     13  C         27.1200  -20.2500  -12.0340 C.3     1  UNL1        0.0070
     14  C         26.7140  -20.5240  -13.4790 C.3     1  UNL1        0.0390
     15  C         26.0350  -21.8610  -13.6480 C.2     1  UNL1       -0.0500
     16  C         25.9640  -22.4230  -14.9330 C.2     1  UNL1        0.0070
     17  C         25.4460  -22.5340  -12.5580 C.2     1  UNL1       -0.0290
     18  C         25.3500  -23.6590  -15.1360 C.2     1  UNL1        0.0010
     19  C         24.8050  -24.3490  -14.0580 C.2     1  UNL1        0.0010
     20  C         24.8570  -23.7940  -12.7790 C.2     1  UNL1        0.0100
     21  C         18.7560  -22.7790   -6.9410 C.3     1  UNL1        0.1450
     22  N         17.8150  -23.7920   -7.4780 N.3     1  UNL1       -0.2060
     23  C         17.4770  -24.8370   -6.4890 C.3     1  UNL1        0.1300
     24  S         16.4880  -23.1270   -8.3190 S.O2    1  UNL1        0.2430
     25  O         15.6650  -24.2340   -8.7650 O.2     1  UNL1       -0.2060
     26  O         15.9240  -22.0510   -7.5290 O.2     1  UNL1       -0.2060
     27  C         17.2610  -22.3820   -9.7340 C.2     1  UNL1        0.0740
     28  C         18.3760  -22.9820  -10.3250 C.2     1  UNL1        0.0250
     29  C         18.9680  -22.3780  -11.4360 C.2     1  UNL1        0.0020
     30  C         18.4420  -21.1890  -11.9520 C.2     1  UNL1        0.0000
     31  C         17.3220  -20.6000  -11.3600 C.2     1  UNL1        0.0020
     32  C         16.7270  -21.1950  -10.2480 C.2     1  UNL1        0.0250
@<TRIPOS>BOND
     1    18    16    1
     2    18    19    2
     3    16    15    2
     4    19    20    1
     5    15    14    1
     6    15    17    1
     7    14    13    1
     8    20    17    2
     9    17    11    1
    10    13    12    1
    11    30    29    2
    12    30    31    1
    13    29    28    1
    14    31    32    2
    15    11    12    1
    16    11     9    1
    17    10     9    1
    18     9     7   am
    19    28    27    2
    20    32    27    1
    21    27    24    1
    22     7     8    2
    23     7     4    1
    24     5     4    2
    25     5     6    1
    26     4     3    1
    27    25    24    2
    28     6     1    2
    29    24    26    2
    30    24    22    1
    31     3     2    2
    32     1     2    1
    33     1    21    1
    34    22    21    1
    35    22    23    1
