@<TRIPOS>MOLECULE
3309_out_ligand_01.pdbqt
 36 39 0 0 0
SMALL
GASTEIGER

@<TRIPOS>ATOM
      1  C         18.8630  -22.1420   -9.9700 C.2     1  UNL1        0.0810
      2  C         20.2240  -22.4250   -9.7660 C.2     1  UNL1        0.0420
      3  C         21.1910  -21.8930  -10.6260 C.2     1  UNL1        0.0340
      4  C         20.7960  -21.0850  -11.6980 C.2     1  UNL1        0.0170
      5  C         19.4400  -20.8220  -11.9120 C.2     1  UNL1        0.0090
      6  C         18.4520  -21.3410  -11.0560 C.2     1  UNL1       -0.0390
      7  C         17.0100  -21.0520  -11.3720 C.3     1  UNL1        0.0500
      8  C         22.6190  -22.2100  -10.3650 C.2     1  UNL1        0.2660
      9  O         22.9420  -22.7870   -9.3400 O.2     1  UNL1       -0.2670
     10  N         23.5000  -21.8230  -11.3830 N.am    1  UNL1       -0.2330
     11  H         23.2030  -21.1810  -12.1050 H       1  UNL1        0.1830
     12  S         25.1510  -21.9140  -11.3340 S.O2    1  UNL1        0.3240
     13  O         25.5560  -20.6920  -10.6760 O.2     1  UNL1       -0.1820
     14  O         25.5920  -23.1990  -10.8570 O.2     1  UNL1       -0.1820
     15  N         25.5250  -21.7620  -12.9590 N.3     1  UNL1       -0.2890
     16  C         25.8120  -20.4110  -13.4800 C.3     1  UNL1        0.1420
     17  C         26.6420  -20.5270  -14.7580 C.3     1  UNL1        0.0600
     18  C         25.9270  -21.3700  -15.7820 C.2     1  UNL1       -0.0490
     19  C         26.1740  -21.1830  -17.1490 C.2     1  UNL1        0.0080
     20  C         25.0340  -22.3760  -15.3610 C.2     1  UNL1       -0.0330
     21  C         25.5120  -21.9650  -18.1000 C.2     1  UNL1        0.0010
     22  C         24.6100  -22.9470  -17.6900 C.2     1  UNL1        0.0010
     23  C         24.3740  -23.1570  -16.3280 C.2     1  UNL1        0.0090
     24  C         24.7490  -22.6190  -13.8890 C.3     1  UNL1        0.1760
     25  S         17.6850  -22.8400   -8.8170 S.O2    1  UNL1        0.2460
     26  O         17.1220  -24.0260   -9.4290 O.2     1  UNL1       -0.2060
     27  O         16.8540  -21.7610   -8.3300 O.2     1  UNL1       -0.2060
     28  N         18.7330  -23.3990   -7.5870 N.pl3   1  UNL1       -0.1810
     29  H         18.5000  -24.3790   -7.4090 H       1  UNL1        0.1460
     30  C         18.6490  -22.6360   -6.3720 C.2     1  UNL1        0.0230
     31  C         19.4230  -21.4870   -6.2270 C.2     1  UNL1        0.0240
     32  C         19.3020  -20.7160   -5.0700 C.2     1  UNL1        0.0020
     33  C         18.4040  -21.0880   -4.0670 C.2     1  UNL1        0.0070
     34  C         17.6200  -22.2390   -4.2080 C.2     1  UNL1       -0.0600
     35  C         16.6250  -22.6210   -3.1530 C.3     1  UNL1        0.0480
     36  C         17.7340  -23.0030   -5.3790 C.2     1  UNL1        0.0310
@<TRIPOS>BOND
     1    21    22    2
     2    21    19    1
     3    22    23    1
     4    19    18    2
     5    23    20    2
     6    18    20    1
     7    18    17    1
     8    20    24    1
     9    17    16    1
    10    24    15    1
    11    16    15    1
    12    15    12    1
    13    11    10    1
    14     5     4    2
    15     5     6    1
    16     4     3    1
    17    10    12    1
    18    10     8   am
    19     7     6    1
    20    12    14    2
    21    12    13    2
    22     6     1    2
    23     3     8    1
    24     3     2    2
    25     8     9    2
    26     1     2    1
    27     1    25    1
    28    26    25    2
    29    25    27    2
    30    25    28    1
    31    28    29    1
    32    28    30    1
    33    30    31    2
    34    30    36    1
    35    31    32    1
    36    36    34    2
    37    32    33    2
    38    34    33    1
    39    34    35    1
