@<TRIPOS>MOLECULE
33108_out_ligand_01.pdbqt
 31 33 0 0 0
SMALL
GASTEIGER

@<TRIPOS>ATOM
      1  C         21.1450  -23.3210   -9.7670 C.2     1  UNL1        0.0340
      2  C         20.6890  -24.0910   -8.6860 C.2     1  UNL1        0.0310
      3  C         19.3430  -24.0690   -8.3090 C.2     1  UNL1        0.0270
      4  C         18.4470  -23.2670   -9.0160 C.2     1  UNL1        0.0750
      5  C         18.8790  -22.5110  -10.1070 C.2     1  UNL1        0.0270
      6  C         20.2290  -22.5360  -10.4750 C.2     1  UNL1        0.0310
      7  N         22.5170  -23.4030  -10.0740 N.am    1  UNL1       -0.3270
      8  C         23.5060  -22.4730   -9.7980 C.2     1  UNL1        0.2260
      9  O         23.3420  -21.3970   -9.2280 O.2     1  UNL1       -0.2730
     10  H         22.8240  -24.2760  -10.4870 H       1  UNL1        0.1690
     11  C         24.8850  -22.8500  -10.3290 C.3     1  UNL1        0.1420
     12  C         25.4610  -21.9070  -11.3670 C.2     1  UNL1       -0.0430
     13  C         25.4230  -22.1950  -12.7470 C.2     1  UNL1       -0.0550
     14  C         25.9220  -21.2480  -13.6540 C.2     1  UNL1        0.0080
     15  C         24.8270  -23.4690  -13.2850 C.3     1  UNL1        0.0490
     16  C         26.4740  -20.0460  -13.2080 C.2     1  UNL1        0.0070
     17  C         26.5480  -19.7660  -11.8440 C.2     1  UNL1       -0.0610
     18  C         27.1210  -18.4660  -11.3630 C.3     1  UNL1        0.0480
     19  C         26.0290  -20.6930  -10.9320 C.2     1  UNL1        0.0140
     20  S         16.7350  -23.2460   -8.5420 S.O2    1  UNL1        0.2450
     21  O         16.4980  -24.4460   -7.7670 O.2     1  UNL1       -0.2060
     22  O         15.9320  -22.9310   -9.7030 O.2     1  UNL1       -0.2060
     23  N         16.6830  -21.9560   -7.4400 N.pl3   1  UNL1       -0.1780
     24  H         17.4510  -21.3170   -7.6610 H       1  UNL1        0.1460
     25  C         16.5670  -22.3040   -6.0580 C.2     1  UNL1        0.0610
     26  C         17.7060  -22.5690   -5.2990 C.2     1  UNL1        0.0270
     27  C         17.5800  -22.8430   -3.9340 C.2     1  UNL1        0.0020
     28  C         16.3200  -22.8460   -3.3290 C.2     1  UNL1        0.0030
     29  C         15.1810  -22.5750   -4.0860 C.2     1  UNL1        0.0440
     30  C         15.3130  -22.3020   -5.4440 C.2     1  UNL1        0.1380
     31  F         14.2140  -22.0470   -6.1710 F       1  UNL1       -0.2040
@<TRIPOS>BOND
     1    14    16    2
     2    14    13    1
     3    15    13    1
     4    16    17    1
     5    13    12    2
     6    17    18    1
     7    17    19    2
     8    12    19    1
     9    12    11    1
    10    10     7    1
    11     6     5    1
    12     6     1    2
    13    11     8    1
    14     5     4    2
    15     7     8   am
    16     7     1    1
    17     8     9    2
    18     1     2    1
    19    22    20    2
    20     4    20    1
    21     4     3    1
    22     2     3    2
    23    20    21    2
    24    20    23    1
    25    24    23    1
    26    23    25    1
    27    31    30    1
    28    25    30    2
    29    25    26    1
    30    30    29    1
    31    26    27    2
    32    29    28    2
    33    27    28    1
