@<TRIPOS>MOLECULE
3311_out_ligand_01.pdbqt
 31 34 0 0 0
SMALL
GASTEIGER

@<TRIPOS>ATOM
      1  N         26.8380  -21.8280  -11.3480 N.1     1  UNL1       -0.1910
      2  C         25.6780  -21.7990  -11.3240 C.1     1  UNL1        0.0990
      3  C         24.2420  -21.7630  -11.3120 C.2     1  UNL1        0.0440
      4  C         23.5330  -21.7550  -12.5190 C.2     1  UNL1        0.0230
      5  C         22.1350  -21.7100  -12.5090 C.2     1  UNL1        0.0150
      6  C         21.4320  -21.6790  -11.2960 C.2     1  UNL1       -0.0050
      7  C         22.1470  -21.6780  -10.0900 C.2     1  UNL1        0.0150
      8  C         23.5470  -21.7240  -10.0970 C.2     1  UNL1        0.0230
      9  C         19.9730  -21.6100  -11.2900 C.2     1  UNL1        0.0960
     10  N         19.3400  -20.6230  -11.9420 N.2     1  UNL1       -0.1740
     11  N         18.0400  -20.8970  -11.7900 N.pl3   1  UNL1       -0.2880
     12  C         17.8040  -22.0070  -11.0440 C.2     1  UNL1        0.1200
     13  H         17.3640  -20.2770  -12.2260 H       1  UNL1        0.1880
     14  C         19.0370  -22.4880  -10.6500 C.2     1  UNL1        0.0180
     15  C         19.3200  -23.6680   -9.7730 C.3     1  UNL1        0.3150
     16  N         18.9670  -23.4710   -8.3630 N.3     1  UNL1        0.0970
     17  C         17.5780  -23.7990   -8.0370 C.3     1  UNL1        0.2770
     18  C         17.4300  -23.9510   -6.5180 C.3     1  UNL1        0.0700
     19  C         18.0080  -22.7820   -5.7430 C.2     1  UNL1       -0.0420
     20  C         17.6720  -22.5490   -4.3890 C.2     1  UNL1       -0.0430
     21  C         18.9470  -21.9460   -6.3840 C.2     1  UNL1       -0.0230
     22  C         18.2490  -21.4560   -3.7180 C.2     1  UNL1        0.0080
     23  C         19.1520  -20.6180   -4.3630 C.2     1  UNL1        0.0010
     24  C         19.5020  -20.8620   -5.6870 C.2     1  UNL1        0.0090
     25  C         19.3190  -22.1430   -7.8440 C.3     1  UNL1        0.3110
     26  C         16.7160  -23.4450   -3.6260 C.3     1  UNL1        0.1410
     27  C         15.2560  -23.2270   -3.9700 C.2     1  UNL1        0.2190
     28  N         14.5520  -24.3360   -4.3410 N.am    1  UNL1       -0.3700
     29  H         13.6090  -24.1660   -4.6670 H       1  UNL1        0.1590
     30  H         15.0380  -25.1400   -4.7270 H       1  UNL1        0.1590
     31  O         14.7000  -22.1350   -3.8850 O.2     1  UNL1       -0.2730
@<TRIPOS>BOND
     1     4     5    1
     2     4     3    2
     3     5     6    2
     4    13    11    1
     5    10    11    1
     6    10     9    2
     7    11    12    1
     8     1     2    3
     9     2     3    1
    10     3     8    1
    11     6     9    1
    12     6     7    1
    13     9    14    1
    14    12    14    2
    15    14    15    1
    16     8     7    2
    17    15    16    1
    18    16    17    1
    19    16    25    1
    20    17    18    1
    21    25    21    1
    22    18    19    1
    23    21    19    2
    24    21    24    1
    25    19    20    1
    26    24    23    2
    27    30    28    1
    28    29    28    1
    29    20    22    2
    30    20    26    1
    31    23    22    1
    32    28    27   am
    33    27    31    2
    34    27    26    1
