@<TRIPOS>MOLECULE
33118_out_ligand_01.pdbqt
 34 37 0 0 0
SMALL
GASTEIGER

@<TRIPOS>ATOM
      1  C         20.8680  -22.5930  -10.6250 C.2     1  UNL1        0.0340
      2  C         20.6150  -23.5560   -9.6370 C.2     1  UNL1        0.0310
      3  C         19.3280  -23.7280   -9.1190 C.2     1  UNL1        0.0270
      4  C         18.2870  -22.9260   -9.5890 C.2     1  UNL1        0.0800
      5  C         18.5200  -21.9750  -10.5860 C.2     1  UNL1        0.0270
      6  C         19.8110  -21.8100  -11.0970 C.2     1  UNL1        0.0310
      7  S         16.6470  -23.1350   -8.9460 S.O2    1  UNL1        0.2630
      8  O         16.2270  -21.8560   -8.4130 O.2     1  UNL1       -0.2000
      9  O         15.8460  -23.8280   -9.9320 O.2     1  UNL1       -0.2000
     10  N         16.9000  -24.1350   -7.6080 N.pl3   1  UNL1       -0.2800
     11  H         17.7800  -24.6440   -7.6820 H       1  UNL1        0.1790
     12  C         16.5320  -23.6430   -6.3180 C.2     1  UNL1        0.0530
     13  C         15.3310  -24.1090   -5.7730 C.2     1  UNL1        0.0310
     14  C         14.9110  -23.6600   -4.5250 C.2     1  UNL1        0.0030
     15  C         15.6910  -22.7440   -3.8200 C.2     1  UNL1        0.0120
     16  C         16.8980  -22.2600   -4.3510 C.2     1  UNL1       -0.0240
     17  C         17.6710  -21.3380   -3.6270 C.2     1  UNL1        0.0120
     18  C         17.3360  -22.7040   -5.6230 C.2     1  UNL1        0.0010
     19  C         18.8680  -20.8430   -4.1440 C.2     1  UNL1        0.0010
     20  C         19.3070  -21.2620   -5.3930 C.2     1  UNL1        0.0010
     21  C         18.5510  -22.1800   -6.1250 C.2     1  UNL1        0.0140
     22  N         22.1910  -22.4860  -11.0870 N.am    1  UNL1       -0.3250
     23  C         23.2380  -21.7780  -10.5230 C.2     1  UNL1        0.2460
     24  O         23.2020  -21.0990   -9.5010 O.2     1  UNL1       -0.2710
     25  H         22.4360  -23.0350  -11.9070 H       1  UNL1        0.1690
     26  C         24.5270  -21.8880  -11.3450 C.3     1  UNL1        0.2780
     27  O         24.3870  -21.4820  -12.7000 O.2     1  UNL1       -0.3390
     28  C         24.6580  -22.3960  -13.6840 C.2     1  UNL1        0.1070
     29  C         25.1550  -23.6870  -13.4910 C.2     1  UNL1        0.0400
     30  C         25.3780  -24.5260  -14.5890 C.2     1  UNL1        0.0030
     31  C         25.1060  -24.0860  -15.8840 C.2     1  UNL1        0.0030
     32  C         24.6070  -22.8030  -16.0860 C.2     1  UNL1        0.0450
     33  C         24.3860  -21.9720  -14.9890 C.2     1  UNL1        0.1490
     34  F         23.8910  -20.7440  -15.2050 F       1  UNL1       -0.2030
@<TRIPOS>BOND
     1    32    31    2
     2    32    33    1
     3    31    30    1
     4    34    33    1
     5    33    28    2
     6    30    29    2
     7    28    29    1
     8    28    27    1
     9    27    26    1
    10    25    22    1
    11    26    23    1
    12     6     1    2
    13     6     5    1
    14    22     1    1
    15    22    23   am
    16     1     2    1
    17     5     4    2
    18    23    24    2
    19     9     7    2
    20     2     3    2
    21     4     3    1
    22     4     7    1
    23     7     8    2
    24     7    10    1
    25    11    10    1
    26    10    12    1
    27    12    13    2
    28    12    18    1
    29    21    18    1
    30    21    20    2
    31    13    14    1
    32    18    16    2
    33    20    19    1
    34    14    15    2
    35    16    15    1
    36    16    17    1
    37    19    17    2
