@<TRIPOS>MOLECULE
33124_out_ligand_01.pdbqt
 34 37 0 0 0
SMALL
GASTEIGER

@<TRIPOS>ATOM
      1  C         24.5060  -22.2180  -14.6010 C.2     1  UNL1        0.0800
      2  C         25.1030  -23.1370  -13.7370 C.2     1  UNL1        0.0270
      3  C         24.5380  -23.3750  -12.4790 C.2     1  UNL1        0.0310
      4  C         23.3930  -22.6870  -12.0710 C.2     1  UNL1        0.0340
      5  C         22.8220  -21.7470  -12.9400 C.2     1  UNL1        0.0310
      6  C         23.3760  -21.5060  -14.2000 C.2     1  UNL1        0.0270
      7  N         22.7630  -22.8730  -10.8230 N.am    1  UNL1       -0.3270
      8  C         22.8920  -22.0910   -9.6870 C.2     1  UNL1        0.2220
      9  O         23.5590  -21.0680   -9.5830 O.2     1  UNL1       -0.2730
     10  H         22.1750  -23.6940  -10.7440 H       1  UNL1        0.1690
     11  C         22.0400  -22.6040   -8.5330 C.3     1  UNL1        0.1080
     12  C         21.1640  -23.7880   -8.9400 C.3     1  UNL1        0.0480
     13  C         19.6850  -23.4880   -8.7740 C.2     1  UNL1       -0.0470
     14  C         19.0260  -24.0650   -7.6740 C.2     1  UNL1        0.0080
     15  C         17.6670  -23.8570   -7.4660 C.2     1  UNL1        0.0010
     16  C         16.9430  -23.0710   -8.3560 C.2     1  UNL1        0.0120
     17  C         17.5640  -22.4840   -9.4670 C.2     1  UNL1       -0.0250
     18  C         16.8110  -21.6960  -10.3540 C.2     1  UNL1        0.0120
     19  C         18.9510  -22.6860   -9.6950 C.2     1  UNL1       -0.0200
     20  C         17.4020  -21.1010  -11.4660 C.2     1  UNL1        0.0010
     21  C         18.7560  -21.2890  -11.7070 C.2     1  UNL1        0.0010
     22  C         19.5190  -22.0690  -10.8350 C.2     1  UNL1        0.0130
     23  S         25.2280  -21.9050  -16.1960 S.O2    1  UNL1        0.2630
     24  O         24.3500  -21.0120  -16.9200 O.2     1  UNL1       -0.2000
     25  O         25.6110  -23.1850  -16.7540 O.2     1  UNL1       -0.2000
     26  N         26.6720  -21.1160  -15.8260 N.pl3   1  UNL1       -0.2800
     27  H         27.1520  -21.5370  -15.0350 H       1  UNL1        0.1790
     28  C         26.7920  -19.7100  -16.0240 C.2     1  UNL1        0.0480
     29  C         27.0100  -19.2100  -17.3110 C.2     1  UNL1        0.0300
     30  C         27.1090  -17.8360  -17.5280 C.2     1  UNL1        0.0020
     31  C         26.9970  -16.9560  -16.4560 C.2     1  UNL1        0.0010
     32  C         26.7930  -17.4490  -15.1660 C.2     1  UNL1        0.0090
     33  C         26.6890  -18.8290  -14.9320 C.2     1  UNL1       -0.0350
     34  C         26.4850  -19.3170  -13.5260 C.3     1  UNL1        0.0500
@<TRIPOS>BOND
     1    30    29    1
     2    30    31    2
     3    29    28    2
     4    24    23    2
     5    25    23    2
     6    31    32    1
     7    23    26    1
     8    23     1    1
     9    28    26    1
    10    28    33    1
    11    26    27    1
    12    32    33    2
    13    33    34    1
    14     1     6    2
    15     1     2    1
    16     6     5    1
    17     2     3    2
    18     5     4    2
    19     3     4    1
    20     4     7    1
    21    21    20    1
    22    21    22    2
    23    20    18    2
    24    22    19    1
    25     7    10    1
    26     7     8   am
    27    18    17    1
    28    19    17    1
    29    19    13    2
    30     8     9    2
    31     8    11    1
    32    17    16    2
    33    12    13    1
    34    12    11    1
    35    13    14    1
    36    16    15    1
    37    14    15    2
