@<TRIPOS>MOLECULE
33121_out_ligand_01.pdbqt
 33 36 0 0 0
SMALL
GASTEIGER

@<TRIPOS>ATOM
      1  C         21.0810  -23.1430   -9.8310 C.2     1  UNL1        0.0340
      2  C         20.0520  -22.3970  -10.4120 C.2     1  UNL1        0.0310
      3  C         18.7410  -22.5000   -9.9340 C.2     1  UNL1        0.0270
      4  C         18.4560  -23.3660   -8.8780 C.2     1  UNL1        0.0750
      5  C         19.4760  -24.0970   -8.2660 C.2     1  UNL1        0.0270
      6  C         20.7840  -23.9840   -8.7480 C.2     1  UNL1        0.0310
      7  N         22.4220  -23.1100  -10.2660 N.am    1  UNL1       -0.3270
      8  C         23.3670  -22.1320  -10.0040 C.2     1  UNL1        0.2220
      9  O         23.2090  -21.1360   -9.3050 O.2     1  UNL1       -0.2730
     10  H         22.7060  -23.8670  -10.8760 H       1  UNL1        0.1690
     11  C         24.7100  -22.4340  -10.6520 C.3     1  UNL1        0.1080
     12  C         25.0160  -21.4870  -11.8130 C.3     1  UNL1        0.0480
     13  C         25.0360  -22.2100  -13.1430 C.2     1  UNL1       -0.0550
     14  C         25.4250  -23.5680  -13.2060 C.2     1  UNL1        0.0100
     15  C         25.4300  -24.2590  -14.4210 C.2     1  UNL1        0.0400
     16  C         25.0390  -23.5750  -15.5500 C.2     1  UNL1        0.1050
     17  C         24.6550  -22.2560  -15.5010 C.2     1  UNL1        0.1050
     18  O         24.9830  -24.0850  -16.8110 O.2     1  UNL1       -0.3230
     19  C         24.6420  -21.5470  -14.3160 C.2     1  UNL1        0.0470
     20  O         24.3040  -21.7710  -16.7220 O.2     1  UNL1       -0.3230
     21  C         24.5310  -22.9310  -17.5490 C.3     1  UNL1        0.3520
     22  S         16.7860  -23.5230   -8.2850 S.O2    1  UNL1        0.2450
     23  O         16.7280  -24.6620   -7.3950 O.2     1  UNL1       -0.2060
     24  O         15.9090  -23.4230   -9.4320 O.2     1  UNL1       -0.2060
     25  N         16.5580  -22.1030   -7.3890 N.pl3   1  UNL1       -0.1780
     26  H         17.1750  -21.3630   -7.7270 H       1  UNL1        0.1460
     27  C         16.4680  -22.2170   -5.9660 C.2     1  UNL1        0.0610
     28  C         15.2440  -22.4430   -5.3380 C.2     1  UNL1        0.0270
     29  C         15.1970  -22.6170   -3.9530 C.2     1  UNL1        0.0020
     30  C         16.3690  -22.5700   -3.1940 C.2     1  UNL1        0.0030
     31  C         17.5960  -22.3420   -3.8190 C.2     1  UNL1        0.0440
     32  C         17.6360  -22.1670   -5.1980 C.2     1  UNL1        0.1380
     33  F         18.8170  -21.9620   -5.8020 F       1  UNL1       -0.2040
@<TRIPOS>BOND
     1    21    18    1
     2    21    20    1
     3    18    16    1
     4    20    17    1
     5    16    17    2
     6    16    15    1
     7    17    19    1
     8    15    14    2
     9    19    13    2
    10    14    13    1
    11    13    12    1
    12    12    11    1
    13    10     7    1
    14    11     8    1
    15     2     3    1
    16     2     1    2
    17     7     8   am
    18     7     1    1
    19     8     9    2
    20     3     4    2
    21     1     6    1
    22    24    22    2
    23     4    22    1
    24     4     5    1
    25     6     5    2
    26    22    23    2
    27    22    25    1
    28    26    25    1
    29    25    27    1
    30    27    28    2
    31    27    32    1
    32    33    32    1
    33    28    29    1
    34    32    31    2
    35    29    30    2
    36    31    30    1
