@<TRIPOS>MOLECULE
33125_out_ligand_01.pdbqt
 34 37 0 0 0
SMALL
GASTEIGER

@<TRIPOS>ATOM
      1  C         24.4710  -21.9430  -14.3910 C.2     1  UNL1        0.0800
      2  C         23.2400  -21.3970  -14.0250 C.2     1  UNL1        0.0270
      3  C         22.6770  -21.7380  -12.7930 C.2     1  UNL1        0.0310
      4  C         23.3290  -22.6260  -11.9260 C.2     1  UNL1        0.0340
      5  C         24.5530  -23.1770  -12.3160 C.2     1  UNL1        0.0310
      6  C         25.1260  -22.8400  -13.5480 C.2     1  UNL1        0.0270
      7  N         22.6910  -22.9080  -10.7000 N.am    1  UNL1       -0.3270
      8  C         22.6690  -22.1230   -9.5590 C.2     1  UNL1        0.2220
      9  O         23.2350  -21.0440   -9.4090 O.2     1  UNL1       -0.2730
     10  H         22.1580  -23.7670  -10.6700 H       1  UNL1        0.1690
     11  C         21.8940  -22.7790   -8.4250 C.3     1  UNL1        0.1080
     12  C         20.9930  -23.9140   -8.9130 C.3     1  UNL1        0.0480
     13  C         19.5190  -23.5790   -8.7710 C.2     1  UNL1       -0.0470
     14  C         18.8380  -24.1100   -7.6610 C.2     1  UNL1        0.0080
     15  C         17.4930  -23.8370   -7.4530 C.2     1  UNL1        0.0010
     16  C         16.8030  -23.0260   -8.3480 C.2     1  UNL1        0.0120
     17  C         17.4510  -22.4720   -9.4610 C.2     1  UNL1       -0.0250
     18  C         16.7340  -21.6530  -10.3490 C.2     1  UNL1        0.0120
     19  C         18.8250  -22.7400   -9.6900 C.2     1  UNL1       -0.0200
     20  C         17.3520  -21.0890  -11.4630 C.2     1  UNL1        0.0010
     21  C         18.6970  -21.3370  -11.7040 C.2     1  UNL1        0.0010
     22  C         19.4220  -22.1510  -10.8290 C.2     1  UNL1        0.0130
     23  S         25.1960  -21.5210  -15.9540 S.O2    1  UNL1        0.2630
     24  O         24.2630  -20.7010  -16.6970 O.2     1  UNL1       -0.2000
     25  O         25.7290  -22.7390  -16.5280 O.2     1  UNL1       -0.2000
     26  N         26.5340  -20.5920  -15.5040 N.pl3   1  UNL1       -0.2810
     27  H         27.3730  -21.1690  -15.4450 H       1  UNL1        0.1790
     28  C         26.6680  -19.2970  -16.0720 C.2     1  UNL1        0.0420
     29  C         26.9340  -19.1520  -17.4310 C.2     1  UNL1        0.0300
     30  C         27.0260  -17.8740  -17.9870 C.2     1  UNL1        0.0090
     31  C         26.8570  -16.7370  -17.1870 C.2     1  UNL1       -0.0620
     32  C         26.9240  -15.3630  -17.7870 C.3     1  UNL1        0.0480
     33  C         26.5710  -16.8970  -15.8250 C.2     1  UNL1        0.0090
     34  C         26.4770  -18.1740  -15.2690 C.2     1  UNL1        0.0300
@<TRIPOS>BOND
     1    30    29    1
     2    30    31    2
     3    32    31    1
     4    29    28    2
     5    31    33    1
     6    24    23    2
     7    25    23    2
     8    28    26    1
     9    28    34    1
    10    23    26    1
    11    23     1    1
    12    33    34    2
    13    26    27    1
    14     1     2    2
    15     1     6    1
    16     2     3    1
    17     6     5    2
    18     3     4    2
    19     5     4    1
    20     4     7    1
    21    21    20    1
    22    21    22    2
    23    20    18    2
    24    22    19    1
    25     7    10    1
    26     7     8   am
    27    18    17    1
    28    19    17    1
    29    19    13    2
    30     8     9    2
    31     8    11    1
    32    17    16    2
    33    12    13    1
    34    12    11    1
    35    13    14    1
    36    16    15    1
    37    14    15    2
