@<TRIPOS>MOLECULE
33126_out_ligand_01.pdbqt
 34 37 0 0 0
SMALL
GASTEIGER

@<TRIPOS>ATOM
      1  C         23.3800  -22.7290  -11.9350 C.2     1  UNL1        0.0340
      2  C         24.5260  -23.4190  -12.3410 C.2     1  UNL1        0.0310
      3  C         25.1020  -23.1680  -13.5910 C.2     1  UNL1        0.0270
      4  C         24.5230  -22.2280  -14.4430 C.2     1  UNL1        0.0750
      5  C         23.3860  -21.5200  -14.0500 C.2     1  UNL1        0.0270
      6  C         22.8190  -21.7760  -12.7980 C.2     1  UNL1        0.0310
      7  N         22.7410  -22.9220  -10.6930 N.am    1  UNL1       -0.3270
      8  C         22.7840  -22.0950   -9.5820 C.2     1  UNL1        0.2220
      9  O         23.3820  -21.0270   -9.4960 O.2     1  UNL1       -0.2730
     10  H         22.2270  -23.7880  -10.5940 H       1  UNL1        0.1690
     11  C         21.9290  -22.6210   -8.4380 C.3     1  UNL1        0.1080
     12  C         21.0530  -23.8000   -8.8630 C.3     1  UNL1        0.0480
     13  C         19.5730  -23.4900   -8.7210 C.2     1  UNL1       -0.0470
     14  C         18.8910  -24.0680   -7.6350 C.2     1  UNL1        0.0080
     15  C         17.5320  -23.8490   -7.4480 C.2     1  UNL1        0.0010
     16  C         16.8300  -23.0510   -8.3460 C.2     1  UNL1        0.0120
     17  C         17.4740  -22.4630   -9.4430 C.2     1  UNL1       -0.0250
     18  C         16.7430  -21.6630  -10.3380 C.2     1  UNL1        0.0120
     19  C         18.8620  -22.6740   -9.6490 C.2     1  UNL1       -0.0200
     20  C         17.3580  -21.0670  -11.4360 C.2     1  UNL1        0.0010
     21  C         18.7140  -21.2620  -11.6540 C.2     1  UNL1        0.0010
     22  C         19.4550  -22.0550  -10.7730 C.2     1  UNL1        0.0130
     23  S         25.2590  -21.9160  -16.0280 S.O2    1  UNL1        0.2450
     24  O         24.3900  -20.9880  -16.7220 O.2     1  UNL1       -0.2060
     25  O         25.6360  -23.1800  -16.6200 O.2     1  UNL1       -0.2060
     26  N         26.6550  -21.0420  -15.6160 N.pl3   1  UNL1       -0.1780
     27  H         26.7990  -21.1230  -14.6080 H       1  UNL1        0.1460
     28  C         26.7510  -19.7150  -16.1390 C.2     1  UNL1        0.0610
     29  C         27.0940  -19.5060  -17.4730 C.2     1  UNL1        0.0270
     30  C         27.1200  -18.2060  -17.9870 C.2     1  UNL1        0.0020
     31  C         26.7920  -17.1190  -17.1710 C.2     1  UNL1        0.0030
     32  C         26.4440  -17.3280  -15.8370 C.2     1  UNL1        0.0440
     33  C         26.4210  -18.6220  -15.3300 C.2     1  UNL1        0.1380
     34  F         26.0920  -18.8190  -14.0440 F       1  UNL1       -0.2040
@<TRIPOS>BOND
     1    30    29    1
     2    30    31    2
     3    29    28    2
     4    31    32    1
     5    24    23    2
     6    25    23    2
     7    28    26    1
     8    28    33    1
     9    23    26    1
    10    23     4    1
    11    32    33    2
    12    26    27    1
    13    33    34    1
    14     4     5    2
    15     4     3    1
    16     5     6    1
    17     3     2    2
    18     6     1    2
    19     2     1    1
    20     1     7    1
    21    21    20    1
    22    21    22    2
    23    20    18    2
    24    22    19    1
    25     7    10    1
    26     7     8   am
    27    18    17    1
    28    19    17    1
    29    19    13    2
    30     8     9    2
    31     8    11    1
    32    17    16    2
    33    12    13    1
    34    12    11    1
    35    13    14    1
    36    16    15    1
    37    14    15    2
