@<TRIPOS>MOLECULE
33123_out_ligand_01.pdbqt
 34 37 0 0 0
SMALL
GASTEIGER

@<TRIPOS>ATOM
      1  C         23.4290  -22.6140  -12.2480 C.2     1  UNL1        0.0340
      2  C         24.5280  -23.4110  -12.6030 C.2     1  UNL1        0.0310
      3  C         25.1680  -23.2410  -13.8330 C.2     1  UNL1        0.0270
      4  C         24.6990  -22.2730  -14.7210 C.2     1  UNL1        0.0800
      5  C         23.6230  -21.4550  -14.3740 C.2     1  UNL1        0.0270
      6  C         22.9880  -21.6310  -13.1390 C.2     1  UNL1        0.0310
      7  N         22.8370  -22.8620  -10.9920 N.am    1  UNL1       -0.3270
      8  C         23.0030  -22.1370   -9.8240 C.2     1  UNL1        0.2220
      9  O         23.7230  -21.1540   -9.6760 O.2     1  UNL1       -0.2730
     10  H         22.1820  -23.6330  -10.9600 H       1  UNL1        0.1690
     11  C         22.2140  -22.7150   -8.6590 C.3     1  UNL1        0.1080
     12  C         21.3310  -23.8870   -9.0960 C.3     1  UNL1        0.0480
     13  C         19.8530  -23.5920   -8.9030 C.2     1  UNL1       -0.0470
     14  C         19.2220  -24.1440   -7.7730 C.2     1  UNL1        0.0080
     15  C         17.8780  -23.8970   -7.5130 C.2     1  UNL1        0.0010
     16  C         17.1420  -23.0920   -8.3770 C.2     1  UNL1        0.0120
     17  C         17.7380  -22.5220   -9.5120 C.2     1  UNL1       -0.0250
     18  C         16.9760  -21.7080  -10.3680 C.2     1  UNL1        0.0120
     19  C         19.1080  -22.7640   -9.7930 C.2     1  UNL1       -0.0200
     20  C         17.5420  -21.1270  -11.5000 C.2     1  UNL1        0.0010
     21  C         18.8800  -21.3530  -11.7920 C.2     1  UNL1        0.0010
     22  C         19.6520  -22.1610  -10.9520 C.2     1  UNL1        0.0130
     23  S         25.4930  -22.0510  -16.2980 S.O2    1  UNL1        0.2630
     24  O         24.6010  -21.2930  -17.1490 O.2     1  UNL1       -0.2000
     25  O         26.0110  -23.3390  -16.7090 O.2     1  UNL1       -0.2000
     26  N         26.8400  -21.1060  -15.9070 N.pl3   1  UNL1       -0.2810
     27  H         27.2920  -21.4280  -15.0530 H       1  UNL1        0.1790
     28  C         26.8040  -19.7080  -16.1610 C.2     1  UNL1        0.0420
     29  C         27.0640  -19.2450  -17.4550 C.2     1  UNL1        0.0330
     30  C         27.0690  -17.8730  -17.7130 C.2     1  UNL1        0.0440
     31  C         26.8120  -16.9790  -16.6780 C.2     1  UNL1        0.1160
     32  F         26.8180  -15.6630  -16.9290 F       1  UNL1       -0.2060
     33  C         26.5500  -17.4310  -15.3900 C.2     1  UNL1        0.0440
     34  C         26.5480  -18.8020  -15.1300 C.2     1  UNL1        0.0330
@<TRIPOS>BOND
     1    30    29    1
     2    30    31    2
     3    29    28    2
     4    24    23    2
     5    32    31    1
     6    25    23    2
     7    31    33    1
     8    23    26    1
     9    23     4    1
    10    28    26    1
    11    28    34    1
    12    26    27    1
    13    33    34    2
    14     4     5    2
    15     4     3    1
    16     5     6    1
    17     3     2    2
    18     6     1    2
    19     2     1    1
    20     1     7    1
    21    21    20    1
    22    21    22    2
    23    20    18    2
    24     7    10    1
    25     7     8   am
    26    22    19    1
    27    18    17    1
    28     8     9    2
    29     8    11    1
    30    19    17    1
    31    19    13    2
    32    17    16    2
    33    12    13    1
    34    12    11    1
    35    13    14    1
    36    16    15    1
    37    14    15    2
