@<TRIPOS>MOLECULE
33122_out_ligand_01.pdbqt
 34 37 0 0 0
SMALL
GASTEIGER

@<TRIPOS>ATOM
      1  C         22.2020  -22.4690  -11.1830 C.2     1  UNL1        0.0800
      2  C         21.9920  -23.2830  -10.0690 C.2     1  UNL1        0.0270
      3  C         20.6990  -23.4350   -9.5640 C.2     1  UNL1        0.0310
      4  C         19.6120  -22.7750  -10.1580 C.2     1  UNL1        0.0340
      5  C         19.8420  -21.9530  -11.2650 C.2     1  UNL1        0.0310
      6  C         21.1340  -21.7950  -11.7780 C.2     1  UNL1        0.0270
      7  N         18.3420  -22.9860   -9.5800 N.am    1  UNL1       -0.3270
      8  C         17.1590  -22.3340   -9.8810 C.2     1  UNL1        0.2220
      9  O         17.0110  -21.4380  -10.7060 O.2     1  UNL1       -0.2730
     10  H         18.2940  -23.7210   -8.8860 H       1  UNL1        0.1690
     11  C         15.9980  -22.8080   -9.0180 C.3     1  UNL1        0.1080
     12  C         16.4310  -23.8750   -8.0130 C.3     1  UNL1        0.0480
     13  C         16.2360  -23.4200   -6.5780 C.2     1  UNL1       -0.0470
     14  C         15.0910  -23.8790   -5.9020 C.2     1  UNL1        0.0080
     15  C         14.8530  -23.5260   -4.5790 C.2     1  UNL1        0.0010
     16  C         15.7570  -22.7080   -3.9080 C.2     1  UNL1        0.0120
     17  C         16.9120  -22.2360   -4.5480 C.2     1  UNL1       -0.0250
     18  C         17.8120  -21.4150   -3.8480 C.2     1  UNL1        0.0120
     19  C         17.1700  -22.5870   -5.8980 C.2     1  UNL1       -0.0200
     20  C         18.9680  -20.9340   -4.4570 C.2     1  UNL1        0.0010
     21  C         19.2390  -21.2660   -5.7770 C.2     1  UNL1        0.0010
     22  C         18.3530  -22.0800   -6.4870 C.2     1  UNL1        0.0130
     23  S         23.8400  -22.2610  -11.8320 S.O2    1  UNL1        0.2630
     24  O         24.5330  -21.3350  -10.9620 O.2     1  UNL1       -0.2000
     25  O         24.3980  -23.5630  -12.1220 O.2     1  UNL1       -0.2000
     26  N         23.5640  -21.4290  -13.2790 N.pl3   1  UNL1       -0.2810
     27  H         23.2510  -20.4780  -13.0900 H       1  UNL1        0.1790
     28  C         24.4980  -21.6110  -14.3350 C.2     1  UNL1        0.0430
     29  C         25.8170  -21.1900  -14.1800 C.2     1  UNL1        0.0300
     30  C         26.7370  -21.4030  -15.2070 C.2     1  UNL1        0.0030
     31  C         26.3380  -22.0450  -16.3810 C.2     1  UNL1        0.0070
     32  C         25.0190  -22.4930  -16.5340 C.2     1  UNL1       -0.0600
     33  C         24.5780  -23.1580  -17.8040 C.3     1  UNL1        0.0480
     34  C         24.0980  -22.2610  -15.5030 C.2     1  UNL1        0.0370
@<TRIPOS>BOND
     1    33    32    1
     2    32    31    2
     3    32    34    1
     4    31    30    1
     5    34    28    2
     6    30    29    2
     7    28    29    1
     8    28    26    1
     9    26    27    1
    10    26    23    1
    11    25    23    2
    12    23     1    1
    13    23    24    2
    14     6     5    1
    15     6     1    2
    16     5     4    2
    17     1     2    1
    18     9     8    2
    19     4     7    1
    20     4     3    1
    21     2     3    2
    22     8     7   am
    23     8    11    1
    24     7    10    1
    25    11    12    1
    26    12    13    1
    27    13    14    2
    28    13    19    1
    29    22    19    1
    30    22    21    2
    31    14    15    1
    32    19    17    2
    33    21    20    1
    34    15    16    2
    35    17    16    1
    36    17    18    1
    37    20    18    2
