@<TRIPOS>MOLECULE
33132_out_ligand_01.pdbqt
 33 36 0 0 0
SMALL
GASTEIGER

@<TRIPOS>ATOM
      1  C         18.4520  -23.3280   -8.9630 C.2     1  UNL1        0.0800
      2  C         19.4580  -24.0690   -8.3410 C.2     1  UNL1        0.0270
      3  C         20.7740  -23.9650   -8.8020 C.2     1  UNL1        0.0310
      4  C         21.0940  -23.1220   -9.8770 C.2     1  UNL1        0.0340
      5  C         20.0790  -22.3660  -10.4690 C.2     1  UNL1        0.0310
      6  C         18.7610  -22.4580  -10.0100 C.2     1  UNL1        0.0270
      7  N         22.4430  -23.0970  -10.2910 N.am    1  UNL1       -0.3270
      8  C         23.3840  -22.1120  -10.0400 C.2     1  UNL1        0.2220
      9  O         23.2180  -21.1030   -9.3640 O.2     1  UNL1       -0.2730
     10  H         22.7400  -23.8750  -10.8660 H       1  UNL1        0.1690
     11  C         24.7350  -22.4400  -10.6600 C.3     1  UNL1        0.1080
     12  C         25.0900  -21.5030  -11.8150 C.3     1  UNL1        0.0480
     13  C         25.0900  -22.2190  -13.1480 C.2     1  UNL1       -0.0550
     14  C         25.4630  -23.5810  -13.2220 C.2     1  UNL1        0.0100
     15  C         25.4530  -24.2640  -14.4420 C.2     1  UNL1        0.0400
     16  C         25.0660  -23.5670  -15.5650 C.2     1  UNL1        0.1050
     17  C         24.6970  -22.2440  -15.5030 C.2     1  UNL1        0.1050
     18  O         25.0010  -24.0670  -16.8290 O.2     1  UNL1       -0.3230
     19  C         24.6970  -21.5440  -14.3150 C.2     1  UNL1        0.0470
     20  O         24.3510  -21.7460  -16.7200 O.2     1  UNL1       -0.3230
     21  C         24.5580  -22.9030  -17.5560 C.3     1  UNL1        0.3520
     22  S         16.7750  -23.4530   -8.3800 S.O2    1  UNL1        0.2630
     23  O         16.6740  -24.6390   -7.5560 O.2     1  UNL1       -0.2000
     24  O         15.9060  -23.2640   -9.5260 O.2     1  UNL1       -0.2000
     25  N         16.5860  -22.0700   -7.4280 N.pl3   1  UNL1       -0.2800
     26  H         17.0540  -21.2600   -7.8260 H       1  UNL1        0.1790
     27  C         16.5240  -22.1870   -6.0090 C.2     1  UNL1        0.0480
     28  C         15.3180  -22.5600   -5.4060 C.2     1  UNL1        0.0300
     29  C         15.2410  -22.7250   -4.0240 C.2     1  UNL1        0.0020
     30  C         16.3700  -22.5130   -3.2370 C.2     1  UNL1        0.0010
     31  C         17.5720  -22.1270   -3.8310 C.2     1  UNL1        0.0090
     32  C         17.6660  -21.9590   -5.2220 C.2     1  UNL1       -0.0350
     33  C         18.9780  -21.5330   -5.8190 C.3     1  UNL1        0.0500
@<TRIPOS>BOND
     1    21    18    1
     2    21    20    1
     3    18    16    1
     4    20    17    1
     5    16    17    2
     6    16    15    1
     7    17    19    1
     8    15    14    2
     9    19    13    2
    10    14    13    1
    11    13    12    1
    12    12    11    1
    13    10     7    1
    14    11     8    1
    15     5     6    1
    16     5     4    2
    17     7     8   am
    18     7     4    1
    19     8     9    2
    20     6     1    2
    21     4     3    1
    22    24    22    2
    23     1    22    1
    24     1     2    1
    25     3     2    2
    26    22    23    2
    27    22    25    1
    28    26    25    1
    29    25    27    1
    30    27    28    2
    31    27    32    1
    32    33    32    1
    33    28    29    1
    34    32    31    2
    35    29    30    2
    36    31    30    1
