@<TRIPOS>MOLECULE
33131_out_ligand_01.pdbqt
 33 36 0 0 0
SMALL
GASTEIGER

@<TRIPOS>ATOM
      1  C         18.6170  -23.2810   -8.9770 C.2     1  UNL1        0.0800
      2  C         19.0360  -22.5190  -10.0700 C.2     1  UNL1        0.0270
      3  C         20.3820  -22.5420  -10.4460 C.2     1  UNL1        0.0310
      4  C         21.3100  -23.3270   -9.7460 C.2     1  UNL1        0.0340
      5  C         20.8670  -24.1010   -8.6690 C.2     1  UNL1        0.0310
      6  C         19.5220  -24.0810   -8.2820 C.2     1  UNL1        0.0270
      7  N         22.6530  -23.2620  -10.1700 N.am    1  UNL1       -0.3270
      8  C         23.5340  -22.2040  -10.0170 C.2     1  UNL1        0.2220
      9  O         23.3360  -21.1850   -9.3640 O.2     1  UNL1       -0.2730
     10  H         22.9970  -24.0750  -10.6670 H       1  UNL1        0.1690
     11  C         24.8570  -22.4480  -10.7270 C.3     1  UNL1        0.1080
     12  C         25.0610  -21.4930  -11.9060 C.3     1  UNL1        0.0480
     13  C         25.0050  -22.2180  -13.2330 C.2     1  UNL1       -0.0550
     14  C         25.4000  -23.5730  -13.3180 C.2     1  UNL1        0.0100
     15  C         25.4080  -24.2470  -14.5420 C.2     1  UNL1        0.0400
     16  C         25.0200  -23.5440  -15.6620 C.2     1  UNL1        0.1050
     17  C         24.6280  -22.2280  -15.5910 C.2     1  UNL1        0.1050
     18  O         24.9720  -24.0330  -16.9310 O.2     1  UNL1       -0.3230
     19  C         24.6090  -21.5370  -14.3970 C.2     1  UNL1        0.0470
     20  O         24.2830  -21.7220  -16.8070 O.2     1  UNL1       -0.3230
     21  C         24.5220  -22.8680  -17.6520 C.3     1  UNL1        0.3520
     22  S         16.9130  -23.2300   -8.4840 S.O2    1  UNL1        0.2630
     23  O         16.0950  -23.7990   -9.5310 O.2     1  UNL1       -0.2000
     24  O         16.6550  -21.8970   -7.9770 O.2     1  UNL1       -0.2000
     25  N         16.8890  -24.2510   -7.1350 N.pl3   1  UNL1       -0.2810
     26  H         17.6450  -24.9330   -7.1890 H       1  UNL1        0.1790
     27  C         16.6360  -23.6680   -5.8630 C.2     1  UNL1        0.0430
     28  C         15.3500  -23.7270   -5.3290 C.2     1  UNL1        0.0300
     29  C         15.0840  -23.1310   -4.0980 C.2     1  UNL1        0.0030
     30  C         16.1020  -22.4740   -3.4040 C.2     1  UNL1        0.0070
     31  C         17.3980  -22.4130   -3.9350 C.2     1  UNL1       -0.0600
     32  C         18.4820  -21.6650   -3.2180 C.3     1  UNL1        0.0480
     33  C         17.6540  -23.0070   -5.1770 C.2     1  UNL1        0.0370
@<TRIPOS>BOND
     1    21    18    1
     2    21    20    1
     3    18    16    1
     4    20    17    1
     5    16    17    2
     6    16    15    1
     7    17    19    1
     8    15    14    2
     9    19    13    2
    10    14    13    1
    11    13    12    1
    12    12    11    1
    13    11     8    1
    14    10     7    1
    15     3     2    1
    16     3     4    2
    17     7     8   am
    18     7     4    1
    19     2     1    2
    20     8     9    2
    21     4     5    1
    22    23    22    2
    23     1    22    1
    24     1     6    1
    25     5     6    2
    26    22    24    2
    27    22    25    1
    28    26    25    1
    29    25    27    1
    30    27    28    2
    31    27    33    1
    32    28    29    1
    33    33    31    2
    34    29    30    2
    35    31    30    1
    36    31    32    1
