@<TRIPOS>MOLECULE
33141_out_ligand_01.pdbqt
 32 34 0 0 0
SMALL
GASTEIGER

@<TRIPOS>ATOM
      1  C         21.1030  -22.8060  -10.2040 C.2     1  UNL1        0.0340
      2  C         19.9830  -22.0600  -10.5800 C.2     1  UNL1        0.0310
      3  C         18.7430  -22.2880   -9.9740 C.2     1  UNL1        0.0270
      4  C         18.6180  -23.2820   -9.0010 C.2     1  UNL1        0.0800
      5  C         19.7340  -24.0170   -8.5950 C.2     1  UNL1        0.0270
      6  C         20.9710  -23.7770   -9.2010 C.2     1  UNL1        0.0310
      7  N         22.3810  -22.6390  -10.7660 N.am    1  UNL1       -0.3250
      8  C         23.4060  -21.8180  -10.3290 C.2     1  UNL1        0.2460
      9  O         23.3890  -21.0800   -9.3480 O.2     1  UNL1       -0.2710
     10  H         22.5670  -23.1270  -11.6380 H       1  UNL1        0.1690
     11  C         24.6620  -21.9270  -11.2050 C.3     1  UNL1        0.2780
     12  O         24.8760  -23.2090  -11.7850 O.2     1  UNL1       -0.3420
     13  C         24.8680  -23.3030  -13.1510 C.2     1  UNL1        0.0690
     14  C         25.2270  -24.4210  -13.9030 C.2     1  UNL1        0.0370
     15  C         25.1920  -24.3680  -15.3020 C.2     1  UNL1        0.0090
     16  C         24.8120  -23.1960  -15.9640 C.2     1  UNL1       -0.0620
     17  C         24.7420  -23.1560  -17.4610 C.3     1  UNL1        0.0480
     18  C         24.4430  -22.0810  -15.2050 C.2     1  UNL1        0.0090
     19  C         24.4790  -22.1350  -13.8100 C.2     1  UNL1        0.0370
     20  S         17.0450  -23.5580   -8.2190 S.O2    1  UNL1        0.2630
     21  O         17.2010  -24.6700   -7.3070 O.2     1  UNL1       -0.2000
     22  O         16.0460  -23.5970   -9.2670 O.2     1  UNL1       -0.2000
     23  N         16.7430  -22.1350   -7.3620 N.pl3   1  UNL1       -0.2800
     24  H         17.0070  -21.3030   -7.8820 H       1  UNL1        0.1790
     25  C         16.8640  -22.1060   -5.9410 C.2     1  UNL1        0.0540
     26  C         18.1030  -21.7880   -5.3480 C.2     1  UNL1       -0.0340
     27  C         19.3330  -21.4010   -6.1230 C.3     1  UNL1        0.0500
     28  C         18.2270  -21.8560   -3.9500 C.2     1  UNL1        0.0090
     29  C         17.1430  -22.2120   -3.1530 C.2     1  UNL1        0.0010
     30  C         15.9140  -22.4880   -3.7410 C.2     1  UNL1        0.0090
     31  C         15.7530  -22.4230   -5.1350 C.2     1  UNL1       -0.0340
     32  C         14.3810  -22.7010   -5.6890 C.3     1  UNL1        0.0500
@<TRIPOS>BOND
     1    17    16    1
     2    16    15    2
     3    16    18    1
     4    15    14    1
     5    18    19    2
     6    14    13    2
     7    19    13    1
     8    13    12    1
     9    12    11    1
    10    10     7    1
    11    11     8    1
    12     7     8   am
    13     7     1    1
    14     2     1    2
    15     2     3    1
    16     8     9    2
    17     1     6    1
    18     3     4    2
    19    22    20    2
    20     6     5    2
    21     4     5    1
    22     4    20    1
    23    20    23    1
    24    20    21    2
    25    24    23    1
    26    23    25    1
    27    27    26    1
    28    25    26    2
    29    25    31    1
    30    32    31    1
    31    26    28    1
    32    31    30    2
    33    28    29    2
    34    30    29    1
