@<TRIPOS>MOLECULE
33166_out_ligand_01.pdbqt
 32 34 0 0 0
SMALL
GASTEIGER

@<TRIPOS>ATOM
      1  C         21.8860  -23.1560   -8.9590 C.2     1  UNL1        0.0800
      2  C         21.1970  -24.2950   -9.3910 C.2     1  UNL1        0.0270
      3  C         19.9280  -24.5690   -8.8790 C.2     1  UNL1        0.0260
      4  C         19.3530  -23.7040   -7.9450 C.2     1  UNL1        0.0220
      5  C         20.0250  -22.5480   -7.5460 C.2     1  UNL1        0.0260
      6  C         21.2960  -22.2690   -8.0530 C.2     1  UNL1        0.0270
      7  S         23.5000  -22.7960   -9.6180 S.O2    1  UNL1        0.2630
      8  O         24.4470  -23.6610   -8.9450 O.2     1  UNL1       -0.2000
      9  O         23.6730  -21.3600   -9.6220 O.2     1  UNL1       -0.2000
     10  N         23.4070  -23.3640  -11.2040 N.pl3   1  UNL1       -0.2800
     11  H         22.7300  -24.1170  -11.3060 H       1  UNL1        0.1790
     12  C         23.6050  -22.4730  -12.2990 C.2     1  UNL1        0.0490
     13  C         22.5370  -21.7010  -12.7870 C.2     1  UNL1       -0.0350
     14  C         22.7780  -20.8070  -13.8400 C.2     1  UNL1        0.0090
     15  C         21.1490  -21.8050  -12.2210 C.3     1  UNL1        0.0500
     16  C         24.0520  -20.6870  -14.4020 C.2     1  UNL1        0.0070
     17  C         25.1070  -21.4750  -13.9350 C.2     1  UNL1       -0.0600
     18  C         26.4810  -21.3370  -14.5180 C.3     1  UNL1        0.0480
     19  C         24.8740  -22.3600  -12.8760 C.2     1  UNL1        0.0370
     20  N         18.0420  -23.9700   -7.4560 N.pl3   1  UNL1       -0.1850
     21  H         17.8460  -24.9490   -7.2420 H       1  UNL1        0.1460
     22  S         16.7420  -23.3340   -8.3330 S.O2    1  UNL1        0.2170
     23  O         17.2350  -22.5870   -9.4710 O.2     1  UNL1       -0.2110
     24  O         15.8330  -24.4470   -8.5270 O.2     1  UNL1       -0.2110
     25  C         15.9910  -22.1760   -7.1810 C.3     1  UNL1        0.1990
     26  C         16.0210  -22.7170   -5.7800 C.2     1  UNL1       -0.0040
     27  C         15.0440  -23.6130   -5.3220 C.2     1  UNL1        0.0110
     28  C         15.0940  -24.1100   -4.0170 C.2     1  UNL1        0.0010
     29  C         16.1170  -23.7170   -3.1540 C.2     1  UNL1        0.0030
     30  C         17.0910  -22.8250   -3.5970 C.2     1  UNL1        0.0430
     31  C         17.0360  -22.3340   -4.8970 C.2     1  UNL1        0.1230
     32  F         17.9780  -21.4700   -5.3000 F       1  UNL1       -0.2060
@<TRIPOS>BOND
     1    18    17    1
     2    16    17    2
     3    16    14    1
     4    17    19    1
     5    14    13    2
     6    19    12    2
     7    13    12    1
     8    13    15    1
     9    12    10    1
    10    11    10    1
    11    10     7    1
    12     9     7    2
    13     7     1    1
    14     7     8    2
    15    23    22    2
    16     2     1    2
    17     2     3    1
    18     1     6    1
    19     3     4    2
    20    24    22    2
    21    22    20    1
    22    22    25    1
    23     6     5    2
    24     4     5    1
    25     4    20    1
    26    20    21    1
    27    25    26    1
    28    26    27    2
    29    26    31    1
    30    27    28    1
    31    32    31    1
    32    31    30    2
    33    28    29    2
    34    30    29    1
