@<TRIPOS>MOLECULE
33207_out_ligand_01.pdbqt
 32 34 0 0 0
SMALL
GASTEIGER

@<TRIPOS>ATOM
      1  C         18.2140  -23.1160   -9.0740 C.2     1  UNL1        0.0800
      2  C         19.2150  -23.8290   -8.4130 C.2     1  UNL1        0.0270
      3  C         20.5250  -23.7860   -8.8970 C.2     1  UNL1        0.0310
      4  C         20.8460  -23.0320  -10.0360 C.2     1  UNL1        0.0340
      5  C         19.8370  -22.3050  -10.6730 C.2     1  UNL1        0.0310
      6  C         18.5240  -22.3370  -10.1900 C.2     1  UNL1        0.0270
      7  S         16.5480  -23.1450   -8.4490 S.O2    1  UNL1        0.2630
      8  O         15.7050  -22.5030   -9.4370 O.2     1  UNL1       -0.2000
      9  O         16.2650  -24.4880   -7.9910 O.2     1  UNL1       -0.2000
     10  N         16.5990  -22.0860   -7.1350 N.pl3   1  UNL1       -0.2800
     11  H         17.2640  -21.3300   -7.2720 H       1  UNL1        0.1790
     12  C         16.3940  -22.5790   -5.8130 C.2     1  UNL1        0.0490
     13  C         15.1580  -22.3970   -5.1710 C.2     1  UNL1       -0.0350
     14  C         15.0030  -22.8770   -3.8620 C.2     1  UNL1        0.0090
     15  C         13.9960  -21.7200   -5.8430 C.3     1  UNL1        0.0500
     16  C         16.0560  -23.5180   -3.2040 C.2     1  UNL1        0.0070
     17  C         17.2870  -23.6920   -3.8410 C.2     1  UNL1       -0.0600
     18  C         18.4070  -24.4130   -3.1530 C.3     1  UNL1        0.0480
     19  C         17.4400  -23.2330   -5.1540 C.2     1  UNL1        0.0370
     20  N         22.1920  -23.0470  -10.4510 N.am    1  UNL1       -0.3270
     21  C         23.1760  -22.1110  -10.1790 C.2     1  UNL1        0.2260
     22  O         23.0280  -21.0850   -9.5180 O.2     1  UNL1       -0.2730
     23  H         22.4500  -23.8040  -11.0730 H       1  UNL1        0.1690
     24  C         24.5590  -22.4710  -10.7170 C.3     1  UNL1        0.1410
     25  C         24.6590  -22.5770  -12.2210 C.2     1  UNL1       -0.0490
     26  C         24.1320  -21.5720  -13.0360 C.2     1  UNL1        0.0080
     27  C         24.1910  -21.6910  -14.4260 C.2     1  UNL1        0.0080
     28  C         24.7780  -22.8110  -15.0290 C.2     1  UNL1       -0.0560
     29  C         24.8190  -22.9030  -16.5300 C.3     1  UNL1        0.0490
     30  C         25.3160  -23.8290  -14.2150 C.2     1  UNL1       -0.0560
     31  C         25.9620  -25.0490  -14.8120 C.3     1  UNL1        0.0490
     32  C         25.2530  -23.6970  -12.8190 C.2     1  UNL1        0.0140
@<TRIPOS>BOND
     1    29    28    1
     2    28    27    2
     3    28    30    1
     4    31    30    1
     5    27    26    1
     6    30    32    2
     7    26    25    2
     8    32    25    1
     9    25    24    1
    10    23    20    1
    11    24    21    1
    12     5     6    1
    13     5     4    2
    14    20    21   am
    15    20     4    1
    16     6     1    2
    17    21    22    2
    18     4     3    1
    19     8     7    2
    20     1     7    1
    21     1     2    1
    22     3     2    2
    23     7     9    2
    24     7    10    1
    25    11    10    1
    26    10    12    1
    27    15    13    1
    28    12    13    2
    29    12    19    1
    30    13    14    1
    31    19    17    2
    32    14    16    2
    33    17    16    1
    34    17    18    1
