@<TRIPOS>MOLECULE
33209_out_ligand_01.pdbqt
 31 33 0 0 0
SMALL
GASTEIGER

@<TRIPOS>ATOM
      1  C         21.0800  -23.2100   -9.8100 C.2     1  UNL1        0.0340
      2  C         20.0750  -22.4890  -10.4590 C.2     1  UNL1        0.0310
      3  C         18.7480  -22.5640  -10.0220 C.2     1  UNL1        0.0270
      4  C         18.4260  -23.3670   -8.9270 C.2     1  UNL1        0.0750
      5  C         19.4120  -24.1150   -8.2820 C.2     1  UNL1        0.0270
      6  C         20.7370  -24.0260   -8.7190 C.2     1  UNL1        0.0310
      7  N         22.4420  -23.1730  -10.1750 N.am    1  UNL1       -0.3270
      8  C         23.3550  -22.1580   -9.9350 C.2     1  UNL1        0.2260
      9  O         23.1250  -21.0870   -9.3790 O.2     1  UNL1       -0.2730
     10  H         22.7960  -23.9980  -10.6420 H       1  UNL1        0.1690
     11  C         24.7550  -22.4960  -10.4310 C.3     1  UNL1        0.1410
     12  C         25.2190  -21.5460  -11.5060 C.2     1  UNL1       -0.0490
     13  C         26.1630  -20.5530  -11.2330 C.2     1  UNL1        0.0080
     14  C         26.5500  -19.6540  -12.2290 C.2     1  UNL1        0.0080
     15  C         26.0010  -19.7240  -13.5170 C.2     1  UNL1       -0.0560
     16  C         26.4330  -18.7270  -14.5570 C.3     1  UNL1        0.0490
     17  C         25.0610  -20.7310  -13.8080 C.2     1  UNL1       -0.0560
     18  C         24.6710  -21.6220  -12.7930 C.2     1  UNL1        0.0140
     19  C         24.4120  -20.8430  -15.1620 C.3     1  UNL1        0.0490
     20  S         16.7440  -23.4660   -8.3530 S.O2    1  UNL1        0.2450
     21  O         16.6600  -24.6100   -7.4680 O.2     1  UNL1       -0.2060
     22  O         15.8660  -23.3380   -9.4980 O.2     1  UNL1       -0.2060
     23  N         16.5860  -22.0910   -7.3780 N.pl3   1  UNL1       -0.1780
     24  H         15.9160  -21.4380   -7.7830 H       1  UNL1        0.1460
     25  C         16.4880  -22.2790   -5.9640 C.2     1  UNL1        0.0610
     26  C         15.2530  -22.4730   -5.3460 C.2     1  UNL1        0.0270
     27  C         15.1840  -22.6080   -3.9550 C.2     1  UNL1        0.0020
     28  C         16.3450  -22.5470   -3.1850 C.2     1  UNL1        0.0030
     29  C         17.5820  -22.3540   -3.8000 C.2     1  UNL1        0.0440
     30  C         17.6440  -22.2210   -5.1840 C.2     1  UNL1        0.1380
     31  F         18.8340  -22.0250   -5.7750 F       1  UNL1       -0.2040
@<TRIPOS>BOND
     1    19    17    1
     2    16    15    1
     3    17    15    2
     4    17    18    1
     5    15    14    1
     6    18    12    2
     7    14    13    2
     8    12    13    1
     9    12    11    1
    10    10     7    1
    11     2     3    1
    12     2     1    2
    13    11     8    1
    14     7     8   am
    15     7     1    1
    16     3     4    2
    17     8     9    2
    18     1     6    1
    19    22    20    2
    20     4    20    1
    21     4     5    1
    22     6     5    2
    23    20    21    2
    24    20    23    1
    25    24    23    1
    26    23    25    1
    27    25    26    2
    28    25    30    1
    29    31    30    1
    30    26    27    1
    31    30    29    2
    32    27    28    2
    33    29    28    1
