@<TRIPOS>MOLECULE
33201_out_ligand_01.pdbqt
 32 34 0 0 0
SMALL
GASTEIGER

@<TRIPOS>ATOM
      1  C         22.1200  -23.1740   -9.0940 C.2     1  UNL1        0.0740
      2  C         21.5060  -22.2480   -8.2460 C.2     1  UNL1        0.0260
      3  C         20.2510  -22.5420   -7.7090 C.2     1  UNL1        0.0260
      4  C         19.6180  -23.7430   -8.0320 C.2     1  UNL1        0.0220
      5  C         20.2430  -24.6750   -8.8630 C.2     1  UNL1        0.0260
      6  C         21.5000  -24.3900   -9.4000 C.2     1  UNL1        0.0260
      7  S         23.7160  -22.8230   -9.7980 S.O2    1  UNL1        0.2450
      8  O         24.6800  -23.6190   -9.0720 O.2     1  UNL1       -0.2060
      9  O         23.8360  -21.3850   -9.9290 O.2     1  UNL1       -0.2060
     10  N         23.4890  -23.4360  -11.3780 N.pl3   1  UNL1       -0.1810
     11  H         22.5410  -23.8100  -11.4210 H       1  UNL1        0.1460
     12  C         23.7280  -22.4830  -12.4290 C.2     1  UNL1        0.0290
     13  C         22.7000  -21.6760  -12.9420 C.2     1  UNL1       -0.0400
     14  C         23.0140  -20.7530  -13.9520 C.2     1  UNL1        0.0090
     15  C         21.2840  -21.7510  -12.4440 C.3     1  UNL1        0.0500
     16  C         24.3210  -20.6320  -14.4340 C.2     1  UNL1        0.0070
     17  C         25.3450  -21.4200  -13.9060 C.2     1  UNL1       -0.0600
     18  C         26.7490  -21.3030  -14.4220 C.3     1  UNL1        0.0480
     19  C         25.0370  -22.3520  -12.9090 C.2     1  UNL1        0.0310
     20  N         18.3480  -24.0440   -7.4440 N.pl3   1  UNL1       -0.1850
     21  H         18.2970  -23.7270   -6.4710 H       1  UNL1        0.1460
     22  S         17.0130  -23.3620   -8.2620 S.O2    1  UNL1        0.2170
     23  O         15.9380  -24.3330   -8.2900 O.2     1  UNL1       -0.2110
     24  O         17.5350  -22.7950   -9.4880 O.2     1  UNL1       -0.2110
     25  C         16.5120  -22.0450   -7.1420 C.3     1  UNL1        0.1960
     26  C         16.3550  -22.5570   -5.7280 C.2     1  UNL1       -0.0370
     27  C         15.2360  -23.3660   -5.4420 C.2     1  UNL1        0.0090
     28  C         15.0320  -23.8990   -4.1710 C.2     1  UNL1        0.0010
     29  C         15.9410  -23.6310   -3.1570 C.2     1  UNL1        0.0010
     30  C         17.0480  -22.8240   -3.4150 C.2     1  UNL1        0.0070
     31  C         17.2650  -22.2670   -4.6890 C.2     1  UNL1       -0.0550
     32  C         18.5010  -21.4240   -4.8660 C.3     1  UNL1        0.0490
@<TRIPOS>BOND
     1    16    14    2
     2    16    17    1
     3    18    17    1
     4    14    13    1
     5    17    19    2
     6    13    15    1
     7    13    12    2
     8    19    12    1
     9    12    10    1
    10    11    10    1
    11    10     7    1
    12     9     7    2
    13     7     1    1
    14     7     8    2
    15    24    22    2
    16     6     1    2
    17     6     5    1
    18     1     2    1
    19     5     4    2
    20    23    22    2
    21    22    20    1
    22    22    25    1
    23     2     3    2
    24     4     3    1
    25     4    20    1
    26    20    21    1
    27    25    26    1
    28    26    27    2
    29    26    31    1
    30    27    28    1
    31    32    31    1
    32    31    30    2
    33    28    29    2
    34    30    29    1
