@<TRIPOS>MOLECULE
33219_out_ligand_01.pdbqt
 33 36 0 0 0
SMALL
GASTEIGER

@<TRIPOS>ATOM
      1  C         18.7150  -23.3330   -9.0320 C.2     1  UNL1        0.0750
      2  C         19.0390  -22.5200  -10.1120 C.2     1  UNL1        0.0270
      3  C         20.3540  -22.4620  -10.5780 C.2     1  UNL1        0.0310
      4  C         21.3590  -23.1920   -9.9550 C.2     1  UNL1        0.0340
      5  C         21.0290  -23.9740   -8.8440 C.2     1  UNL1        0.0310
      6  C         19.7100  -24.0440   -8.3770 C.2     1  UNL1        0.0270
      7  N         22.7020  -23.1970  -10.3810 N.am    1  UNL1       -0.3250
      8  C         23.6440  -22.1930  -10.2130 C.2     1  UNL1        0.2540
      9  O         23.4740  -21.1360   -9.6150 O.2     1  UNL1       -0.2700
     10  H         23.0150  -24.0020  -10.9110 H       1  UNL1        0.1690
     11  C         25.0240  -22.5660  -10.7860 C.3     1  UNL1        0.2450
     12  C         25.9350  -21.3440  -10.8450 C.3     1  UNL1        0.2180
     13  O         25.5080  -20.4190  -11.8500 O.2     1  UNL1       -0.3450
     14  C         25.2110  -21.0540  -13.0290 C.2     1  UNL1        0.1020
     15  C         25.1440  -20.2560  -14.1740 C.2     1  UNL1        0.0390
     16  C         24.9710  -22.4250  -13.1170 C.2     1  UNL1        0.1030
     17  C         24.8420  -20.8350  -15.4060 C.2     1  UNL1        0.0030
     18  C         24.6220  -22.2100  -15.4970 C.2     1  UNL1        0.0030
     19  C         24.6940  -23.0070  -14.3520 C.2     1  UNL1        0.0400
     20  O         24.9720  -23.2590  -12.0360 O.2     1  UNL1       -0.3310
     21  S         17.0310  -23.4150   -8.4660 S.O2    1  UNL1        0.2450
     22  O         16.1750  -23.2340   -9.6160 O.2     1  UNL1       -0.2060
     23  O         16.9040  -24.5930   -7.6350 O.2     1  UNL1       -0.2060
     24  N         16.8570  -22.0260   -7.5140 N.pl3   1  UNL1       -0.1790
     25  H         17.6090  -21.3580   -7.7030 H       1  UNL1        0.1460
     26  C         16.5610  -22.1820   -6.1310 C.2     1  UNL1        0.0560
     27  C         15.2590  -22.4260   -5.6960 C.2     1  UNL1        0.0270
     28  C         15.0050  -22.6030   -4.3360 C.2     1  UNL1        0.0020
     29  C         16.0530  -22.5380   -3.4110 C.2     1  UNL1        0.0030
     30  C         17.3550  -22.2870   -3.8460 C.2     1  UNL1        0.0380
     31  C         17.6130  -22.1240   -5.2100 C.2     1  UNL1        0.0900
     32  O         18.8620  -21.8480   -5.7040 O.2     1  UNL1       -0.3540
     33  C         19.3560  -20.5600   -5.3140 C.3     1  UNL1        0.2100
@<TRIPOS>BOND
     1    18    17    2
     2    18    19    1
     3    17    15    1
     4    19    16    2
     5    15    14    2
     6    16    14    1
     7    16    20    1
     8    14    13    1
     9    20    11    1
    10    13    12    1
    11    10     7    1
    12    12    11    1
    13    11     8    1
    14     3     2    1
    15     3     4    2
    16     7     8   am
    17     7     4    1
    18     8     9    2
    19     2     1    2
    20     4     5    1
    21    22    21    2
    22     1    21    1
    23     1     6    1
    24     5     6    2
    25    21    23    2
    26    21    24    1
    27    25    24    1
    28    24    26    1
    29    26    27    2
    30    26    31    1
    31    32    33    1
    32    32    31    1
    33    27    28    1
    34    31    30    2
    35    28    29    2
    36    30    29    1
