@<TRIPOS>MOLECULE
33217_out_ligand_01.pdbqt
 31 33 0 0 0
SMALL
GASTEIGER

@<TRIPOS>ATOM
      1  C         21.6400  -23.1880   -8.6830 C.2     1  UNL1        0.0800
      2  C         21.0730  -24.4550   -8.8630 C.2     1  UNL1        0.0270
      3  C         19.8460  -24.7500   -8.2660 C.2     1  UNL1        0.0260
      4  C         19.1970  -23.7840   -7.4940 C.2     1  UNL1        0.0220
      5  C         19.7840  -22.5350   -7.2840 C.2     1  UNL1        0.0260
      6  C         21.0100  -22.2340   -7.8780 C.2     1  UNL1        0.0270
      7  N         17.9630  -24.1040   -6.8580 N.pl3   1  UNL1       -0.1850
      8  H         18.0030  -24.1880   -5.8400 H       1  UNL1        0.1460
      9  S         16.6110  -23.1680   -7.2690 S.O2    1  UNL1        0.2170
     10  O         16.9590  -21.7630   -7.2350 O.2     1  UNL1       -0.2110
     11  O         15.5280  -23.6770   -6.4520 O.2     1  UNL1       -0.2110
     12  C         16.3160  -23.6310   -8.9820 C.3     1  UNL1        0.1960
     13  C         17.0780  -22.7370   -9.9290 C.2     1  UNL1       -0.0430
     14  C         18.2930  -23.1630  -10.4920 C.2     1  UNL1        0.0110
     15  C         18.9960  -22.3320  -11.3670 C.2     1  UNL1        0.0430
     16  C         18.4860  -21.0790  -11.6820 C.2     1  UNL1        0.1160
     17  F         19.1620  -20.2830  -12.5200 F       1  UNL1       -0.2060
     18  C         17.2850  -20.6390  -11.1390 C.2     1  UNL1        0.0430
     19  C         16.5800  -21.4670  -10.2640 C.2     1  UNL1        0.0110
     20  S         23.2130  -22.8140   -9.4290 S.O2    1  UNL1        0.2630
     21  O         24.2020  -23.6760   -8.8140 O.2     1  UNL1       -0.2000
     22  O         23.3740  -21.3760   -9.4340 O.2     1  UNL1       -0.2000
     23  N         23.0350  -23.3750  -11.0090 N.pl3   1  UNL1       -0.2800
     24  H         22.2800  -24.0510  -11.1000 H       1  UNL1        0.1790
     25  C         23.3250  -22.5230  -12.1150 C.2     1  UNL1        0.0480
     26  C         22.3080  -21.7370  -12.6660 C.2     1  UNL1        0.0300
     27  C         22.5650  -20.9150  -13.7610 C.2     1  UNL1        0.0020
     28  C         23.8430  -20.8700  -14.3090 C.2     1  UNL1        0.0010
     29  C         24.8660  -21.6420  -13.7560 C.2     1  UNL1        0.0090
     30  C         24.6220  -22.4770  -12.6540 C.2     1  UNL1       -0.0350
     31  C         25.7560  -23.2790  -12.0810 C.3     1  UNL1        0.0500
@<TRIPOS>BOND
     1    28    27    2
     2    28    29    1
     3    27    26    1
     4    29    30    2
     5    26    25    2
     6    30    25    1
     7    30    31    1
     8    17    16    1
     9    25    23    1
    10    16    15    2
    11    16    18    1
    12    15    14    1
    13    18    19    2
    14    24    23    1
    15    23    20    1
    16    14    13    2
    17    19    13    1
    18    13    12    1
    19    22    20    2
    20    20    21    2
    21    20     1    1
    22    12     9    1
    23     2     1    2
    24     2     3    1
    25     1     6    1
    26     3     4    2
    27     6     5    2
    28     4     5    1
    29     4     7    1
    30     9    10    2
    31     9     7    1
    32     9    11    2
    33     7     8    1
