@<TRIPOS>MOLECULE
3322_out_ligand_01.pdbqt
 28 31 0 0 0
SMALL
GASTEIGER

@<TRIPOS>ATOM
      1  C         19.5400  -21.4810  -11.6410 C.2     1  UNL1        0.2250
      2  N         18.8180  -22.2040  -10.8050 N.2     1  UNL1       -0.2030
      3  C         17.6000  -21.5770  -10.8570 C.2     1  UNL1        0.1590
      4  N         17.5380  -20.5260  -11.6850 N.4     1  UNL1       -0.1110
      5  O         18.8300  -20.4610  -12.2140 O.2     1  UNL1       -0.1890
      6  C         20.9440  -21.6000  -12.0190 C.2     1  UNL1        0.1120
      7  C         21.3750  -21.2100  -13.2800 C.2     1  UNL1        0.0370
      8  C         22.7200  -21.3620  -13.5920 C.2     1  UNL1        0.0160
      9  C         23.6010  -21.8960  -12.6430 C.2     1  UNL1       -0.0070
     10  C         24.9610  -22.0620  -12.9420 C.2     1  UNL1        0.0140
     11  C         23.0900  -22.2680  -11.3790 C.2     1  UNL1        0.0740
     12  C         25.8240  -22.5960  -11.9940 C.2     1  UNL1        0.0020
     13  C         25.3340  -22.9680  -10.7440 C.2     1  UNL1        0.0090
     14  C         23.9730  -22.8070  -10.4260 C.2     1  UNL1       -0.0290
     15  N         21.7820  -22.1140  -11.0850 N.2     1  UNL1       -0.2430
     16  C         23.4090  -23.2000   -9.0700 C.3     1  UNL1        0.0360
     17  C         22.7690  -22.0990   -8.2290 C.3     1  UNL1        0.0100
     18  C         16.4400  -22.0210  -10.0400 C.3     1  UNL1        0.1190
     19  C         16.7750  -23.2260   -9.1500 C.3     1  UNL1        0.1580
     20  O         15.6470  -24.1010   -9.0300 O.3     1  UNL1       -0.3900
     21  H         14.8930  -23.5480   -8.7500 H       1  UNL1        0.2100
     22  C         17.1710  -22.7770   -7.7560 C.2     1  UNL1       -0.0290
     23  C         18.4970  -22.4140   -7.4610 C.2     1  UNL1        0.0110
     24  C         18.8580  -22.0320   -6.1670 C.2     1  UNL1        0.0190
     25  C         17.8970  -22.0090   -5.1600 C.2     1  UNL1        0.0110
     26 BR         18.3850  -21.4950   -3.4060 Br      1  UNL1       -0.0510
     27  C         16.5770  -22.3590   -5.4340 C.2     1  UNL1        0.0190
     28  C         16.2160  -22.7440   -6.7280 C.2     1  UNL1        0.0110
@<TRIPOS>BOND
     1     8     7    1
     2     8     9    2
     3     7     6    2
     4    10     9    1
     5    10    12    2
     6     9    11    1
     7     5     4    1
     8     5     1    1
     9     6     1    1
    10     6    15    1
    11    12    13    1
    12     4     3    1
    13     1     2    2
    14    11    15    2
    15    11    14    1
    16     3     2    2
    17     3    18    1
    18    13    14    2
    19    14    16    1
    20    18    19    1
    21    19    20    1
    22    19    22    1
    23    16    17    1
    24    20    21    1
    25    22    23    2
    26    22    28    1
    27    23    24    1
    28    28    27    2
    29    24    25    2
    30    27    25    1
    31    25    26    1
