@<TRIPOS>MOLECULE
33234_out_ligand_01.pdbqt
 34 37 0 0 0
SMALL
GASTEIGER

@<TRIPOS>ATOM
      1  C         20.9700  -23.2760   -9.6870 C.2     1  UNL1        0.0340
      2  C         20.5880  -24.0360   -8.5720 C.2     1  UNL1        0.0310
      3  C         19.2520  -24.0840   -8.1650 C.2     1  UNL1        0.0270
      4  C         18.2900  -23.3740   -8.8840 C.2     1  UNL1        0.0750
      5  C         18.6580  -22.5940   -9.9820 C.2     1  UNL1        0.0270
      6  C         19.9980  -22.5520  -10.3820 C.2     1  UNL1        0.0310
      7  N         22.3340  -23.2900  -10.0300 N.am    1  UNL1       -0.3250
      8  C         23.2780  -22.3000   -9.8180 C.2     1  UNL1        0.2460
      9  O         23.0970  -21.2180   -9.2690 O.2     1  UNL1       -0.2710
     10  H         22.6650  -24.0940  -10.5550 H       1  UNL1        0.1690
     11  C         24.6700  -22.6980  -10.3270 C.3     1  UNL1        0.2780
     12  O         24.8770  -22.4950  -11.7190 O.2     1  UNL1       -0.3410
     13  C         25.5200  -21.3520  -12.1360 C.2     1  UNL1        0.0800
     14  C         26.2030  -20.4780  -11.2860 C.2     1  UNL1        0.0370
     15  C         26.8050  -19.3280  -11.7950 C.2     1  UNL1        0.0040
     16  C         26.7280  -19.0400  -13.1550 C.2     1  UNL1        0.0120
     17  C         26.0470  -19.8970  -14.0300 C.2     1  UNL1       -0.0230
     18  C         25.9680  -19.6000  -15.4010 C.2     1  UNL1        0.0120
     19  C         25.4330  -21.0700  -13.5250 C.2     1  UNL1        0.0070
     20  C         25.2920  -20.4450  -16.2800 C.2     1  UNL1        0.0010
     21  C         24.6880  -21.6000  -15.8000 C.2     1  UNL1        0.0010
     22  C         24.7570  -21.9080  -14.4400 C.2     1  UNL1        0.0150
     23  S         16.5840  -23.4290   -8.3820 S.O2    1  UNL1        0.2450
     24  O         15.7650  -23.2560   -9.5620 O.2     1  UNL1       -0.2060
     25  O         16.4220  -24.5800   -7.5190 O.2     1  UNL1       -0.2060
     26  N         16.4290  -22.0650   -7.3930 N.pl3   1  UNL1       -0.1780
     27  H         15.7110  -21.4370   -7.7600 H       1  UNL1        0.1460
     28  C         16.4010  -22.2590   -5.9760 C.2     1  UNL1        0.0610
     29  C         15.2050  -22.5150   -5.3080 C.2     1  UNL1        0.0270
     30  C         15.2040  -22.6540   -3.9170 C.2     1  UNL1        0.0020
     31  C         16.3940  -22.5370   -3.1950 C.2     1  UNL1        0.0030
     32  C         17.5920  -22.2830   -3.8610 C.2     1  UNL1        0.0440
     33  C         17.5870  -22.1460   -5.2460 C.2     1  UNL1        0.1380
     34  F         18.7390  -21.8950   -5.8860 F       1  UNL1       -0.2040
@<TRIPOS>BOND
     1    20    21    1
     2    20    18    2
     3    21    22    2
     4    18    17    1
     5    22    19    1
     6    17    19    1
     7    17    16    2
     8    19    13    2
     9    16    15    1
    10    13    12    1
    11    13    14    1
    12    15    14    2
    13    12    11    1
    14    10     7    1
    15     6     5    1
    16     6     1    2
    17    11     8    1
    18     7     8   am
    19     7     1    1
    20     5     4    2
    21     8     9    2
    22     1     2    1
    23    24    23    2
    24     4    23    1
    25     4     3    1
    26     2     3    2
    27    23    25    2
    28    23    26    1
    29    27    26    1
    30    26    28    1
    31    28    29    2
    32    28    33    1
    33    34    33    1
    34    29    30    1
    35    33    32    2
    36    30    31    2
    37    32    31    1
