@<TRIPOS>MOLECULE
33231_out_ligand_01.pdbqt
 33 35 0 0 0
SMALL
GASTEIGER

@<TRIPOS>ATOM
      1  C         21.2200  -23.2500   -9.8210 C.2     1  UNL1        0.0340
      2  C         20.9120  -24.1900   -8.8270 C.2     1  UNL1        0.0310
      3  C         19.6080  -24.3120   -8.3380 C.2     1  UNL1        0.0270
      4  C         18.6030  -23.4920   -8.8540 C.2     1  UNL1        0.0800
      5  C         18.9000  -22.5360   -9.8270 C.2     1  UNL1        0.0270
      6  C         20.2070  -22.4220  -10.3120 C.2     1  UNL1        0.0310
      7  N         22.5550  -23.2000  -10.2590 N.am    1  UNL1       -0.3250
      8  C         23.4870  -22.1980  -10.0490 C.2     1  UNL1        0.2460
      9  O         23.3140  -21.1550   -9.4270 O.2     1  UNL1       -0.2710
     10  H         22.8720  -23.9590  -10.8550 H       1  UNL1        0.1690
     11  C         24.8520  -22.5230  -10.6700 C.3     1  UNL1        0.2780
     12  O         25.6260  -21.3860  -11.0350 O.2     1  UNL1       -0.3420
     13  C         25.6500  -21.0080  -12.3530 C.2     1  UNL1        0.0750
     14  C         25.0860  -21.7320  -13.4060 C.2     1  UNL1        0.0380
     15  C         25.1890  -21.2670  -14.7210 C.2     1  UNL1        0.0090
     16  C         25.8510  -20.0690  -15.0030 C.2     1  UNL1       -0.0610
     17  C         25.9880  -19.5890  -16.4170 C.3     1  UNL1        0.0480
     18  C         26.4330  -19.3540  -13.9500 C.2     1  UNL1        0.0160
     19  C         26.3360  -19.8110  -12.6250 C.2     1  UNL1       -0.0280
     20  C         26.9660  -19.0130  -11.5170 C.3     1  UNL1        0.0510
     21  S         16.9510  -23.6160   -8.2170 S.O2    1  UNL1        0.2630
     22  O         16.8910  -24.7510   -7.3230 O.2     1  UNL1       -0.2000
     23  O         16.0500  -23.5220   -9.3490 O.2     1  UNL1       -0.2000
     24  N         16.7570  -22.1760   -7.3630 N.pl3   1  UNL1       -0.2800
     25  H         16.0590  -21.5670   -7.7830 H       1  UNL1        0.1790
     26  C         16.8630  -22.1780   -5.9410 C.2     1  UNL1        0.0540
     27  C         15.7400  -22.4660   -5.1390 C.2     1  UNL1       -0.0340
     28  C         14.3780  -22.7710   -5.7010 C.3     1  UNL1        0.0500
     29  C         15.8930  -22.5100   -3.7440 C.2     1  UNL1        0.0090
     30  C         17.1230  -22.2350   -3.1530 C.2     1  UNL1        0.0010
     31  C         18.2140  -21.8950   -3.9490 C.2     1  UNL1        0.0090
     32  C         18.0940  -21.8430   -5.3460 C.2     1  UNL1       -0.0340
     33  C         19.3060  -21.4340   -6.1360 C.3     1  UNL1        0.0500
@<TRIPOS>BOND
     1    17    16    1
     2    16    15    2
     3    16    18    1
     4    15    14    1
     5    18    19    2
     6    14    13    2
     7    19    13    1
     8    19    20    1
     9    13    12    1
    10    12    11    1
    11    10     7    1
    12    11     8    1
    13     6     5    1
    14     6     1    2
    15     7     8   am
    16     7     1    1
    17     8     9    2
    18     5     4    2
    19     1     2    1
    20    23    21    2
    21     4     3    1
    22     4    21    1
    23     2     3    2
    24    21    24    1
    25    21    22    2
    26    25    24    1
    27    24    26    1
    28    33    32    1
    29    26    32    2
    30    26    27    1
    31    28    27    1
    32    32    31    1
    33    27    29    2
    34    31    30    2
    35    29    30    1
