@<TRIPOS>MOLECULE
33237_out_ligand_01.pdbqt
 33 35 0 0 0
SMALL
GASTEIGER

@<TRIPOS>ATOM
      1  C         21.1690  -23.1690   -9.8030 C.2     1  UNL1        0.0340
      2  C         20.1750  -22.3660  -10.3690 C.2     1  UNL1        0.0310
      3  C         18.8540  -22.4460   -9.9130 C.2     1  UNL1        0.0270
      4  C         18.5250  -23.3420   -8.8950 C.2     1  UNL1        0.0800
      5  C         19.5110  -24.1340   -8.3050 C.2     1  UNL1        0.0270
      6  C         20.8280  -24.0470   -8.7640 C.2     1  UNL1        0.0310
      7  N         22.5150  -23.1500  -10.2080 N.am    1  UNL1       -0.3250
      8  C         23.4400  -22.1330  -10.0550 C.2     1  UNL1        0.2460
      9  O         23.2530  -21.0440   -9.5200 O.2     1  UNL1       -0.2710
     10  H         22.8480  -23.9540  -10.7330 H       1  UNL1        0.1690
     11  C         24.8190  -22.5010  -10.6190 C.3     1  UNL1        0.2780
     12  O         25.6320  -21.3900  -10.9780 O.2     1  UNL1       -0.3420
     13  C         25.6200  -20.9660  -12.2830 C.2     1  UNL1        0.0750
     14  C         26.2590  -19.7360  -12.5230 C.2     1  UNL1       -0.0290
     15  C         26.3270  -19.2400  -13.8320 C.2     1  UNL1        0.0100
     16  C         26.8740  -18.9520  -11.3970 C.3     1  UNL1        0.0510
     17  C         25.7650  -19.9520  -14.8920 C.2     1  UNL1        0.0070
     18  C         25.1200  -21.1690  -14.6590 C.2     1  UNL1       -0.0590
     19  C         24.5480  -21.9540  -15.8030 C.3     1  UNL1        0.0480
     20  C         25.0640  -21.6770  -13.3520 C.2     1  UNL1        0.0440
     21  S         16.8560  -23.4230   -8.3000 S.O2    1  UNL1        0.2630
     22  O         16.7200  -24.6100   -7.4830 O.2     1  UNL1       -0.2000
     23  O         15.9850  -23.2090   -9.4380 O.2     1  UNL1       -0.2000
     24  N         16.7150  -22.0350   -7.3540 N.pl3   1  UNL1       -0.2800
     25  H         16.0430  -21.3720   -7.7350 H       1  UNL1        0.1790
     26  C         16.8110  -22.1340   -5.9350 C.2     1  UNL1        0.0540
     27  C         15.6820  -22.4710   -5.1620 C.2     1  UNL1       -0.0340
     28  C         14.3230  -22.7320   -5.7500 C.3     1  UNL1        0.0500
     29  C         15.8280  -22.6100   -3.7720 C.2     1  UNL1        0.0090
     30  C         17.0550  -22.3810   -3.1560 C.2     1  UNL1        0.0010
     31  C         18.1520  -21.9950   -3.9200 C.2     1  UNL1        0.0090
     32  C         18.0410  -21.8450   -5.3120 C.2     1  UNL1       -0.0340
     33  C         19.2600  -21.3890   -6.0640 C.3     1  UNL1        0.0500
@<TRIPOS>BOND
     1    19    18    1
     2    17    18    2
     3    17    15    1
     4    18    20    1
     5    15    14    2
     6    20    13    2
     7    14    13    1
     8    14    16    1
     9    13    12    1
    10    12    11    1
    11    10     7    1
    12    11     8    1
    13     2     3    1
    14     2     1    2
    15     7     8   am
    16     7     1    1
    17     8     9    2
    18     3     4    2
    19     1     6    1
    20    23    21    2
    21     4     5    1
    22     4    21    1
    23     6     5    2
    24    21    22    2
    25    21    24    1
    26    25    24    1
    27    24    26    1
    28    33    32    1
    29    26    32    2
    30    26    27    1
    31    28    27    1
    32    32    31    1
    33    27    29    2
    34    31    30    2
    35    29    30    1
