@<TRIPOS>MOLECULE
3326_out_ligand_01.pdbqt
 37 39 0 0 0
SMALL
GASTEIGER

@<TRIPOS>ATOM
      1  N         21.7460  -23.1680   -9.9880 N.am    1  UNL1       -0.2620
      2  C         21.0430  -22.6590  -11.0660 C.2     1  UNL1        0.2700
      3  O         21.5670  -22.5090  -12.1670 O.2     1  UNL1       -0.2660
      4  H         21.4740  -22.9300   -9.0350 H       1  UNL1        0.1900
      5  N         23.1480  -23.2910  -10.1680 N.am    1  UNL1       -0.2490
      6  C         23.8550  -22.1050  -10.1940 C.2     1  UNL1        0.3350
      7  O         23.3630  -21.0280   -9.8710 O.2     1  UNL1       -0.2460
      8  N         25.1450  -22.2810  -10.6160 N.am    1  UNL1       -0.3380
      9  H         25.5230  -23.2150  -10.5370 H       1  UNL1        0.1640
     10  H         23.3920  -23.9790  -10.8810 H       1  UNL1        0.1920
     11  C         26.0890  -21.1870  -10.6470 C.3     1  UNL1        0.1620
     12  C         26.2170  -20.6110  -12.0360 C.2     1  UNL1       -0.0400
     13  C         26.8690  -19.3850  -12.2350 C.2     1  UNL1        0.0090
     14  C         26.9880  -18.8460  -13.5160 C.2     1  UNL1        0.0010
     15  C         26.4500  -19.5200  -14.6120 C.2     1  UNL1        0.0160
     16  C         25.7910  -20.7470  -14.4400 C.2     1  UNL1        0.0480
     17  C         25.6880  -21.2860  -13.1460 C.2     1  UNL1        0.0250
     18  C         25.2310  -21.4950  -15.6250 C.3     1  UNL1        0.4170
     19  F         26.2030  -22.1170  -16.3490 F       1  UNL1       -0.1660
     20  F         24.5630  -20.6970  -16.5040 F       1  UNL1       -0.1660
     21  F         24.3500  -22.4710  -15.2670 F       1  UNL1       -0.1660
     22  C         19.6280  -22.2570  -10.8270 C.2     1  UNL1        0.0340
     23  C         18.9470  -21.3620  -11.6620 C.2     1  UNL1        0.0170
     24  C         17.6210  -21.0120  -11.3870 C.2     1  UNL1        0.0020
     25  C         16.9680  -21.5520  -10.2770 C.2     1  UNL1        0.0170
     26  C         17.6410  -22.4480   -9.4380 C.2     1  UNL1        0.0330
     27  C         18.9730  -22.7870   -9.7060 C.2     1  UNL1        0.0340
     28  C         16.9880  -23.0280   -8.2310 C.2     1  UNL1        0.2560
     29  O         16.2560  -23.9990   -8.3830 O.2     1  UNL1       -0.2670
     30  N         17.2650  -22.3700   -7.0460 N.am    1  UNL1       -0.3230
     31  H         17.7950  -21.5110   -7.1080 H       1  UNL1        0.1690
     32  C         16.8140  -22.7110   -5.7530 C.2     1  UNL1        0.0350
     33  C         15.5400  -22.4100   -5.2660 C.2     1  UNL1        0.0290
     34  C         15.1700  -22.7870   -3.9690 C.2     1  UNL1        0.0020
     35  C         16.0680  -23.4730   -3.1540 C.2     1  UNL1        0.0000
     36  C         17.3360  -23.7850   -3.6330 C.2     1  UNL1        0.0020
     37  C         17.7080  -23.4060   -4.9260 C.2     1  UNL1        0.0290
@<TRIPOS>BOND
     1    20    18    1
     2    19    18    1
     3    18    21    1
     4    18    16    1
     5    15    16    2
     6    15    14    1
     7    16    17    1
     8    14    13    2
     9    17    12    2
    10    13    12    1
    11     3     2    2
    12    12    11    1
    13    23    24    1
    14    23    22    2
    15    24    25    2
    16     2    22    1
    17     2     1   am
    18    10     5    1
    19    22    27    1
    20    11     8    1
    21     8     9    1
    22     8     6   am
    23    25    26    1
    24     6     5   am
    25     6     7    2
    26     5     1    1
    27     1     4    1
    28    27    26    2
    29    26    28    1
    30    29    28    2
    31    28    30   am
    32    31    30    1
    33    30    32    1
    34    32    33    2
    35    32    37    1
    36    33    34    1
    37    37    36    2
    38    34    35    2
    39    36    35    1
