@<TRIPOS>MOLECULE
33265_out_ligand_01.pdbqt
 32 34 0 0 0
SMALL
GASTEIGER

@<TRIPOS>ATOM
      1  C         18.5960  -23.4050   -8.9430 C.2     1  UNL1        0.0800
      2  C         18.7960  -22.4750   -9.9640 C.2     1  UNL1        0.0270
      3  C         20.0680  -22.3290  -10.5220 C.2     1  UNL1        0.0310
      4  C         21.1460  -23.0970  -10.0600 C.2     1  UNL1        0.0340
      5  C         20.9370  -23.9990   -9.0120 C.2     1  UNL1        0.0310
      6  C         19.6670  -24.1510   -8.4460 C.2     1  UNL1        0.0270
      7  S         16.9800  -23.5870   -8.2240 S.O2    1  UNL1        0.2630
      8  O         16.0180  -23.5570   -9.3070 O.2     1  UNL1       -0.2000
      9  O         17.0340  -24.7120   -7.3150 O.2     1  UNL1       -0.2000
     10  N         16.7410  -22.1540   -7.3630 N.pl3   1  UNL1       -0.2800
     11  H         17.0600  -21.3360   -7.8780 H       1  UNL1        0.1790
     12  C         16.8600  -22.1400   -5.9410 C.2     1  UNL1        0.0540
     13  C         18.0980  -21.8210   -5.3430 C.2     1  UNL1       -0.0340
     14  C         18.2190  -21.9020   -3.9450 C.2     1  UNL1        0.0090
     15  C         19.3240  -21.4070   -6.1090 C.3     1  UNL1        0.0500
     16  C         17.1380  -22.2750   -3.1530 C.2     1  UNL1        0.0010
     17  C         15.9120  -22.5540   -3.7460 C.2     1  UNL1        0.0090
     18  C         15.7510  -22.4730   -5.1390 C.2     1  UNL1       -0.0340
     19  C         14.3820  -22.7510   -5.6990 C.3     1  UNL1        0.0500
     20  N         22.3890  -22.8960  -10.6850 N.am    1  UNL1       -0.3250
     21  C         23.3400  -21.9300  -10.4010 C.2     1  UNL1        0.2510
     22  O         23.2660  -21.0610   -9.5370 O.2     1  UNL1       -0.2700
     23  H         22.6800  -23.5950  -11.3630 H       1  UNL1        0.1690
     24  C         24.5600  -22.0080  -11.3400 C.3     1  UNL1        0.2170
     25  C         25.6390  -21.0740  -10.8020 C.3     1  UNL1        0.0500
     26  O         24.2660  -21.5760  -12.6700 O.2     1  UNL1       -0.3370
     27  C         24.5450  -22.4270  -13.7050 C.2     1  UNL1        0.0700
     28  C         24.4490  -22.1350  -15.0650 C.2     1  UNL1        0.0370
     29  C         24.7860  -23.1040  -16.0160 C.2     1  UNL1        0.0030
     30  C         25.2190  -24.3650  -15.6130 C.2     1  UNL1        0.0000
     31  C         25.3190  -24.6610  -14.2570 C.2     1  UNL1        0.0030
     32  C         24.9840  -23.6940  -13.3080 C.2     1  UNL1        0.0370
@<TRIPOS>BOND
     1    29    30    2
     2    29    28    1
     3    30    31    1
     4    28    27    2
     5    31    32    2
     6    27    32    1
     7    27    26    1
     8    26    24    1
     9    23    20    1
    10    24    25    1
    11    24    21    1
    12    20    21   am
    13    20     4    1
    14     3     4    2
    15     3     2    1
    16    21    22    2
    17     4     5    1
    18     2     1    2
    19     8     7    2
    20     5     6    2
    21     1     6    1
    22     1     7    1
    23     7    10    1
    24     7     9    2
    25    11    10    1
    26    10    12    1
    27    15    13    1
    28    12    13    2
    29    12    18    1
    30    19    18    1
    31    13    14    1
    32    18    17    2
    33    14    16    2
    34    17    16    1
