@<TRIPOS>MOLECULE
33262_out_ligand_01.pdbqt
 34 37 0 0 0
SMALL
GASTEIGER

@<TRIPOS>ATOM
      1  C         20.8760  -22.6080  -10.7470 C.2     1  UNL1        0.0340
      2  C         20.6300  -23.5820   -9.7700 C.2     1  UNL1        0.0310
      3  C         19.3500  -23.7460   -9.2330 C.2     1  UNL1        0.0270
      4  C         18.3110  -22.9230   -9.6720 C.2     1  UNL1        0.0800
      5  C         18.5320  -21.9790  -10.6760 C.2     1  UNL1        0.0270
      6  C         19.8160  -21.8190  -11.2050 C.2     1  UNL1        0.0310
      7  S         16.6890  -23.0920   -8.9650 S.O2    1  UNL1        0.2630
      8  O         16.2940  -21.7890   -8.4680 O.2     1  UNL1       -0.2000
      9  O         15.8620  -23.8130   -9.9090 O.2     1  UNL1       -0.2000
     10  N         16.9560  -24.0490   -7.6000 N.pl3   1  UNL1       -0.2800
     11  H         16.8200  -25.0410   -7.7820 H       1  UNL1        0.1790
     12  C         16.5880  -23.5440   -6.3140 C.2     1  UNL1        0.0530
     13  C         15.4230  -24.0490   -5.7280 C.2     1  UNL1        0.0310
     14  C         15.0350  -23.6260   -4.4620 C.2     1  UNL1        0.0030
     15  C         15.8170  -22.7010   -3.7710 C.2     1  UNL1        0.0120
     16  C         16.9970  -22.1900   -4.3330 C.2     1  UNL1       -0.0240
     17  C         17.7790  -21.2700   -3.6150 C.2     1  UNL1        0.0120
     18  C         17.4020  -22.6060   -5.6260 C.2     1  UNL1        0.0010
     19  C         18.9610  -20.7600   -4.1480 C.2     1  UNL1        0.0010
     20  C         19.3750  -21.1590   -5.4120 C.2     1  UNL1        0.0010
     21  C         18.6050  -22.0660   -6.1440 C.2     1  UNL1        0.0140
     22  N         22.1950  -22.4920  -11.2170 N.am    1  UNL1       -0.3250
     23  C         23.2470  -21.8040  -10.6350 C.2     1  UNL1        0.2510
     24  O         23.2130  -21.1620   -9.5890 O.2     1  UNL1       -0.2700
     25  H         22.4510  -23.0620  -12.0190 H       1  UNL1        0.1690
     26  C         24.5370  -21.8770  -11.4720 C.3     1  UNL1        0.2170
     27  C         25.5720  -20.9540  -10.8340 C.3     1  UNL1        0.0500
     28  O         24.3560  -21.4240  -12.8150 O.2     1  UNL1       -0.3370
     29  C         24.5850  -22.3120  -13.8300 C.2     1  UNL1        0.0700
     30  C         24.3860  -22.0790  -15.1910 C.2     1  UNL1        0.0370
     31  C         24.6710  -23.0840  -16.1230 C.2     1  UNL1        0.0030
     32  C         25.1550  -24.3220  -15.6990 C.2     1  UNL1        0.0000
     33  C         25.3670  -24.5540  -14.3420 C.2     1  UNL1        0.0030
     34  C         25.0850  -23.5490  -13.4130 C.2     1  UNL1        0.0370
@<TRIPOS>BOND
     1    31    32    2
     2    31    30    1
     3    32    33    1
     4    30    29    2
     5    33    34    2
     6    29    34    1
     7    29    28    1
     8    28    26    1
     9    25    22    1
    10    26    27    1
    11    26    23    1
    12    22     1    1
    13    22    23   am
    14     6     1    2
    15     6     5    1
    16     1     2    1
    17     5     4    2
    18    23    24    2
    19     9     7    2
    20     2     3    2
    21     4     3    1
    22     4     7    1
    23     7     8    2
    24     7    10    1
    25    11    10    1
    26    10    12    1
    27    12    13    2
    28    12    18    1
    29    21    18    1
    30    21    20    2
    31    13    14    1
    32    18    16    2
    33    20    19    1
    34    14    15    2
    35    16    15    1
    36    16    17    1
    37    19    17    2
