@<TRIPOS>MOLECULE
33297_out_ligand_01.pdbqt
 29 31 0 0 0
SMALL
GASTEIGER

@<TRIPOS>ATOM
      1  C         19.4860  -22.5790  -10.1160 C.2     1  UNL1        0.0330
      2  C         18.8870  -21.7900  -11.1070 C.2     1  UNL1        0.0170
      3  C         17.5200  -21.5090  -11.0490 C.2     1  UNL1        0.0030
      4  C         16.7440  -22.0260  -10.0110 C.2     1  UNL1        0.0250
      5  C         17.3420  -22.8340   -9.0390 C.2     1  UNL1        0.0800
      6  C         18.7120  -23.1060   -9.0780 C.2     1  UNL1        0.0420
      7  C         20.9330  -22.9230  -10.1590 C.2     1  UNL1        0.2560
      8  O         21.3100  -23.8940   -9.5140 O.2     1  UNL1       -0.2670
      9  N         21.7120  -22.0680  -10.9160 N.am    1  UNL1       -0.3230
     10  H         21.2580  -21.2400  -11.2830 H       1  UNL1        0.1690
     11  C         23.0980  -22.1700  -11.1630 C.2     1  UNL1        0.0360
     12  C         24.0730  -21.4820  -10.4340 C.2     1  UNL1        0.0320
     13  C         25.4300  -21.6400  -10.7350 C.2     1  UNL1        0.0460
     14  C         25.8160  -22.4880  -11.7660 C.2     1  UNL1        0.1380
     15  F         27.1210  -22.6250  -12.0370 F       1  UNL1       -0.2040
     16  C         24.8570  -23.1810  -12.4980 C.2     1  UNL1        0.0740
     17 CL         25.3230  -24.2380  -13.7760 Cl      1  UNL1       -0.0810
     18  C         23.5010  -23.0250  -12.1990 C.2     1  UNL1        0.0560
     19  S         16.3640  -23.5180   -7.7210 S.O2    1  UNL1        0.2630
     20  O         15.6100  -22.4260   -7.1420 O.2     1  UNL1       -0.2000
     21  O         15.7020  -24.7030   -8.2210 O.2     1  UNL1       -0.2000
     22  N         17.5240  -23.9600   -6.5770 N.pl3   1  UNL1       -0.2810
     23  H         17.5040  -24.9580   -6.3760 H       1  UNL1        0.1790
     24  C         17.8150  -23.0740   -5.5020 C.2     1  UNL1        0.0420
     25  C         17.4350  -23.3790   -4.1960 C.2     1  UNL1        0.0300
     26  C         17.7620  -22.5090   -3.1540 C.2     1  UNL1        0.0020
     27  C         18.4680  -21.3370   -3.4180 C.2     1  UNL1        0.0000
     28  C         18.8470  -21.0300   -4.7260 C.2     1  UNL1        0.0020
     29  C         18.5190  -21.8980   -5.7690 C.2     1  UNL1        0.0300
@<TRIPOS>BOND
     1    17    16    1
     2    16    18    1
     3    16    14    2
     4    18    11    2
     5    15    14    1
     6    14    13    1
     7    10     9    1
     8    11     9    1
     9    11    12    1
    10     2     3    1
    11     2     1    2
    12     3     4    2
    13     9     7   am
    14    13    12    2
    15     7     1    1
    16     7     8    2
    17     1     6    1
    18     4     5    1
    19     6     5    2
    20     5    19    1
    21    21    19    2
    22    19    20    2
    23    19    22    1
    24    22    23    1
    25    22    24    1
    26    29    24    2
    27    29    28    1
    28    24    25    1
    29    28    27    2
    30    25    26    2
    31    27    26    1
