@<TRIPOS>MOLECULE
33299_out_ligand_01.pdbqt
 29 31 0 0 0
SMALL
GASTEIGER

@<TRIPOS>ATOM
      1  C         19.3690  -22.4890  -10.2620 C.2     1  UNL1        0.0330
      2  C         18.7160  -21.6960  -11.2170 C.2     1  UNL1        0.0170
      3  C         17.3480  -21.4370  -11.0970 C.2     1  UNL1        0.0030
      4  C         16.6250  -21.9790  -10.0350 C.2     1  UNL1        0.0250
      5  C         17.2740  -22.7960   -9.1030 C.2     1  UNL1        0.0800
      6  C         18.6450  -23.0460   -9.2040 C.2     1  UNL1        0.0420
      7  C         20.8240  -22.7860  -10.3640 C.2     1  UNL1        0.2560
      8  O         21.2430  -23.8100   -9.8390 O.2     1  UNL1       -0.2670
      9  N         21.5650  -21.8280  -11.0320 N.am    1  UNL1       -0.3230
     10  H         21.0830  -20.9770  -11.2920 H       1  UNL1        0.1690
     11  C         22.9490  -21.8620  -11.3100 C.2     1  UNL1        0.0380
     12  C         23.9430  -21.5810  -10.3650 C.2     1  UNL1        0.0320
     13  C         25.2970  -21.6410  -10.7160 C.2     1  UNL1        0.0480
     14  C         25.6580  -21.9870  -12.0120 C.2     1  UNL1        0.1540
     15  F         26.9540  -22.0470  -12.3440 F       1  UNL1       -0.2030
     16  C         24.6790  -22.2710  -12.9530 C.2     1  UNL1        0.1570
     17  F         25.0220  -22.6080  -14.2040 F       1  UNL1       -0.2030
     18  C         23.3290  -22.2130  -12.6120 C.2     1  UNL1        0.0750
     19  S         16.3510  -23.4750   -7.7390 S.O2    1  UNL1        0.2630
     20  O         15.5210  -22.4220   -7.1960 O.2     1  UNL1       -0.2000
     21  O         15.7710  -24.7220   -8.1950 O.2     1  UNL1       -0.2000
     22  N         17.5490  -23.8960   -6.6320 N.pl3   1  UNL1       -0.2810
     23  H         18.3170  -24.4040   -7.0640 H       1  UNL1        0.1790
     24  C         17.8490  -23.0250   -5.5490 C.2     1  UNL1        0.0420
     25  C         18.5080  -21.8140   -5.7560 C.2     1  UNL1        0.0300
     26  C         18.8290  -21.0000   -4.6690 C.2     1  UNL1        0.0020
     27  C         18.4860  -21.3940   -3.3760 C.2     1  UNL1        0.0000
     28  C         17.8170  -22.5990   -3.1680 C.2     1  UNL1        0.0020
     29  C         17.4960  -23.4150   -4.2550 C.2     1  UNL1        0.0300
@<TRIPOS>BOND
     1    17    16    1
     2    16    18    1
     3    16    14    2
     4    18    11    2
     5    15    14    1
     6    14    13    1
     7    11     9    1
     8    11    12    1
     9    10     9    1
    10     2     3    1
    11     2     1    2
    12     3     4    2
    13     9     7   am
    14    13    12    2
    15     7     1    1
    16     7     8    2
    17     1     6    1
    18     4     5    1
    19     6     5    2
    20     5    19    1
    21    21    19    2
    22    19    20    2
    23    19    22    1
    24    23    22    1
    25    22    24    1
    26    25    24    2
    27    25    26    1
    28    24    29    1
    29    26    27    2
    30    29    28    2
    31    27    28    1
