@<TRIPOS>MOLECULE
33298_out_ligand_01.pdbqt
 31 34 0 0 0
SMALL
GASTEIGER

@<TRIPOS>ATOM
      1  C         19.1840  -22.4860  -10.2350 C.2     1  UNL1        0.0330
      2  C         18.5120  -21.6460  -11.1350 C.2     1  UNL1        0.0170
      3  C         17.1450  -21.4010  -10.9780 C.2     1  UNL1        0.0030
      4  C         16.4490  -21.9810   -9.9170 C.2     1  UNL1        0.0250
      5  C         17.1290  -22.7980   -9.0100 C.2     1  UNL1        0.0800
      6  C         18.4920  -23.0650   -9.1670 C.2     1  UNL1        0.0420
      7  C         20.6450  -22.7450  -10.3500 C.2     1  UNL1        0.2560
      8  O         21.0900  -23.7460   -9.8020 O.2     1  UNL1       -0.2670
      9  N         21.3410  -21.8200  -11.1050 N.am    1  UNL1       -0.3230
     10  H         20.7950  -21.1200  -11.5920 H       1  UNL1        0.1690
     11  C         22.7290  -21.7890  -11.3520 C.2     1  UNL1        0.0370
     12  C         23.6980  -21.6750  -10.3510 C.2     1  UNL1        0.0320
     13  C         25.0580  -21.6370  -10.6780 C.2     1  UNL1        0.0420
     14  C         25.4580  -21.7080  -12.0080 C.2     1  UNL1        0.1020
     15  C         24.4990  -21.8460  -13.0130 C.2     1  UNL1        0.1040
     16  O         26.8050  -21.6430  -12.2550 O.2     1  UNL1       -0.3460
     17  C         23.1420  -21.8700  -12.6890 C.2     1  UNL1        0.0690
     18  O         24.8150  -21.9550  -14.3440 O.2     1  UNL1       -0.3460
     19  C         26.2030  -22.2650  -14.5240 C.3     1  UNL1        0.2020
     20  C         27.0690  -21.3850  -13.6390 C.3     1  UNL1        0.2020
     21  S         16.2630  -23.5230   -7.6360 S.O2    1  UNL1        0.2630
     22  O         15.7140  -24.7800   -8.0970 O.2     1  UNL1       -0.2000
     23  O         15.4170  -22.5060   -7.0510 O.2     1  UNL1       -0.2000
     24  N         17.5090  -23.9070   -6.5620 N.pl3   1  UNL1       -0.2810
     25  H         18.2830  -24.3760   -7.0280 H       1  UNL1        0.1790
     26  C         17.8210  -23.0020   -5.5090 C.2     1  UNL1        0.0420
     27  C         18.5370  -21.8320   -5.7540 C.2     1  UNL1        0.0300
     28  C         18.8600  -20.9780   -4.6990 C.2     1  UNL1        0.0020
     29  C         18.4680  -21.2950   -3.3980 C.2     1  UNL1        0.0000
     30  C         17.7480  -22.4640   -3.1530 C.2     1  UNL1        0.0020
     31  C         17.4220  -23.3180   -4.2080 C.2     1  UNL1        0.0300
@<TRIPOS>BOND
     1    19    18    1
     2    19    20    1
     3    18    15    1
     4    20    16    1
     5    15    17    1
     6    15    14    2
     7    17    11    2
     8    16    14    1
     9    14    13    1
    10    10     9    1
    11    11     9    1
    12    11    12    1
    13     2     3    1
    14     2     1    2
    15     9     7   am
    16     3     4    2
    17    13    12    2
    18     7     1    1
    19     7     8    2
    20     1     6    1
    21     4     5    1
    22     6     5    2
    23     5    21    1
    24    22    21    2
    25    21    23    2
    26    21    24    1
    27    25    24    1
    28    24    26    1
    29    27    26    2
    30    27    28    1
    31    26    31    1
    32    28    29    2
    33    31    30    2
    34    29    30    1
