@<TRIPOS>MOLECULE
33292_out_ligand_01.pdbqt
 29 31 0 0 0
SMALL
GASTEIGER

@<TRIPOS>ATOM
      1  C         19.1070  -22.4300  -10.3380 C.2     1  UNL1        0.0330
      2  C         18.4070  -21.5830  -11.2100 C.2     1  UNL1        0.0170
      3  C         17.0430  -21.3510  -11.0140 C.2     1  UNL1        0.0030
      4  C         16.3780  -21.9490   -9.9440 C.2     1  UNL1        0.0250
      5  C         17.0870  -22.7720   -9.0640 C.2     1  UNL1        0.0800
      6  C         18.4480  -23.0270   -9.2610 C.2     1  UNL1        0.0420
      7  C         20.5660  -22.6770  -10.4960 C.2     1  UNL1        0.2560
      8  N         21.2070  -21.8240  -11.3740 N.am    1  UNL1       -0.3230
      9  H         20.6250  -21.1870  -11.9020 H       1  UNL1        0.1690
     10  O         21.0560  -23.6090   -9.8710 O.2     1  UNL1       -0.2670
     11  C         22.5820  -21.7980  -11.6880 C.2     1  UNL1        0.0350
     12  C         22.9290  -21.7790  -13.0470 C.2     1  UNL1        0.0370
     13  C         24.2730  -21.7470  -13.4650 C.2     1  UNL1       -0.0430
     14  C         24.5850  -21.7320  -14.9350 C.3     1  UNL1        0.0490
     15  C         25.2760  -21.7310  -12.4860 C.2     1  UNL1        0.0170
     16  C         24.9390  -21.7460  -11.1320 C.2     1  UNL1        0.0220
     17 BR         27.1210  -21.6870  -12.9330 Br      1  UNL1       -0.0510
     18  C         23.5990  -21.7780  -10.7350 C.2     1  UNL1        0.0310
     19  S         16.2620  -23.5240   -7.6800 S.O2    1  UNL1        0.2630
     20  O         15.4210  -22.5220   -7.0610 O.2     1  UNL1       -0.2000
     21  O         15.7120  -24.7800   -8.1450 O.2     1  UNL1       -0.2000
     22  N         17.5370  -23.9110   -6.6430 N.pl3   1  UNL1       -0.2810
     23  H         18.3140  -24.3430   -7.1380 H       1  UNL1        0.1790
     24  C         17.8430  -23.0380   -5.5620 C.2     1  UNL1        0.0420
     25  C         18.5520  -21.8550   -5.7710 C.2     1  UNL1        0.0300
     26  C         18.8710  -21.0330   -4.6900 C.2     1  UNL1        0.0020
     27  C         18.4820  -21.3930   -3.4000 C.2     1  UNL1        0.0000
     28  C         17.7710  -22.5740   -3.1900 C.2     1  UNL1        0.0020
     29  C         17.4490  -23.3970   -4.2720 C.2     1  UNL1        0.0300
@<TRIPOS>BOND
     1    14    13    1
     2    13    12    1
     3    13    15    2
     4    12    11    2
     5    17    15    1
     6    15    16    1
     7     9     8    1
     8    11     8    1
     9    11    18    1
    10     8     7   am
    11     2     3    1
    12     2     1    2
    13    16    18    2
    14     3     4    2
    15     7     1    1
    16     7    10    2
    17     1     6    1
    18     4     5    1
    19     6     5    2
    20     5    19    1
    21    21    19    2
    22    19    20    2
    23    19    22    1
    24    23    22    1
    25    22    24    1
    26    25    24    2
    27    25    26    1
    28    24    29    1
    29    26    27    2
    30    29    28    2
    31    27    28    1
