@<TRIPOS>MOLECULE
33290_out_ligand_01.pdbqt
 29 31 0 0 0
SMALL
GASTEIGER

@<TRIPOS>ATOM
      1  C         19.2920  -22.5080  -10.2800 C.2     1  UNL1        0.0330
      2  C         18.6260  -21.6780  -11.1930 C.2     1  UNL1        0.0170
      3  C         17.2590  -21.4280  -11.0460 C.2     1  UNL1        0.0030
      4  C         16.5560  -21.9920   -9.9820 C.2     1  UNL1        0.0250
      5  C         17.2320  -22.7940   -9.0550 C.2     1  UNL1        0.0800
      6  C         18.5950  -23.0650   -9.2040 C.2     1  UNL1        0.0420
      7  C         20.7490  -22.7880  -10.4060 C.2     1  UNL1        0.2560
      8  N         21.4390  -21.8920  -11.2010 N.am    1  UNL1       -0.3230
      9  H         20.8900  -21.2090  -11.7080 H       1  UNL1        0.1690
     10  O         21.1970  -23.7730   -9.8350 O.2     1  UNL1       -0.2670
     11  C         22.8240  -21.8750  -11.4700 C.2     1  UNL1        0.0350
     12  C         23.6780  -21.5910  -10.4000 C.2     1  UNL1        0.0300
     13  C         25.0630  -21.5620  -10.5810 C.2     1  UNL1        0.0090
     14  C         25.6260  -21.8180  -11.8380 C.2     1  UNL1       -0.0560
     15  C         27.1210  -21.7770  -12.0010 C.3     1  UNL1        0.0490
     16  C         24.7760  -22.1080  -12.9220 C.2     1  UNL1       -0.0540
     17  C         23.3820  -22.1340  -12.7230 C.2     1  UNL1        0.0370
     18  C         25.3250  -22.3920  -14.2940 C.3     1  UNL1        0.0490
     19  S         16.3300  -23.5220   -7.7040 S.O2    1  UNL1        0.2630
     20  O         15.5840  -22.4570   -7.0650 O.2     1  UNL1       -0.2000
     21  O         15.6620  -24.7050   -8.1980 O.2     1  UNL1       -0.2000
     22  N         17.5430  -23.9550   -6.6160 N.pl3   1  UNL1       -0.2810
     23  H         17.5540  -24.9560   -6.4260 H       1  UNL1        0.1790
     24  C         17.8910  -23.0710   -5.5570 C.2     1  UNL1        0.0420
     25  C         18.5730  -21.8820   -5.8070 C.2     1  UNL1        0.0300
     26  C         18.8610  -21.0100   -4.7550 C.2     1  UNL1        0.0020
     27  C         18.4710  -21.3310   -3.4570 C.2     1  UNL1        0.0000
     28  C         17.7990  -22.5260   -3.2040 C.2     1  UNL1        0.0020
     29  C         17.5100  -23.3980   -4.2550 C.2     1  UNL1        0.0300
@<TRIPOS>BOND
     1    18    16    1
     2    16    17    1
     3    16    14    2
     4    17    11    2
     5    15    14    1
     6    14    13    1
     7     9     8    1
     8    11     8    1
     9    11    12    1
    10     8     7   am
    11     2     3    1
    12     2     1    2
    13     3     4    2
    14    13    12    2
    15     7     1    1
    16     7    10    2
    17     1     6    1
    18     4     5    1
    19     6     5    2
    20     5    19    1
    21    21    19    2
    22    19    20    2
    23    19    22    1
    24    22    23    1
    25    22    24    1
    26    25    24    2
    27    25    26    1
    28    24    29    1
    29    26    27    2
    30    29    28    2
    31    27    28    1
