@<TRIPOS>MOLECULE
33319_out_ligand_01.pdbqt
 28 30 0 0 0
SMALL
GASTEIGER

@<TRIPOS>ATOM
      1  C         17.9130  -22.5360   -9.8460 C.2     1  UNL1        0.0800
      2  C         17.4840  -21.6260  -10.8180 C.2     1  UNL1        0.0250
      3  C         18.4120  -21.0720  -11.6990 C.2     1  UNL1        0.0030
      4  C         19.7580  -21.4340  -11.6180 C.2     1  UNL1        0.0170
      5  C         20.1780  -22.3700  -10.6610 C.2     1  UNL1        0.0330
      6  C         19.2520  -22.9250   -9.7720 C.2     1  UNL1        0.0420
      7  S         16.7420  -23.2410   -8.7070 S.O2    1  UNL1        0.2630
      8  O         15.5370  -23.5560   -9.4440 O.2     1  UNL1       -0.2000
      9  O         17.4410  -24.2590   -7.9520 O.2     1  UNL1       -0.2000
     10  N         16.4390  -21.9760   -7.6330 N.pl3   1  UNL1       -0.2800
     11  H         15.7980  -21.2870   -8.0220 H       1  UNL1        0.1790
     12  C         16.3950  -22.2220   -6.2290 C.2     1  UNL1        0.0480
     13  C         15.1970  -22.6310   -5.6340 C.2     1  UNL1        0.0300
     14  C         15.1300  -22.8550   -4.2590 C.2     1  UNL1        0.0020
     15  C         16.2630  -22.6810   -3.4720 C.2     1  UNL1        0.0010
     16  C         17.4660  -22.2890   -4.0610 C.2     1  UNL1        0.0090
     17  C         17.5500  -22.0590   -5.4440 C.2     1  UNL1       -0.0350
     18  C         18.8740  -21.6590   -6.0350 C.3     1  UNL1        0.0500
     19  C         21.6070  -22.7570  -10.5230 C.2     1  UNL1        0.2560
     20  O         21.8920  -23.5870   -9.6700 O.2     1  UNL1       -0.2670
     21  N         22.4620  -22.1380  -11.4150 N.am    1  UNL1       -0.3230
     22  H         22.0410  -21.5700  -12.1380 H       1  UNL1        0.1690
     23  C         23.8630  -22.2790  -11.4930 C.2     1  UNL1        0.0350
     24  C         24.7690  -21.5010  -10.7700 C.2     1  UNL1        0.0290
     25  C         26.1460  -21.7010  -10.9110 C.2     1  UNL1        0.0020
     26  C         26.6290  -22.6790  -11.7760 C.2     1  UNL1        0.0000
     27  C         25.7360  -23.4590  -12.5050 C.2     1  UNL1        0.0020
     28  C         24.3600  -23.2590  -12.3650 C.2     1  UNL1        0.0290
@<TRIPOS>BOND
     1    27    28    1
     2    27    26    2
     3    28    23    2
     4    22    21    1
     5    26    25    1
     6     3     4    2
     7     3     2    1
     8     4     5    1
     9    23    21    1
    10    23    24    1
    11    21    19   am
    12    25    24    2
    13     2     1    2
    14     5    19    1
    15     5     6    2
    16    19    20    2
    17     1     6    1
    18     1     7    1
    19     8     7    2
    20     7     9    2
    21     7    10    1
    22    11    10    1
    23    10    12    1
    24    12    13    2
    25    12    17    1
    26    18    17    1
    27    13    14    1
    28    17    16    2
    29    14    15    2
    30    16    15    1
