@<TRIPOS>MOLECULE
33312_out_ligand_01.pdbqt
 31 33 0 0 0
SMALL
GASTEIGER

@<TRIPOS>ATOM
      1  C         18.4310  -21.7980  -10.5140 C.2     1  UNL1        0.0330
      2  C         17.2640  -21.2760  -11.0930 C.2     1  UNL1        0.0170
      3  C         16.0100  -21.6400  -10.5950 C.2     1  UNL1        0.0030
      4  C         15.9140  -22.5110   -9.5100 C.2     1  UNL1        0.0250
      5  C         17.0790  -23.0040   -8.9150 C.2     1  UNL1        0.0800
      6  C         18.3390  -22.6620   -9.4180 C.2     1  UNL1        0.0420
      7  C         19.7860  -21.4300  -11.0160 C.2     1  UNL1        0.2560
      8  O         19.9600  -20.2870  -11.4150 O.2     1  UNL1       -0.2670
      9  N         20.7280  -22.4420  -10.9410 N.am    1  UNL1       -0.3220
     10  H         20.4300  -23.2880  -10.4640 H       1  UNL1        0.1690
     11  C         22.0760  -22.4140  -11.3800 C.2     1  UNL1        0.0500
     12  C         22.4360  -21.8790  -12.6240 C.2     1  UNL1        0.0300
     13  C         23.7680  -21.8610  -13.0500 C.2     1  UNL1        0.0020
     14  C         24.7670  -22.3790  -12.2400 C.2     1  UNL1        0.0010
     15  C         24.4320  -22.9190  -11.0010 C.2     1  UNL1        0.0180
     16  C         23.0910  -22.9490  -10.5580 C.2     1  UNL1        0.0740
     17  C         22.8360  -23.5360   -9.1930 C.3     1  UNL1        0.4190
     18  F         23.9260  -24.1750   -8.6870 F       1  UNL1       -0.1660
     19  F         22.4820  -22.6130   -8.2490 F       1  UNL1       -0.1660
     20  F         21.8300  -24.4570   -9.1920 F       1  UNL1       -0.1660
     21  S         16.9550  -24.1240   -7.5380 S.O2    1  UNL1        0.2630
     22  O         18.2920  -24.5420   -7.1760 O.2     1  UNL1       -0.2000
     23  O         15.9340  -25.0970   -7.8690 O.2     1  UNL1       -0.2000
     24  N         16.3020  -23.1640   -6.3150 N.pl3   1  UNL1       -0.2810
     25  H         15.4400  -22.7040   -6.6030 H       1  UNL1        0.1790
     26  C         17.1660  -22.4690   -5.4250 C.2     1  UNL1        0.0420
     27  C         17.0230  -22.6760   -4.0510 C.2     1  UNL1        0.0300
     28  C         17.8300  -21.9760   -3.1530 C.2     1  UNL1        0.0020
     29  C         18.7810  -21.0730   -3.6290 C.2     1  UNL1        0.0000
     30  C         18.9310  -20.8750   -5.0010 C.2     1  UNL1        0.0020
     31  C         18.1260  -21.5760   -5.8990 C.2     1  UNL1        0.0300
@<TRIPOS>BOND
     1    13    12    1
     2    13    14    2
     3    12    11    2
     4    14    15    1
     5     8     7    2
     6    11     9    1
     7    11    16    1
     8     2     3    1
     9     2     1    2
    10     7     9   am
    11     7     1    1
    12    15    16    2
    13     9    10    1
    14     3     4    2
    15    16    17    1
    16     1     6    1
    17     4     5    1
    18     6     5    2
    19    17    20    1
    20    17    18    1
    21    17    19    1
    22     5    21    1
    23    23    21    2
    24    21    22    2
    25    21    24    1
    26    25    24    1
    27    24    26    1
    28    31    26    2
    29    31    30    1
    30    26    27    1
    31    30    29    2
    32    27    28    2
    33    29    28    1
