@<TRIPOS>MOLECULE
33311_out_ligand_01.pdbqt
 31 33 0 0 0
SMALL
GASTEIGER

@<TRIPOS>ATOM
      1  C         18.5310  -22.0100  -10.2150 C.2     1  UNL1        0.0330
      2  C         18.5650  -21.3360  -11.4470 C.2     1  UNL1        0.0170
      3  C         19.7900  -20.9840  -12.0220 C.2     1  UNL1        0.0030
      4  C         20.9820  -21.3030  -11.3760 C.2     1  UNL1        0.0250
      5  C         20.9450  -21.9840  -10.1540 C.2     1  UNL1        0.0750
      6  C         19.7280  -22.3520   -9.5750 C.2     1  UNL1        0.0410
      7  C         17.2480  -22.4030   -9.5690 C.2     1  UNL1        0.2520
      8  N         17.3340  -22.9020   -8.2900 N.am    1  UNL1       -0.3490
      9  H         18.2340  -23.1100   -7.8830 H       1  UNL1        0.1630
     10  O         16.1950  -22.2990  -10.1860 O.2     1  UNL1       -0.2680
     11  C         16.1610  -23.3490   -7.5540 C.3     1  UNL1        0.1140
     12  C         15.8950  -24.8370   -7.8110 C.3     1  UNL1        0.0370
     13  C         16.3410  -22.9790   -6.0840 C.2     1  UNL1       -0.0290
     14  C         15.3670  -23.3340   -5.1210 C.2     1  UNL1       -0.0540
     15  C         15.5550  -22.9670   -3.7790 C.2     1  UNL1        0.0080
     16  C         14.1350  -24.1230   -5.4840 C.3     1  UNL1        0.0490
     17  C         16.6710  -22.2330   -3.3840 C.2     1  UNL1        0.0070
     18  C         17.6200  -21.8350   -4.3250 C.2     1  UNL1       -0.0610
     19  C         18.8350  -21.0630   -3.9020 C.3     1  UNL1        0.0480
     20  C         17.4510  -22.2160   -5.6630 C.2     1  UNL1        0.0160
     21  S         22.4770  -22.4070   -9.3580 S.O2    1  UNL1        0.2450
     22  O         22.5160  -21.7460   -8.0720 O.2     1  UNL1       -0.2060
     23  O         22.6490  -23.8360   -9.4980 O.2     1  UNL1       -0.2060
     24  N         23.5760  -21.5740  -10.3650 N.pl3   1  UNL1       -0.1810
     25  H         24.1140  -20.9540   -9.7560 H       1  UNL1        0.1460
     26  C         24.4600  -22.4370  -11.0950 C.2     1  UNL1        0.0220
     27  C         24.0920  -22.9210  -12.3520 C.2     1  UNL1        0.0240
     28  C         24.9760  -23.7270  -13.0690 C.2     1  UNL1        0.0020
     29  C         26.2280  -24.0350  -12.5380 C.2     1  UNL1        0.0000
     30  C         26.6020  -23.5310  -11.2910 C.2     1  UNL1        0.0020
     31  C         25.7200  -22.7250  -10.5720 C.2     1  UNL1        0.0240
@<TRIPOS>BOND
     1    28    29    2
     2    28    27    1
     3    29    30    1
     4    27    26    2
     5     3     2    1
     6     3     4    2
     7     2     1    2
     8     4     5    1
     9    30    31    2
    10    26    31    1
    11    26    24    1
    12    24    25    1
    13    24    21    1
    14     1     6    1
    15     1     7    1
    16    10     7    2
    17     5     6    2
    18     5    21    1
    19     7     8   am
    20    23    21    2
    21    21    22    2
    22     8     9    1
    23     8    11    1
    24    12    11    1
    25    11    13    1
    26    13    20    2
    27    13    14    1
    28    20    18    1
    29    16    14    1
    30    14    15    2
    31    18    19    1
    32    18    17    2
    33    15    17    1
