@<TRIPOS>MOLECULE
33318_out_ligand_01.pdbqt
 29 31 0 0 0
SMALL
GASTEIGER

@<TRIPOS>ATOM
      1  C         19.5530  -22.6970  -10.0240 C.2     1  UNL1        0.0330
      2  C         18.7960  -21.8860  -10.8830 C.2     1  UNL1        0.0170
      3  C         17.4140  -21.7680  -10.7040 C.2     1  UNL1        0.0030
      4  C         16.7840  -22.4540   -9.6670 C.2     1  UNL1        0.0250
      5  C         17.5420  -23.2520   -8.8060 C.2     1  UNL1        0.0750
      6  C         18.9250  -23.3660   -8.9660 C.2     1  UNL1        0.0410
      7  S         16.7360  -24.0940   -7.4620 S.O2    1  UNL1        0.2450
      8  O         17.7620  -24.7620   -6.6930 O.2     1  UNL1       -0.2060
      9  O         15.5920  -24.8010   -7.9980 O.2     1  UNL1       -0.2060
     10  N         16.1180  -22.7550   -6.6010 N.pl3   1  UNL1       -0.1810
     11  H         15.2100  -23.0510   -6.2350 H       1  UNL1        0.1460
     12  C         16.9570  -22.3260   -5.5140 C.2     1  UNL1        0.0280
     13  C         18.0680  -21.5210   -5.7840 C.2     1  UNL1        0.0250
     14  C         18.8670  -21.0590   -4.7390 C.2     1  UNL1        0.0020
     15  C         18.5490  -21.3910   -3.4250 C.2     1  UNL1        0.0010
     16  C         17.4320  -22.1830   -3.1530 C.2     1  UNL1        0.0080
     17  C         16.6250  -22.6650   -4.1940 C.2     1  UNL1       -0.0400
     18  C         15.4140  -23.4930   -3.8710 C.3     1  UNL1        0.0500
     19  C         21.0280  -22.8460  -10.1830 C.2     1  UNL1        0.2560
     20  N         21.6150  -21.9480  -11.0530 N.am    1  UNL1       -0.3230
     21  H         21.0000  -21.3450  -11.5830 H       1  UNL1        0.1690
     22  O         21.5810  -23.7550   -9.5760 O.2     1  UNL1       -0.2670
     23  C         22.9870  -21.8310  -11.3650 C.2     1  UNL1        0.0350
     24  C         23.9880  -21.6150  -10.4170 C.2     1  UNL1        0.0300
     25  C         25.3260  -21.5040  -10.8110 C.2     1  UNL1        0.0090
     26  C         25.6890  -21.6170  -12.1560 C.2     1  UNL1       -0.0620
     27  C         27.1200  -21.4650  -12.5750 C.3     1  UNL1        0.0480
     28  C         24.6850  -21.8150  -13.1080 C.2     1  UNL1        0.0090
     29  C         23.3470  -21.9250  -12.7140 C.2     1  UNL1        0.0300
@<TRIPOS>BOND
     1    28    29    1
     2    28    26    2
     3    29    23    2
     4    27    26    1
     5    26    25    1
     6    21    20    1
     7    23    20    1
     8    23    24    1
     9    20    19   am
    10     2     3    1
    11     2     1    2
    12    25    24    2
    13     3     4    2
    14    19     1    1
    15    19    22    2
    16     1     6    1
    17     4     5    1
    18     6     5    2
    19     5     7    1
    20     9     7    2
    21     7     8    2
    22     7    10    1
    23    10    11    1
    24    10    12    1
    25    13    12    2
    26    13    14    1
    27    12    17    1
    28    14    15    2
    29    17    18    1
    30    17    16    2
    31    15    16    1
