@<TRIPOS>MOLECULE
33322_out_ligand_01.pdbqt
 30 32 0 0 0
SMALL
GASTEIGER

@<TRIPOS>ATOM
      1  C         19.2700  -22.2320  -10.6250 C.2     1  UNL1        0.0330
      2  C         18.5900  -21.3970  -11.5230 C.2     1  UNL1        0.0170
      3  C         17.2320  -21.1270  -11.3390 C.2     1  UNL1        0.0030
      4  C         16.5450  -21.7010  -10.2700 C.2     1  UNL1        0.0250
      5  C         17.2190  -22.5620   -9.3960 C.2     1  UNL1        0.0800
      6  C         18.5830  -22.8210   -9.5600 C.2     1  UNL1        0.0420
      7  C         20.7160  -22.5400  -10.7980 C.2     1  UNL1        0.2560
      8  N         21.3490  -21.8010  -11.7810 N.am    1  UNL1       -0.3230
      9  H         20.8150  -21.0560  -12.2080 H       1  UNL1        0.1690
     10  O         21.2180  -23.3770  -10.0590 O.2     1  UNL1       -0.2670
     11  C         22.6940  -21.9010  -12.1970 C.2     1  UNL1        0.0350
     12  C         22.9810  -21.5350  -13.5190 C.2     1  UNL1        0.0360
     13  C         24.2880  -21.6070  -14.0210 C.2     1  UNL1       -0.0590
     14  C         25.3120  -22.0730  -13.1900 C.2     1  UNL1        0.0130
     15  C         24.5750  -21.2470  -15.4490 C.3     1  UNL1        0.0480
     16  C         25.0460  -22.4330  -11.8640 C.2     1  UNL1       -0.0590
     17  C         26.1420  -22.9580  -10.9830 C.3     1  UNL1        0.0480
     18  C         23.7310  -22.3530  -11.3800 C.2     1  UNL1        0.0360
     19  S         16.3450  -23.2790   -8.0220 S.O2    1  UNL1        0.2630
     20  O         15.4700  -22.2660   -7.4740 O.2     1  UNL1       -0.2000
     21  O         15.8160  -24.5530   -8.4670 O.2     1  UNL1       -0.2000
     22  N         17.5660  -23.6490   -6.9220 N.pl3   1  UNL1       -0.2800
     23  H         18.2960  -24.2270   -7.3270 H       1  UNL1        0.1790
     24  C         17.9250  -22.7140   -5.9070 C.2     1  UNL1        0.0480
     25  C         18.8690  -21.7220   -6.1860 C.2     1  UNL1        0.0300
     26  C         19.2660  -20.8270   -5.1940 C.2     1  UNL1        0.0020
     27  C         18.7130  -20.9140   -3.9200 C.2     1  UNL1        0.0010
     28  C         17.7580  -21.8910   -3.6400 C.2     1  UNL1        0.0090
     29  C         17.3490  -22.8020   -4.6270 C.2     1  UNL1       -0.0350
     30  C         16.3160  -23.8370   -4.2830 C.3     1  UNL1        0.0500
@<TRIPOS>BOND
     1    15    13    1
     2    13    12    1
     3    13    14    2
     4    12    11    2
     5    14    16    1
     6     9     8    1
     7    11     8    1
     8    11    18    1
     9    16    18    2
    10    16    17    1
    11     8     7   am
    12     2     3    1
    13     2     1    2
    14     3     4    2
    15     7     1    1
    16     7    10    2
    17     1     6    1
    18     4     5    1
    19     6     5    2
    20     5    19    1
    21    21    19    2
    22    19    20    2
    23    19    22    1
    24    23    22    1
    25    22    24    1
    26    25    24    2
    27    25    26    1
    28    24    29    1
    29    26    27    2
    30    29    30    1
    31    29    28    2
    32    27    28    1
