@<TRIPOS>MOLECULE
33321_out_ligand_01.pdbqt
 29 31 0 0 0
SMALL
GASTEIGER

@<TRIPOS>ATOM
      1  C         20.1620  -22.2960  -10.6700 C.2     1  UNL1        0.0330
      2  C         19.7010  -21.3880  -11.6360 C.2     1  UNL1        0.0170
      3  C         18.3430  -21.0620  -11.7030 C.2     1  UNL1        0.0030
      4  C         17.4410  -21.6340  -10.8080 C.2     1  UNL1        0.0250
      5  C         17.9040  -22.5290   -9.8390 C.2     1  UNL1        0.0800
      6  C         19.2630  -22.8450   -9.7490 C.2     1  UNL1        0.0420
      7  S         16.7650  -23.2490   -8.6790 S.O2    1  UNL1        0.2630
      8  O         15.5260  -23.4940   -9.3850 O.2     1  UNL1       -0.2000
      9  O         17.4490  -24.3160   -7.9810 O.2     1  UNL1       -0.2000
     10  N         16.4540  -21.9850   -7.6090 N.pl3   1  UNL1       -0.2800
     11  H         16.8080  -21.0940   -7.9510 H       1  UNL1        0.1790
     12  C         16.4200  -22.2140   -6.2010 C.2     1  UNL1        0.0480
     13  C         15.2130  -22.5390   -5.5760 C.2     1  UNL1        0.0300
     14  C         15.1680  -22.7790   -4.2020 C.2     1  UNL1        0.0020
     15  C         16.3310  -22.6860   -3.4440 C.2     1  UNL1        0.0010
     16  C         17.5370  -22.3430   -4.0580 C.2     1  UNL1        0.0090
     17  C         17.5980  -22.1010   -5.4400 C.2     1  UNL1       -0.0350
     18  C         18.9140  -21.7110   -6.0520 C.3     1  UNL1        0.0500
     19  C         21.5980  -22.6860  -10.5740 C.2     1  UNL1        0.2560
     20  N         22.4420  -22.0360  -11.4570 N.am    1  UNL1       -0.3230
     21  H         22.0150  -21.4390  -12.1510 H       1  UNL1        0.1690
     22  O         21.9030  -23.5620   -9.7750 O.2     1  UNL1       -0.2670
     23  C         23.8420  -22.1820  -11.5660 C.2     1  UNL1        0.0350
     24  C         24.7620  -21.4910  -10.7780 C.2     1  UNL1        0.0290
     25  C         26.1340  -21.6840  -10.9590 C.2     1  UNL1        0.0030
     26  C         26.5990  -22.5710  -11.9280 C.2     1  UNL1        0.0070
     27  C         25.6940  -23.2820  -12.7220 C.2     1  UNL1       -0.0600
     28  C         26.1880  -24.2100  -13.7900 C.3     1  UNL1        0.0480
     29  C         24.3190  -23.0690  -12.5420 C.2     1  UNL1        0.0360
@<TRIPOS>BOND
     1    28    27    1
     2    27    29    1
     3    27    26    2
     4    29    23    2
     5    21    20    1
     6    26    25    1
     7     3     2    1
     8     3     4    2
     9     2     1    2
    10    23    20    1
    11    23    24    1
    12    20    19   am
    13    25    24    2
    14     4     5    1
    15     1    19    1
    16     1     6    1
    17    19    22    2
    18     5     6    2
    19     5     7    1
    20     8     7    2
    21     7     9    2
    22     7    10    1
    23    11    10    1
    24    10    12    1
    25    12    13    2
    26    12    17    1
    27    18    17    1
    28    13    14    1
    29    17    16    2
    30    14    15    2
    31    16    15    1
