@<TRIPOS>MOLECULE
33327_out_ligand_01.pdbqt
 29 31 0 0 0
SMALL
GASTEIGER

@<TRIPOS>ATOM
      1  C         17.9270  -22.5290   -9.8500 C.2     1  UNL1        0.0800
      2  C         17.4680  -21.6550  -10.8420 C.2     1  UNL1        0.0250
      3  C         18.3750  -21.0970  -11.7430 C.2     1  UNL1        0.0030
      4  C         19.7300  -21.4260  -11.6660 C.2     1  UNL1        0.0170
      5  C         20.1820  -22.3290  -10.6930 C.2     1  UNL1        0.0330
      6  C         19.2790  -22.8810   -9.7780 C.2     1  UNL1        0.0420
      7  S         16.7670  -23.2560   -8.7130 S.O2    1  UNL1        0.2630
      8  O         15.5440  -23.5050   -9.4490 O.2     1  UNL1       -0.2000
      9  O         17.4420  -24.3270   -8.0130 O.2     1  UNL1       -0.2000
     10  N         16.4150  -21.9990   -7.6470 N.pl3   1  UNL1       -0.2800
     11  H         16.7430  -21.0970   -7.9840 H       1  UNL1        0.1790
     12  C         16.3910  -22.2330   -6.2420 C.2     1  UNL1        0.0480
     13  C         15.1880  -22.5820   -5.6210 C.2     1  UNL1        0.0300
     14  C         15.1540  -22.8570   -4.2540 C.2     1  UNL1        0.0020
     15  C         16.3210  -22.7770   -3.5010 C.2     1  UNL1        0.0010
     16  C         17.5220  -22.4140   -4.1120 C.2     1  UNL1        0.0090
     17  C         17.5730  -22.1360   -5.4880 C.2     1  UNL1       -0.0350
     18  C         18.8870  -21.7440   -6.1040 C.3     1  UNL1        0.0500
     19  C         21.6200  -22.6990  -10.5840 C.2     1  UNL1        0.2560
     20  O         21.9400  -23.5290   -9.7440 O.2     1  UNL1       -0.2670
     21  N         22.4490  -22.0650  -11.4920 N.am    1  UNL1       -0.3230
     22  H         22.0020  -21.5040  -12.2060 H       1  UNL1        0.1690
     23  C         23.8510  -22.1880  -11.5990 C.2     1  UNL1        0.0360
     24  C         24.7570  -21.5070  -10.7820 C.2     1  UNL1        0.0290
     25  C         26.1360  -21.6760  -10.9540 C.2     1  UNL1        0.0040
     26  C         26.6210  -22.5230  -11.9470 C.2     1  UNL1        0.0190
     27  C         25.7210  -23.2000  -12.7650 C.2     1  UNL1        0.0130
     28 BR         26.3700  -24.3520  -14.1180 Br      1  UNL1       -0.0510
     29  C         24.3450  -23.0360  -12.5980 C.2     1  UNL1        0.0480
@<TRIPOS>BOND
     1    28    27    1
     2    27    29    1
     3    27    26    2
     4    29    23    2
     5    22    21    1
     6    26    25    1
     7     3     4    2
     8     3     2    1
     9     4     5    1
    10    23    21    1
    11    23    24    1
    12    21    19   am
    13    25    24    2
    14     2     1    2
    15     5    19    1
    16     5     6    2
    17    19    20    2
    18     1     6    1
    19     1     7    1
    20     8     7    2
    21     7     9    2
    22     7    10    1
    23    11    10    1
    24    10    12    1
    25    12    13    2
    26    12    17    1
    27    18    17    1
    28    13    14    1
    29    17    16    2
    30    14    15    2
    31    16    15    1
