@<TRIPOS>MOLECULE
33325_out_ligand_01.pdbqt
 29 31 0 0 0
SMALL
GASTEIGER

@<TRIPOS>ATOM
      1  C         17.9180  -22.5360   -9.8630 C.2     1  UNL1        0.0800
      2  C         17.4750  -21.6140  -10.8160 C.2     1  UNL1        0.0250
      3  C         18.3870  -21.0530  -11.7090 C.2     1  UNL1        0.0030
      4  C         19.7340  -21.4210  -11.6590 C.2     1  UNL1        0.0170
      5  C         20.1670  -22.3680  -10.7190 C.2     1  UNL1        0.0330
      6  C         19.2580  -22.9290   -9.8180 C.2     1  UNL1        0.0420
      7  S         16.7680  -23.2500   -8.7100 S.O2    1  UNL1        0.2630
      8  O         17.4830  -24.2660   -7.9690 O.2     1  UNL1       -0.2000
      9  O         15.5550  -23.5690   -9.4320 O.2     1  UNL1       -0.2000
     10  N         16.4730  -21.9910   -7.6280 N.pl3   1  UNL1       -0.2800
     11  H         15.8260  -21.3010   -8.0040 H       1  UNL1        0.1790
     12  C         16.4510  -22.2420   -6.2230 C.2     1  UNL1        0.0480
     13  C         15.2630  -22.6580   -5.6110 C.2     1  UNL1        0.0300
     14  C         15.2170  -22.8870   -4.2370 C.2     1  UNL1        0.0020
     15  C         16.3620  -22.7090   -3.4660 C.2     1  UNL1        0.0010
     16  C         17.5540  -22.3090   -4.0710 C.2     1  UNL1        0.0090
     17  C         17.6160  -22.0740   -5.4550 C.2     1  UNL1       -0.0350
     18  C         18.9290  -21.6670   -6.0640 C.3     1  UNL1        0.0500
     19  C         21.5980  -22.7600  -10.6140 C.2     1  UNL1        0.2560
     20  O         21.9010  -23.5930   -9.7700 O.2     1  UNL1       -0.2670
     21  N         22.4370  -22.1460  -11.5250 N.am    1  UNL1       -0.3230
     22  H         22.0010  -21.5790  -12.2390 H       1  UNL1        0.1690
     23  C         23.8370  -22.2960  -11.6310 C.2     1  UNL1        0.0360
     24  C         24.6280  -21.4910  -10.7990 C.2     1  UNL1        0.0290
     25  C         26.0220  -21.5780  -10.8340 C.2     1  UNL1        0.0040
     26  C         26.6390  -22.4750  -11.7010 C.2     1  UNL1        0.0240
     27  C         25.8570  -23.2800  -12.5270 C.2     1  UNL1        0.0360
     28 CL         26.6230  -24.3940  -13.5950 Cl      1  UNL1       -0.0840
     29  C         24.4630  -23.1970  -12.4960 C.2     1  UNL1        0.0530
@<TRIPOS>BOND
     1    28    27    1
     2    27    29    1
     3    27    26    2
     4    29    23    2
     5    22    21    1
     6     3     4    2
     7     3     2    1
     8    26    25    1
     9     4     5    1
    10    23    21    1
    11    23    24    1
    12    21    19   am
    13    25    24    2
    14     2     1    2
    15     5    19    1
    16     5     6    2
    17    19    20    2
    18     1     6    1
    19     1     7    1
    20     9     7    2
    21     7     8    2
    22     7    10    1
    23    11    10    1
    24    10    12    1
    25    12    13    2
    26    12    17    1
    27    18    17    1
    28    13    14    1
    29    17    16    2
    30    14    15    2
    31    16    15    1
