@<TRIPOS>MOLECULE
33323_out_ligand_01.pdbqt
 30 32 0 0 0
SMALL
GASTEIGER

@<TRIPOS>ATOM
      1  C         19.2800  -22.5080  -10.2690 C.2     1  UNL1        0.0330
      2  C         18.6340  -21.6950  -11.2120 C.2     1  UNL1        0.0170
      3  C         17.2610  -21.4560  -11.1060 C.2     1  UNL1        0.0030
      4  C         16.5340  -22.0120  -10.0540 C.2     1  UNL1        0.0250
      5  C         17.1900  -22.7930   -9.0950 C.2     1  UNL1        0.0800
      6  C         18.5580  -23.0570   -9.2050 C.2     1  UNL1        0.0420
      7  C         20.7420  -22.7790  -10.3530 C.2     1  UNL1        0.2560
      8  N         21.4520  -21.8750  -11.1210 N.am    1  UNL1       -0.3230
      9  H         20.9160  -21.1910  -11.6370 H       1  UNL1        0.1690
     10  O         21.1780  -23.7670   -9.7740 O.2     1  UNL1       -0.2670
     11  C         22.8440  -21.8510  -11.3460 C.2     1  UNL1        0.0350
     12  C         23.7880  -21.5890  -10.3560 C.2     1  UNL1        0.0300
     13  C         25.1520  -21.5790  -10.6650 C.2     1  UNL1        0.0090
     14  C         25.6000  -21.8260  -11.9690 C.2     1  UNL1       -0.0560
     15  C         27.0770  -21.8050  -12.2580 C.3     1  UNL1        0.0490
     16  C         24.6550  -22.0880  -12.9780 C.2     1  UNL1       -0.0540
     17  C         23.2870  -22.0960  -12.6530 C.2     1  UNL1        0.0370
     18  C         25.0790  -22.3610  -14.3950 C.3     1  UNL1        0.0490
     19  S         16.2560  -23.5170   -7.7640 S.O2    1  UNL1        0.2630
     20  O         15.6550  -24.7380   -8.2550 O.2     1  UNL1       -0.2000
     21  O         15.4390  -22.4650   -7.1930 O.2     1  UNL1       -0.2000
     22  N         17.4260  -23.8710   -6.6040 N.pl3   1  UNL1       -0.2800
     23  H         17.3760  -24.8330   -6.2800 H       1  UNL1        0.1790
     24  C         17.8560  -22.8670   -5.6890 C.2     1  UNL1        0.0480
     25  C         18.7730  -21.8990   -6.1080 C.2     1  UNL1        0.0300
     26  C         19.1720  -20.8830   -5.2410 C.2     1  UNL1        0.0020
     27  C         18.6630  -20.8370   -3.9460 C.2     1  UNL1        0.0010
     28  C         17.7610  -21.8100   -3.5160 C.2     1  UNL1        0.0090
     29  C         17.3460  -22.8380   -4.3780 C.2     1  UNL1       -0.0350
     30  C         16.3770  -23.8670   -3.8740 C.3     1  UNL1        0.0500
@<TRIPOS>BOND
     1    18    16    1
     2    16    17    1
     3    16    14    2
     4    17    11    2
     5    15    14    1
     6    14    13    1
     7     9     8    1
     8    11     8    1
     9    11    12    1
    10     2     3    1
    11     2     1    2
    12     8     7   am
    13     3     4    2
    14    13    12    2
    15     7     1    1
    16     7    10    2
    17     1     6    1
    18     4     5    1
    19     6     5    2
    20     5    19    1
    21    20    19    2
    22    19    21    2
    23    19    22    1
    24    22    23    1
    25    22    24    1
    26    25    24    2
    27    25    26    1
    28    24    29    1
    29    26    27    2
    30    29    30    1
    31    29    28    2
    32    27    28    1
