@<TRIPOS>MOLECULE
33328_out_ligand_01.pdbqt
 32 34 0 0 0
SMALL
GASTEIGER

@<TRIPOS>ATOM
      1  C         17.7800  -22.5370   -9.7420 C.2     1  UNL1        0.0800
      2  C         17.2990  -21.6280  -10.6890 C.2     1  UNL1        0.0250
      3  C         18.1790  -21.0630  -11.6120 C.2     1  UNL1        0.0030
      4  C         19.5310  -21.4140  -11.5950 C.2     1  UNL1        0.0170
      5  C         20.0020  -22.3480  -10.6610 C.2     1  UNL1        0.0330
      6  C         19.1250  -22.9130   -9.7320 C.2     1  UNL1        0.0420
      7  C         21.4400  -22.7210  -10.5920 C.2     1  UNL1        0.2560
      8  O         21.7790  -23.5320   -9.7390 O.2     1  UNL1       -0.2670
      9  N         22.2450  -22.1150  -11.5380 N.am    1  UNL1       -0.3230
     10  H         21.7800  -21.5630  -12.2490 H       1  UNL1        0.1690
     11  C         23.6400  -22.2490  -11.6860 C.2     1  UNL1        0.0350
     12  C         24.4490  -21.5190  -10.8070 C.2     1  UNL1        0.0290
     13  C         25.8420  -21.6040  -10.8800 C.2     1  UNL1        0.0030
     14  C         26.4400  -22.4210  -11.8360 C.2     1  UNL1        0.0160
     15  C         25.6510  -23.1580  -12.7290 C.2     1  UNL1        0.0500
     16  C         24.2490  -23.0690  -12.6400 C.2     1  UNL1        0.0450
     17  C         26.2840  -24.0700  -13.7500 C.3     1  UNL1        0.4170
     18  F         25.3590  -24.7790  -14.4560 F       1  UNL1       -0.1660
     19  F         27.0330  -23.4060  -14.6730 F       1  UNL1       -0.1660
     20  F         27.1180  -24.9970  -13.1970 F       1  UNL1       -0.1660
     21  S         16.6710  -23.2540   -8.5520 S.O2    1  UNL1        0.2630
     22  O         15.4330  -23.5730   -9.2310 O.2     1  UNL1       -0.2000
     23  O         17.4120  -24.2740   -7.8390 O.2     1  UNL1       -0.2000
     24  N         16.4140  -22.0000   -7.4550 N.pl3   1  UNL1       -0.2800
     25  H         15.7600  -21.3060   -7.8100 H       1  UNL1        0.1790
     26  C         16.4300  -22.2600   -6.0530 C.2     1  UNL1        0.0480
     27  C         15.2660  -22.7020   -5.4160 C.2     1  UNL1        0.0300
     28  C         15.2580  -22.9400   -4.0420 C.2     1  UNL1        0.0020
     29  C         16.4160  -22.7450   -3.2970 C.2     1  UNL1        0.0010
     30  C         17.5850  -22.3190   -3.9280 C.2     1  UNL1        0.0090
     31  C         17.6100  -22.0740   -5.3110 C.2     1  UNL1       -0.0350
     32  C         18.9010  -21.6410   -5.9490 C.3     1  UNL1        0.0500
@<TRIPOS>BOND
     1    19    17    1
     2    18    17    1
     3    17    20    1
     4    17    15    1
     5    15    16    1
     6    15    14    2
     7    16    11    2
     8    10     9    1
     9    14    13    1
    10    11     9    1
    11    11    12    1
    12     3     4    2
    13     3     2    1
    14     4     5    1
    15     9     7   am
    16    13    12    2
    17     2     1    2
    18     5     7    1
    19     5     6    2
    20     7     8    2
    21     1     6    1
    22     1    21    1
    23    22    21    2
    24    21    23    2
    25    21    24    1
    26    25    24    1
    27    24    26    1
    28    26    27    2
    29    26    31    1
    30    32    31    1
    31    27    28    1
    32    31    30    2
    33    28    29    2
    34    30    29    1
