@<TRIPOS>MOLECULE
33329_out_ligand_01.pdbqt
 32 34 0 0 0
SMALL
GASTEIGER

@<TRIPOS>ATOM
      1  C         19.4120  -22.4260   -7.2260 C.2     1  UNL1        0.0330
      2  C         20.1580  -21.3470   -6.7330 C.2     1  UNL1        0.0170
      3  C         19.8360  -20.7680   -5.5030 C.2     1  UNL1        0.0030
      4  C         18.7780  -21.2740   -4.7510 C.2     1  UNL1        0.0250
      5  C         18.0600  -22.3760   -5.2270 C.2     1  UNL1        0.0800
      6  C         18.3610  -22.9500   -6.4670 C.2     1  UNL1        0.0420
      7  C         19.7860  -23.0050   -8.5430 C.2     1  UNL1        0.2520
      8  N         19.8000  -22.1260   -9.6060 N.am    1  UNL1       -0.3480
      9  H         19.8280  -21.1370   -9.4000 H       1  UNL1        0.1630
     10  O         20.0720  -24.1940   -8.6280 O.2     1  UNL1       -0.2680
     11  C         20.3330  -22.5180  -10.9040 C.3     1  UNL1        0.1170
     12  C         19.5300  -21.8560  -12.0390 C.3     1  UNL1        0.0250
     13  C         18.3460  -21.0510  -11.5130 C.3     1  UNL1        0.0070
     14  C         21.8210  -22.1960  -10.9410 C.2     1  UNL1       -0.0350
     15  C         22.4640  -21.8110   -9.7580 C.2     1  UNL1        0.0100
     16  C         23.8200  -21.4820   -9.7550 C.2     1  UNL1        0.0080
     17  C         24.5710  -21.5180  -10.9380 C.2     1  UNL1       -0.0560
     18  C         26.0290  -21.1530  -10.8960 C.3     1  UNL1        0.0490
     19  C         23.9350  -21.8780  -12.1410 C.2     1  UNL1       -0.0560
     20  C         24.6920  -21.9200  -13.4420 C.3     1  UNL1        0.0490
     21  C         22.5690  -22.2100  -12.1300 C.2     1  UNL1        0.0160
     22  S         16.7120  -23.0360   -4.2710 S.O2    1  UNL1        0.2630
     23  O         16.9570  -24.4460   -4.0620 O.2     1  UNL1       -0.2000
     24  O         16.5080  -22.1370   -3.1530 O.2     1  UNL1       -0.2000
     25  N         15.3830  -22.8290   -5.2890 N.pl3   1  UNL1       -0.2810
     26  H         14.8250  -22.0150   -5.0400 H       1  UNL1        0.1790
     27  C         15.4980  -23.1600   -6.6660 C.2     1  UNL1        0.0420
     28  C         15.5500  -24.4910   -7.0810 C.2     1  UNL1        0.0300
     29  C         15.7000  -24.7940   -8.4350 C.2     1  UNL1        0.0020
     30  C         15.7990  -23.7670   -9.3730 C.2     1  UNL1        0.0000
     31  C         15.7440  -22.4370   -8.9590 C.2     1  UNL1        0.0020
     32  C         15.5930  -22.1310   -7.6050 C.2     1  UNL1        0.0300
@<TRIPOS>BOND
     1    20    19    1
     2    19    21    1
     3    19    17    2
     4    21    14    2
     5    12    13    1
     6    12    11    1
     7    14    11    1
     8    14    15    1
     9    17    18    1
    10    17    16    1
    11    11     8    1
    12    15    16    2
    13     8     9    1
    14     8     7   am
    15    30    31    2
    16    30    29    1
    17    31    32    1
    18    10     7    2
    19     7     1    1
    20    29    28    2
    21    32    27    2
    22     1     2    2
    23     1     6    1
    24    28    27    1
    25     2     3    1
    26    27    25    1
    27     6     5    2
    28     3     4    2
    29    25    26    1
    30    25    22    1
    31     5     4    1
    32     5    22    1
    33    22    23    2
    34    22    24    2
