@<TRIPOS>MOLECULE
33334_out_ligand_01.pdbqt
 30 32 0 0 0
SMALL
GASTEIGER

@<TRIPOS>ATOM
      1  C         20.2370  -22.3570  -10.5540 C.2     1  UNL1        0.0330
      2  C         19.7760  -21.4910  -11.5560 C.2     1  UNL1        0.0170
      3  C         18.4210  -21.1590  -11.6270 C.2     1  UNL1        0.0030
      4  C         17.5200  -21.7030  -10.7100 C.2     1  UNL1        0.0250
      5  C         17.9790  -22.5890   -9.7320 C.2     1  UNL1        0.0800
      6  C         19.3370  -22.9080   -9.6370 C.2     1  UNL1        0.0420
      7  C         21.6670  -22.7580  -10.4660 C.2     1  UNL1        0.2560
      8  N         22.5150  -22.0710  -11.3130 N.am    1  UNL1       -0.3230
      9  H         22.1190  -21.3000  -11.8350 H       1  UNL1        0.1690
     10  O         21.9670  -23.6250   -9.6540 O.2     1  UNL1       -0.2670
     11  C         23.9030  -22.2630  -11.4730 C.2     1  UNL1        0.0370
     12  C         24.8760  -21.5010  -10.8300 C.2     1  UNL1        0.0290
     13  C         26.2320  -21.7630  -11.0430 C.2     1  UNL1        0.0050
     14  C         26.6300  -22.7920  -11.8970 C.2     1  UNL1        0.0370
     15  C         25.6690  -23.5650  -12.5450 C.2     1  UNL1        0.0700
     16  C         24.3120  -23.2970  -12.3260 C.2     1  UNL1        0.0660
     17  O         25.9130  -24.6020  -13.4030 O.2     1  UNL1       -0.3560
     18  C         25.6470  -24.3690  -14.7810 C.3     1  UNL1        0.2100
     19  S         16.8390  -23.2990   -8.5670 S.O2    1  UNL1        0.2630
     20  O         17.5310  -24.3440   -7.8440 O.2     1  UNL1       -0.2000
     21  O         15.6130  -23.5780   -9.2850 O.2     1  UNL1       -0.2000
     22  N         16.4980  -22.0160   -7.5270 N.pl3   1  UNL1       -0.2800
     23  H         16.8800  -21.1340   -7.8650 H       1  UNL1        0.1790
     24  C         16.4390  -22.2310   -6.1180 C.2     1  UNL1        0.0480
     25  C         15.2340  -22.6220   -5.5260 C.2     1  UNL1        0.0300
     26  C         15.1620  -22.8570   -4.1540 C.2     1  UNL1        0.0020
     27  C         16.2950  -22.6960   -3.3640 C.2     1  UNL1        0.0010
     28  C         17.4980  -22.2910   -3.9430 C.2     1  UNL1        0.0090
     29  C         17.5860  -22.0500   -5.3240 C.2     1  UNL1       -0.0350
     30  C         18.8980  -21.5940   -5.9010 C.3     1  UNL1        0.0500
@<TRIPOS>BOND
     1    18    17    1
     2    17    15    1
     3    15    16    1
     4    15    14    2
     5    16    11    2
     6    14    13    1
     7     9     8    1
     8     3     2    1
     9     3     4    2
    10     2     1    2
    11    11     8    1
    12    11    12    1
    13     8     7   am
    14    13    12    2
    15     4     5    1
    16     1     7    1
    17     1     6    1
    18     7    10    2
    19     5     6    2
    20     5    19    1
    21    21    19    2
    22    19    20    2
    23    19    22    1
    24    23    22    1
    25    22    24    1
    26    24    25    2
    27    24    29    1
    28    30    29    1
    29    25    26    1
    30    29    28    2
    31    26    27    2
    32    28    27    1
