@<TRIPOS>MOLECULE
33331_out_ligand_01.pdbqt
 29 31 0 0 0
SMALL
GASTEIGER

@<TRIPOS>ATOM
      1  C         17.0360  -22.8190   -8.9950 C.2     1  UNL1        0.0800
      2  C         16.3480  -22.0180   -9.9110 C.2     1  UNL1        0.0250
      3  C         17.0320  -21.4570  -10.9900 C.2     1  UNL1        0.0030
      4  C         18.4030  -21.6810  -11.1400 C.2     1  UNL1        0.0170
      5  C         19.0970  -22.4560  -10.1990 C.2     1  UNL1        0.0330
      6  C         18.4130  -23.0310   -9.1250 C.2     1  UNL1        0.0420
      7  S         16.1660  -23.5180   -7.6090 S.O2    1  UNL1        0.2630
      8  O         15.6590  -24.8090   -8.0300 O.2     1  UNL1       -0.2000
      9  O         15.2740  -22.5060   -7.0880 O.2     1  UNL1       -0.2000
     10  N         17.3860  -23.8450   -6.4950 N.pl3   1  UNL1       -0.2800
     11  H         18.0930  -24.4770   -6.8620 H       1  UNL1        0.1790
     12  C         17.7850  -22.8510   -5.5550 C.2     1  UNL1        0.0480
     13  C         18.6750  -21.8460   -5.9470 C.2     1  UNL1        0.0300
     14  C         19.1090  -20.8910   -5.0300 C.2     1  UNL1        0.0020
     15  C         18.6490  -20.9310   -3.7180 C.2     1  UNL1        0.0010
     16  C         17.7480  -21.9190   -3.3230 C.2     1  UNL1        0.0090
     17  C         17.3030  -22.8910   -4.2340 C.2     1  UNL1       -0.0350
     18  C         16.3290  -23.9370   -3.7690 C.3     1  UNL1        0.0500
     19  C         20.5580  -22.7140  -10.3330 C.2     1  UNL1        0.2560
     20  O         21.0190  -23.7110   -9.7930 O.2     1  UNL1       -0.2670
     21  N         21.2500  -21.7520  -11.0480 N.am    1  UNL1       -0.3230
     22  H         20.7360  -20.9230  -11.3160 H       1  UNL1        0.1690
     23  C         22.6230  -21.7520  -11.3690 C.2     1  UNL1        0.0350
     24  C         22.9630  -21.8610  -12.7250 C.2     1  UNL1        0.0310
     25  C         24.3020  -21.8730  -13.1270 C.2     1  UNL1        0.0210
     26  C         25.3090  -21.7770  -12.1720 C.2     1  UNL1        0.0110
     27 BR         27.1210  -21.7950  -12.7110 Br      1  UNL1       -0.0510
     28  C         24.9880  -21.6710  -10.8220 C.2     1  UNL1        0.0210
     29  C         23.6460  -21.6590  -10.4230 C.2     1  UNL1        0.0310
@<TRIPOS>BOND
     1    25    24    1
     2    25    26    2
     3    24    23    2
     4    27    26    1
     5    26    28    1
     6    23    21    1
     7    23    29    1
     8    22    21    1
     9     4     3    2
    10     4     5    1
    11    21    19   am
    12     3     2    1
    13    28    29    2
    14    19     5    1
    15    19    20    2
    16     5     6    2
    17     2     1    2
    18     6     1    1
    19     1     7    1
    20     8     7    2
    21     7     9    2
    22     7    10    1
    23    11    10    1
    24    10    12    1
    25    13    12    2
    26    13    14    1
    27    12    17    1
    28    14    15    2
    29    17    18    1
    30    17    16    2
    31    15    16    1
