@<TRIPOS>MOLECULE
33339_out_ligand_01.pdbqt
 30 32 0 0 0
SMALL
GASTEIGER

@<TRIPOS>ATOM
      1  C         20.2570  -22.3700  -10.6330 C.2     1  UNL1        0.0330
      2  C         19.7720  -21.4920  -11.6130 C.2     1  UNL1        0.0170
      3  C         18.4130  -21.1660  -11.6530 C.2     1  UNL1        0.0030
      4  C         17.5360  -21.7110  -10.7160 C.2     1  UNL1        0.0250
      5  C         18.0240  -22.5860   -9.7390 C.2     1  UNL1        0.0800
      6  C         19.3760  -22.9410   -9.7090 C.2     1  UNL1        0.0420
      7  C         21.6990  -22.7400  -10.5590 C.2     1  UNL1        0.2560
      8  N         22.5090  -22.0920  -11.4730 N.am    1  UNL1       -0.3230
      9  H         22.0770  -21.3840  -12.0520 H       1  UNL1        0.1690
     10  O         22.0440  -23.5440   -9.7050 O.2     1  UNL1       -0.2670
     11  C         23.9020  -22.2500  -11.6490 C.2     1  UNL1        0.0360
     12  C         24.7370  -21.4890  -10.8220 C.2     1  UNL1        0.0290
     13  C         26.1250  -21.5870  -10.9330 C.2     1  UNL1        0.0040
     14  C         26.6860  -22.4460  -11.8750 C.2     1  UNL1        0.0180
     15  C         25.8710  -23.2080  -12.7180 C.2     1  UNL1        0.0020
     16  C         24.4790  -23.1110  -12.5880 C.2     1  UNL1        0.0480
     17  S         26.6820  -24.2960  -13.8840 S.3     1  UNL1       -0.1340
     18  C         25.3590  -24.6170  -15.0840 C.3     1  UNL1        0.0950
     19  S         16.9020  -23.2940   -8.5530 S.O2    1  UNL1        0.2630
     20  O         15.6670  -23.5900   -9.2500 O.2     1  UNL1       -0.2000
     21  O         17.6100  -24.3220   -7.8230 O.2     1  UNL1       -0.2000
     22  N         16.5510  -22.0020   -7.5280 N.pl3   1  UNL1       -0.2800
     23  H         16.8950  -21.1140   -7.8880 H       1  UNL1        0.1790
     24  C         16.5000  -22.1940   -6.1180 C.2     1  UNL1        0.0480
     25  C         15.2980  -22.5770   -5.5150 C.2     1  UNL1        0.0300
     26  C         15.2400  -22.8120   -4.1420 C.2     1  UNL1        0.0020
     27  C         16.3820  -22.6560   -3.3620 C.2     1  UNL1        0.0010
     28  C         17.5810  -22.2570   -3.9540 C.2     1  UNL1        0.0090
     29  C         17.6570  -22.0210   -5.3370 C.2     1  UNL1       -0.0350
     30  C         18.9650  -21.5840   -5.9330 C.3     1  UNL1        0.0500
@<TRIPOS>BOND
     1    18    17    1
     2    17    15    1
     3    15    16    1
     4    15    14    2
     5    16    11    2
     6     9     8    1
     7    14    13    1
     8     3     2    1
     9     3     4    2
    10    11     8    1
    11    11    12    1
    12     2     1    2
    13     8     7   am
    14    13    12    2
    15     4     5    1
    16     1     7    1
    17     1     6    1
    18     7    10    2
    19     5     6    2
    20     5    19    1
    21    20    19    2
    22    19    21    2
    23    19    22    1
    24    23    22    1
    25    22    24    1
    26    24    25    2
    27    24    29    1
    28    30    29    1
    29    25    26    1
    30    29    28    2
    31    26    27    2
    32    28    27    1
