@<TRIPOS>MOLECULE
33337_out_ligand_01.pdbqt
 29 31 0 0 0
SMALL
GASTEIGER

@<TRIPOS>ATOM
      1  C         17.2800  -22.6110   -9.3480 C.2     1  UNL1        0.0800
      2  C         16.6680  -21.7790  -10.2900 C.2     1  UNL1        0.0250
      3  C         17.4230  -21.2510  -11.3360 C.2     1  UNL1        0.0030
      4  C         18.7860  -21.5470  -11.4360 C.2     1  UNL1        0.0170
      5  C         19.4000  -22.3740  -10.4840 C.2     1  UNL1        0.0330
      6  C         18.6360  -22.9310   -9.4520 C.2     1  UNL1        0.0420
      7  S         16.3200  -23.3090   -8.0230 S.O2    1  UNL1        0.2630
      8  O         15.4560  -22.2720   -7.5010 O.2     1  UNL1       -0.2000
      9  O         15.7760  -24.5630   -8.4980 O.2     1  UNL1       -0.2000
     10  N         17.4850  -23.7070   -6.8720 N.pl3   1  UNL1       -0.2800
     11  H         18.1860  -24.3480   -7.2370 H       1  UNL1        0.1790
     12  C         17.8670  -22.7700   -5.8690 C.2     1  UNL1        0.0480
     13  C         18.8180  -21.7860   -6.1570 C.2     1  UNL1        0.0300
     14  C         19.2110  -20.8720   -5.1800 C.2     1  UNL1        0.0020
     15  C         18.6460  -20.9290   -3.9100 C.2     1  UNL1        0.0010
     16  C         17.6810  -21.8950   -3.6190 C.2     1  UNL1        0.0090
     17  C         17.2790  -22.8250   -4.5930 C.2     1  UNL1       -0.0350
     18  C         16.2190  -23.8320   -4.2400 C.3     1  UNL1        0.0500
     19  C         20.8540  -22.7040  -10.5440 C.2     1  UNL1        0.2560
     20  O         21.2510  -23.6760   -9.9120 O.2     1  UNL1       -0.2670
     21  N         21.6260  -21.8260  -11.2830 N.am    1  UNL1       -0.3230
     22  H         21.1730  -20.9910  -11.6280 H       1  UNL1        0.1690
     23  C         23.0120  -21.9130  -11.5350 C.2     1  UNL1        0.0350
     24  C         23.8740  -21.5840  -10.4780 C.2     1  UNL1        0.0320
     25  C         25.2610  -21.6380  -10.6470 C.2     1  UNL1        0.0440
     26  C         25.7850  -22.0190  -11.8740 C.2     1  UNL1        0.1160
     27  F         27.1130  -22.0730  -12.0380 F       1  UNL1       -0.2060
     28  C         24.9490  -22.3440  -12.9340 C.2     1  UNL1        0.0440
     29  C         23.5620  -22.2890  -12.7640 C.2     1  UNL1        0.0320
@<TRIPOS>BOND
     1    28    29    1
     2    28    26    2
     3    29    23    2
     4    27    26    1
     5    26    25    1
     6    22    21    1
     7    23    21    1
     8    23    24    1
     9     4     3    2
    10     4     5    1
    11     3     2    1
    12    21    19   am
    13    25    24    2
    14    19     5    1
    15    19    20    2
    16     5     6    2
    17     2     1    2
    18     6     1    1
    19     1     7    1
    20     9     7    2
    21     7     8    2
    22     7    10    1
    23    11    10    1
    24    10    12    1
    25    13    12    2
    26    13    14    1
    27    12    17    1
    28    14    15    2
    29    17    18    1
    30    17    16    2
    31    15    16    1
