@<TRIPOS>MOLECULE
33336_out_ligand_01.pdbqt
 29 31 0 0 0
SMALL
GASTEIGER

@<TRIPOS>ATOM
      1  C         17.9780  -22.5340   -9.7800 C.2     1  UNL1        0.0800
      2  C         17.5280  -21.6540  -10.7700 C.2     1  UNL1        0.0250
      3  C         18.4380  -21.1160  -11.6810 C.2     1  UNL1        0.0030
      4  C         19.7870  -21.4720  -11.6150 C.2     1  UNL1        0.0170
      5  C         20.2280  -22.3820  -10.6420 C.2     1  UNL1        0.0330
      6  C         19.3230  -22.9130   -9.7190 C.2     1  UNL1        0.0420
      7  S         16.8130  -23.2340   -8.6290 S.O2    1  UNL1        0.2630
      8  O         15.5850  -23.4750   -9.3580 O.2     1  UNL1       -0.2000
      9  O         17.4780  -24.3070   -7.9230 O.2     1  UNL1       -0.2000
     10  N         16.4810  -21.9620   -7.5750 N.pl3   1  UNL1       -0.2800
     11  H         16.8320  -21.0700   -7.9140 H       1  UNL1        0.1790
     12  C         16.4430  -22.1870   -6.1680 C.2     1  UNL1        0.0480
     13  C         15.2420  -22.5650   -5.5620 C.2     1  UNL1        0.0300
     14  C         15.1960  -22.8340   -4.1950 C.2     1  UNL1        0.0020
     15  C         16.3500  -22.7170   -3.4270 C.2     1  UNL1        0.0010
     16  C         17.5480  -22.3220   -4.0220 C.2     1  UNL1        0.0090
     17  C         17.6120  -22.0520   -5.3980 C.2     1  UNL1       -0.0350
     18  C         18.9230  -21.6280   -5.9990 C.3     1  UNL1        0.0500
     19  C         21.6590  -22.7780  -10.5440 C.2     1  UNL1        0.2560
     20  O         21.9790  -23.5780   -9.6760 O.2     1  UNL1       -0.2670
     21  N         22.4830  -22.2030  -11.4950 N.am    1  UNL1       -0.3230
     22  H         22.0360  -21.6650  -12.2260 H       1  UNL1        0.1690
     23  C         23.8810  -22.3600  -11.6180 C.2     1  UNL1        0.0370
     24  C         24.6910  -21.5020  -10.8590 C.2     1  UNL1        0.0290
     25  C         26.0840  -21.5930  -10.9150 C.2     1  UNL1        0.0050
     26  C         26.6810  -22.5480  -11.7330 C.2     1  UNL1        0.0420
     27  C         25.8780  -23.3990  -12.4820 C.2     1  UNL1        0.1180
     28  F         26.4560  -24.3210  -13.2640 F       1  UNL1       -0.2060
     29  C         24.4890  -23.3160  -12.4320 C.2     1  UNL1        0.0710
@<TRIPOS>BOND
     1    28    27    1
     2    27    29    1
     3    27    26    2
     4    29    23    2
     5    22    21    1
     6    26    25    1
     7     3     4    2
     8     3     2    1
     9    23    21    1
    10    23    24    1
    11     4     5    1
    12    21    19   am
    13    25    24    2
    14     2     1    2
    15     5    19    1
    16     5     6    2
    17    19    20    2
    18     1     6    1
    19     1     7    1
    20     8     7    2
    21     7     9    2
    22     7    10    1
    23    11    10    1
    24    10    12    1
    25    12    13    2
    26    12    17    1
    27    18    17    1
    28    13    14    1
    29    17    16    2
    30    14    15    2
    31    16    15    1
