@<TRIPOS>MOLECULE
33338_out_ligand_01.pdbqt
 30 32 0 0 0
SMALL
GASTEIGER

@<TRIPOS>ATOM
      1  C         17.2920  -22.7630   -9.1860 C.2     1  UNL1        0.0800
      2  C         16.7210  -21.9350  -10.1560 C.2     1  UNL1        0.0250
      3  C         17.5160  -21.4270  -11.1850 C.2     1  UNL1        0.0030
      4  C         18.8770  -21.7370  -11.2350 C.2     1  UNL1        0.0170
      5  C         19.4510  -22.5450  -10.2420 C.2     1  UNL1        0.0330
      6  C         18.6570  -23.0600   -9.2130 C.2     1  UNL1        0.0420
      7  S         16.2880  -23.4230   -7.8750 S.O2    1  UNL1        0.2630
      8  O         15.6540  -24.6280   -8.3620 O.2     1  UNL1       -0.2000
      9  O         15.5000  -22.3270   -7.3500 O.2     1  UNL1       -0.2000
     10  N         17.4140  -23.8100   -6.6820 N.pl3   1  UNL1       -0.2800
     11  H         17.3410  -24.7800   -6.3810 H       1  UNL1        0.1790
     12  C         17.8110  -22.8310   -5.7240 C.2     1  UNL1        0.0480
     13  C         18.7640  -21.8670   -6.0710 C.2     1  UNL1        0.0300
     14  C         19.1470  -20.8890   -5.1550 C.2     1  UNL1        0.0020
     15  C         18.5860  -20.8750   -3.8820 C.2     1  UNL1        0.0010
     16  C         17.6480  -21.8420   -3.5220 C.2     1  UNL1        0.0090
     17  C         17.2500  -22.8330   -4.4350 C.2     1  UNL1       -0.0350
     18  C         16.2520  -23.8680   -3.9950 C.3     1  UNL1        0.0500
     19  C         20.8900  -22.9190  -10.2780 C.2     1  UNL1        0.2560
     20  O         21.2330  -23.9320   -9.6840 O.2     1  UNL1       -0.2670
     21  N         21.7020  -22.0400  -10.9710 N.am    1  UNL1       -0.3230
     22  H         21.2730  -21.1830  -11.2980 H       1  UNL1        0.1690
     23  C         23.0900  -22.1590  -11.1960 C.2     1  UNL1        0.0360
     24  C         24.0610  -21.4800  -10.4530 C.2     1  UNL1        0.0320
     25  C         25.4210  -21.6540  -10.7330 C.2     1  UNL1        0.0460
     26  C         25.8130  -22.5100  -11.7550 C.2     1  UNL1        0.1380
     27  F         27.1210  -22.6630  -12.0050 F       1  UNL1       -0.2040
     28  C         24.8590  -23.1950  -12.5010 C.2     1  UNL1        0.0740
     29 CL         25.3320  -24.2610  -13.7670 Cl      1  UNL1       -0.0810
     30  C         23.5000  -23.0220  -12.2230 C.2     1  UNL1        0.0560
@<TRIPOS>BOND
     1    29    28    1
     2    28    30    1
     3    28    26    2
     4    30    23    2
     5    27    26    1
     6    26    25    1
     7    22    21    1
     8     4     3    2
     9     4     5    1
    10    23    21    1
    11    23    24    1
    12     3     2    1
    13    21    19   am
    14    25    24    2
    15    19     5    1
    16    19    20    2
    17     5     6    2
    18     2     1    2
    19     6     1    1
    20     1     7    1
    21     8     7    2
    22     7     9    2
    23     7    10    1
    24    10    11    1
    25    10    12    1
    26    13    12    2
    27    13    14    1
    28    12    17    1
    29    14    15    2
    30    17    18    1
    31    17    16    2
    32    15    16    1
