@<TRIPOS>MOLECULE
33333_out_ligand_01.pdbqt
 31 33 0 0 0
SMALL
GASTEIGER

@<TRIPOS>ATOM
      1  C         18.0770  -22.4220   -9.7890 C.2     1  UNL1        0.0800
      2  C         17.4680  -21.6350  -10.7710 C.2     1  UNL1        0.0250
      3  C         18.2590  -20.9890  -11.7210 C.2     1  UNL1        0.0030
      4  C         19.6500  -21.1210  -11.6820 C.2     1  UNL1        0.0170
      5  C         20.2570  -21.8940  -10.6810 C.2     1  UNL1        0.0330
      6  C         19.4670  -22.5540   -9.7340 C.2     1  UNL1        0.0420
      7  C         21.7330  -22.0650  -10.6090 C.2     1  UNL1        0.2510
      8  O         22.3760  -21.4730   -9.7490 O.2     1  UNL1       -0.2680
      9  N         22.3010  -22.8800  -11.5630 N.am    1  UNL1       -0.3530
     10  H         21.7530  -23.1530  -12.3680 H       1  UNL1        0.1630
     11  C         23.7360  -23.0090  -11.6810 C.3     1  UNL1        0.1630
     12  C         24.3160  -21.9060  -12.5310 C.2     1  UNL1       -0.0190
     13  C         23.6780  -21.5750  -13.7400 C.2     1  UNL1        0.0120
     14  C         24.1860  -20.5730  -14.5670 C.2     1  UNL1        0.0240
     15  C         25.3450  -19.8960  -14.1970 C.2     1  UNL1        0.0350
     16 CL         25.9730  -18.6590  -15.2160 Cl      1  UNL1       -0.0840
     17  C         26.0050  -20.2180  -13.0140 C.2     1  UNL1        0.0480
     18  C         25.4950  -21.2220  -12.1890 C.2     1  UNL1        0.0430
     19 CL         26.3780  -21.6040  -10.7530 Cl      1  UNL1       -0.0840
     20  S         17.0830  -23.2450   -8.5700 S.O2    1  UNL1        0.2630
     21  O         15.8560  -23.6410   -9.2260 O.2     1  UNL1       -0.2000
     22  O         17.9050  -24.2150   -7.8820 O.2     1  UNL1       -0.2000
     23  N         16.6720  -21.9900   -7.5170 N.pl3   1  UNL1       -0.2800
     24  H         15.9650  -21.3820   -7.9250 H       1  UNL1        0.1790
     25  C         16.5780  -22.2780   -6.1260 C.2     1  UNL1        0.0480
     26  C         15.3680  -22.7680   -5.6270 C.2     1  UNL1        0.0300
     27  C         15.2220  -23.0230   -4.2640 C.2     1  UNL1        0.0020
     28  C         16.2840  -22.7810   -3.3960 C.2     1  UNL1        0.0010
     29  C         17.4930  -22.2890   -3.8910 C.2     1  UNL1        0.0090
     30  C         17.6580  -22.0340   -5.2610 C.2     1  UNL1       -0.0350
     31  C         18.9660  -21.4830   -5.7550 C.3     1  UNL1        0.0500
@<TRIPOS>BOND
     1    16    15    1
     2    14    15    2
     3    14    13    1
     4    15    17    1
     5    13    12    2
     6    17    18    2
     7    12    18    1
     8    12    11    1
     9    10     9    1
    10    18    19    1
    11     3     4    2
    12     3     2    1
    13     4     5    1
    14    11     9    1
    15     9     7   am
    16     2     1    2
    17     5     7    1
    18     5     6    2
    19     7     8    2
    20     1     6    1
    21     1    20    1
    22    21    20    2
    23    20    22    2
    24    20    23    1
    25    24    23    1
    26    23    25    1
    27    25    26    2
    28    25    30    1
    29    31    30    1
    30    26    27    1
    31    30    29    2
    32    27    28    2
    33    29    28    1
