@<TRIPOS>MOLECULE
33349_out_ligand_01.pdbqt
 30 32 0 0 0
SMALL
GASTEIGER

@<TRIPOS>ATOM
      1  C         17.2750  -22.7030   -9.2590 C.2     1  UNL1        0.0800
      2  C         16.6570  -21.8990  -10.2220 C.2     1  UNL1        0.0250
      3  C         17.4170  -21.3630  -11.2630 C.2     1  UNL1        0.0030
      4  C         18.7830  -21.6410  -11.3480 C.2     1  UNL1        0.0170
      5  C         19.3900  -22.4730  -10.3970 C.2     1  UNL1        0.0330
      6  C         18.6350  -23.0070   -9.3480 C.2     1  UNL1        0.0420
      7  S         16.3190  -23.3860   -7.9240 S.O2    1  UNL1        0.2630
      8  O         15.4450  -22.3460   -7.4240 O.2     1  UNL1       -0.2000
      9  O         15.7830  -24.6490   -8.3850 O.2     1  UNL1       -0.2000
     10  N         17.4850  -23.7580   -6.7650 N.pl3   1  UNL1       -0.2800
     11  H         18.1990  -24.3880   -7.1240 H       1  UNL1        0.1790
     12  C         17.8640  -22.7880   -5.7900 C.2     1  UNL1        0.0480
     13  C         18.8000  -21.8030   -6.1200 C.2     1  UNL1        0.0300
     14  C         19.1990  -20.8600   -5.1730 C.2     1  UNL1        0.0020
     15  C         18.6570  -20.8920   -3.8920 C.2     1  UNL1        0.0010
     16  C         17.7100  -21.8610   -3.5600 C.2     1  UNL1        0.0090
     17  C         17.2990  -22.8190   -4.5020 C.2     1  UNL1       -0.0350
     18  C         16.2600  -23.8310   -4.1050 C.3     1  UNL1        0.0500
     19  C         20.8480  -22.7700  -10.4380 C.2     1  UNL1        0.2560
     20  O         21.2480  -23.7560   -9.8320 O.2     1  UNL1       -0.2670
     21  N         21.5990  -21.8940  -11.1990 N.am    1  UNL1       -0.3230
     22  H         21.0890  -21.2020  -11.7350 H       1  UNL1        0.1690
     23  C         22.9970  -21.9100  -11.3880 C.2     1  UNL1        0.0380
     24  C         23.9240  -21.5770  -10.3920 C.2     1  UNL1        0.0320
     25  C         25.2980  -21.6090  -10.6570 C.2     1  UNL1        0.0480
     26  C         25.7470  -21.9740  -11.9190 C.2     1  UNL1        0.1540
     27  F         27.0620  -22.0030  -12.1690 F       1  UNL1       -0.2030
     28  C         24.8360  -22.3030  -12.9110 C.2     1  UNL1        0.1570
     29  F         25.2640  -22.6530  -14.1330 F       1  UNL1       -0.2030
     30  C         23.4670  -22.2720  -12.6560 C.2     1  UNL1        0.0750
@<TRIPOS>BOND
     1    29    28    1
     2    28    30    1
     3    28    26    2
     4    30    23    2
     5    27    26    1
     6    26    25    1
     7    22    21    1
     8    23    21    1
     9    23    24    1
    10     4     3    2
    11     4     5    1
    12     3     2    1
    13    21    19   am
    14    25    24    2
    15    19     5    1
    16    19    20    2
    17     5     6    2
    18     2     1    2
    19     6     1    1
    20     1     7    1
    21     9     7    2
    22     7     8    2
    23     7    10    1
    24    11    10    1
    25    10    12    1
    26    13    12    2
    27    13    14    1
    28    12    17    1
    29    14    15    2
    30    17    18    1
    31    17    16    2
    32    15    16    1
