@<TRIPOS>MOLECULE
33345_out_ligand_01.pdbqt
 32 35 0 0 0
SMALL
GASTEIGER

@<TRIPOS>ATOM
      1  C         17.0830  -22.7770   -9.0370 C.2     1  UNL1        0.0800
      2  C         16.3730  -21.9660   -9.9280 C.2     1  UNL1        0.0250
      3  C         17.0370  -21.3870  -11.0100 C.2     1  UNL1        0.0030
      4  C         18.3990  -21.6250  -11.2050 C.2     1  UNL1        0.0170
      5  C         19.0990  -22.4620  -10.3240 C.2     1  UNL1        0.0330
      6  C         18.4400  -23.0420   -9.2360 C.2     1  UNL1        0.0420
      7  C         20.5570  -22.7120  -10.4800 C.2     1  UNL1        0.2560
      8  O         21.0320  -23.6860   -9.9120 O.2     1  UNL1       -0.2670
      9  N         21.2150  -21.8080  -11.2940 N.am    1  UNL1       -0.3230
     10  H         20.6440  -21.1360  -11.7890 H       1  UNL1        0.1690
     11  C         22.5950  -21.7730  -11.5890 C.2     1  UNL1        0.0370
     12  C         23.4780  -21.7530  -10.4990 C.2     1  UNL1        0.0320
     13  C         24.8600  -21.7160  -10.6990 C.2     1  UNL1        0.0420
     14  C         25.3710  -21.6990  -11.9920 C.2     1  UNL1        0.1020
     15  C         24.5010  -21.7510  -13.0840 C.2     1  UNL1        0.1040
     16  O         26.7350  -21.6410  -12.1170 O.2     1  UNL1       -0.3460
     17  C         23.1180  -21.7730  -12.8840 C.2     1  UNL1        0.0690
     18  O         24.9350  -21.7750  -14.3870 O.2     1  UNL1       -0.3460
     19  C         26.3290  -22.0890  -14.4680 C.3     1  UNL1        0.2020
     20  C         27.1200  -21.2860  -13.4500 C.3     1  UNL1        0.2020
     21  S         16.2540  -23.5110   -7.6450 S.O2    1  UNL1        0.2630
     22  O         15.3470  -22.5260   -7.0960 O.2     1  UNL1       -0.2000
     23  O         15.7720  -24.8080   -8.0710 O.2     1  UNL1       -0.2000
     24  N         17.5070  -23.8030   -6.5570 N.pl3   1  UNL1       -0.2800
     25  H         18.2020  -24.4450   -6.9330 H       1  UNL1        0.1790
     26  C         17.9480  -22.7700   -5.6770 C.2     1  UNL1        0.0480
     27  C         18.8380  -21.7960   -6.1420 C.2     1  UNL1        0.0300
     28  C         19.2970  -20.7920   -5.2910 C.2     1  UNL1        0.0020
     29  C         18.8610  -20.7500   -3.9700 C.2     1  UNL1        0.0010
     30  C         17.9600  -21.7070   -3.5040 C.2     1  UNL1        0.0090
     31  C         17.4890  -22.7260   -4.3480 C.2     1  UNL1       -0.0350
     32  C         16.5020  -23.7210   -3.8060 C.3     1  UNL1        0.0500
@<TRIPOS>BOND
     1    19    18    1
     2    19    20    1
     3    18    15    1
     4    20    16    1
     5    15    17    1
     6    15    14    2
     7    17    11    2
     8    16    14    1
     9    14    13    1
    10    10     9    1
    11    11     9    1
    12    11    12    1
    13     9     7   am
    14     4     3    2
    15     4     5    1
    16     3     2    1
    17    13    12    2
    18     7     5    1
    19     7     8    2
    20     5     6    2
    21     2     1    2
    22     6     1    1
    23     1    21    1
    24    23    21    2
    25    21    22    2
    26    21    24    1
    27    25    24    1
    28    24    26    1
    29    27    26    2
    30    27    28    1
    31    26    31    1
    32    28    29    2
    33    31    32    1
    34    31    30    2
    35    29    30    1
