@<TRIPOS>MOLECULE
33347_out_ligand_01.pdbqt
 32 34 0 0 0
SMALL
GASTEIGER

@<TRIPOS>ATOM
      1  C         18.0240  -22.5780   -9.6910 C.2     1  UNL1        0.0800
      2  C         17.4280  -21.7600  -10.6590 C.2     1  UNL1        0.0250
      3  C         18.2180  -21.1730  -11.6480 C.2     1  UNL1        0.0030
      4  C         19.5930  -21.4180  -11.6830 C.2     1  UNL1        0.0170
      5  C         20.1810  -22.2680  -10.7330 C.2     1  UNL1        0.0330
      6  C         19.3950  -22.8470   -9.7310 C.2     1  UNL1        0.0420
      7  C         21.6420  -22.5490  -10.7440 C.2     1  UNL1        0.2560
      8  O         22.0500  -23.4920  -10.0790 O.2     1  UNL1       -0.2670
      9  N         22.3840  -21.7050  -11.5530 N.am    1  UNL1       -0.3220
     10  H         21.8470  -21.0800  -12.1360 H       1  UNL1        0.1690
     11  C         23.7870  -21.7020  -11.7530 C.2     1  UNL1        0.0430
     12  C         24.6870  -21.7940  -10.6780 C.2     1  UNL1        0.0300
     13  C         26.0700  -21.8260  -10.8760 C.2     1  UNL1        0.0050
     14  C         26.5830  -21.7790  -12.1630 C.2     1  UNL1        0.0370
     15  C         25.6980  -21.6830  -13.2420 C.2     1  UNL1        0.1110
     16  C         24.2960  -21.6060  -13.0730 C.2     1  UNL1       -0.0020
     17  C         23.3740  -21.4500  -14.2580 C.3     1  UNL1        0.0530
     18  N         26.2950  -21.6870  -14.5690 N.pl3   1  UNL1       -0.1150
     19  O         26.6280  -20.5910  -15.0410 O.2     1  UNL1       -0.5320
     20  O         26.4370  -22.7850  -15.1250 O.2     1  UNL1       -0.5320
     21  S         17.0120  -23.3410   -8.4420 S.O2    1  UNL1        0.2630
     22  O         17.8350  -24.2920   -7.7260 O.2     1  UNL1       -0.2000
     23  O         15.7820  -23.7580   -9.0840 O.2     1  UNL1       -0.2000
     24  N         16.5940  -22.0600   -7.4310 N.pl3   1  UNL1       -0.2800
     25  H         16.9120  -21.1610   -7.7850 H       1  UNL1        0.1790
     26  C         16.5270  -22.2500   -6.0200 C.2     1  UNL1        0.0480
     27  C         15.3370  -22.7000   -5.4400 C.2     1  UNL1        0.0300
     28  C         15.2650  -22.9310   -4.0670 C.2     1  UNL1        0.0020
     29  C         16.3800  -22.7040   -3.2660 C.2     1  UNL1        0.0010
     30  C         17.5650  -22.2380   -3.8370 C.2     1  UNL1        0.0090
     31  C         17.6550  -22.0040   -5.2180 C.2     1  UNL1       -0.0350
     32  C         18.9490  -21.4970   -5.7900 C.3     1  UNL1        0.0500
@<TRIPOS>BOND
     1    20    18    2
     2    19    18    2
     3    18    15    1
     4    17    16    1
     5    15    16    1
     6    15    14    2
     7    16    11    2
     8    14    13    1
     9    10     9    1
    10    11     9    1
    11    11    12    1
    12     4     3    2
    13     4     5    1
    14     3     2    1
    15     9     7   am
    16    13    12    2
    17     7     5    1
    18     7     8    2
    19     5     6    2
    20     2     1    2
    21     6     1    1
    22     1    21    1
    23    23    21    2
    24    21    22    2
    25    21    24    1
    26    25    24    1
    27    24    26    1
    28    26    27    2
    29    26    31    1
    30    32    31    1
    31    27    28    1
    32    31    30    2
    33    28    29    2
    34    30    29    1
