@<TRIPOS>MOLECULE
33346_out_ligand_01.pdbqt
 32 34 0 0 0
SMALL
GASTEIGER

@<TRIPOS>ATOM
      1  C         18.3590  -23.3660   -8.7810 C.2     1  UNL1        0.0750
      2  C         19.0380  -24.4020   -8.1320 C.2     1  UNL1        0.0250
      3  C         20.3840  -24.6270   -8.4150 C.2     1  UNL1        0.0030
      4  C         21.0470  -23.8250   -9.3480 C.2     1  UNL1        0.0170
      5  C         20.3610  -22.7920  -10.0040 C.2     1  UNL1        0.0330
      6  C         19.0150  -22.5470   -9.7050 C.2     1  UNL1        0.0410
      7  C         21.0350  -21.9140  -11.0040 C.2     1  UNL1        0.2560
      8  O         20.4910  -20.8590  -11.3020 O.2     1  UNL1       -0.2670
      9  N         22.2100  -22.4220  -11.5280 N.am    1  UNL1       -0.3230
     10  H         22.4540  -23.3710  -11.2790 H       1  UNL1        0.1690
     11  C         23.0690  -21.7970  -12.4570 C.2     1  UNL1        0.0350
     12  C         22.6590  -21.3240  -13.7050 C.2     1  UNL1        0.0300
     13  C         23.5750  -20.7130  -14.5710 C.2     1  UNL1        0.0180
     14  C         24.9160  -20.5530  -14.2010 C.2     1  UNL1        0.0480
     15  C         25.3270  -21.0320  -12.9490 C.2     1  UNL1        0.0180
     16  C         24.4100  -21.6430  -12.0860 C.2     1  UNL1        0.0300
     17  C         25.9090  -19.9190  -15.1440 C.3     1  UNL1        0.4170
     18  F         26.1750  -18.6240  -14.8200 F       1  UNL1       -0.1660
     19  F         25.4710  -19.8970  -16.4360 F       1  UNL1       -0.1660
     20  F         27.1120  -20.5550  -15.1710 F       1  UNL1       -0.1660
     21  S         16.6520  -23.0600   -8.3830 S.O2    1  UNL1        0.2450
     22  O         16.0990  -24.2810   -7.8400 O.2     1  UNL1       -0.2060
     23  O         16.0630  -22.3850   -9.5180 O.2     1  UNL1       -0.2060
     24  N         16.8450  -21.9890   -7.0690 N.pl3   1  UNL1       -0.1810
     25  H         17.7950  -21.6200   -7.1350 H       1  UNL1        0.1460
     26  C         16.6060  -22.5710   -5.7780 C.2     1  UNL1        0.0280
     27  C         17.6980  -23.1360   -5.1110 C.2     1  UNL1        0.0250
     28  C         17.5410  -23.6790   -3.8370 C.2     1  UNL1        0.0020
     29  C         16.2940  -23.6470   -3.2200 C.2     1  UNL1        0.0010
     30  C         15.2040  -23.0710   -3.8750 C.2     1  UNL1        0.0080
     31  C         15.3430  -22.5230   -5.1620 C.2     1  UNL1       -0.0400
     32  C         14.1480  -21.8800   -5.8090 C.3     1  UNL1        0.0500
@<TRIPOS>BOND
     1    19    17    1
     2    20    17    1
     3    17    18    1
     4    17    14    1
     5    13    14    2
     6    13    12    1
     7    14    15    1
     8    12    11    2
     9    15    16    2
    10    11    16    1
    11    11     9    1
    12     9    10    1
    13     9     7   am
    14     8     7    2
    15     7     5    1
    16     5     6    1
    17     5     4    2
    18     6     1    2
    19    23    21    2
    20     4     3    1
    21     1    21    1
    22     1     2    1
    23     3     2    2
    24    21    22    2
    25    21    24    1
    26    25    24    1
    27    24    26    1
    28    32    31    1
    29    26    31    2
    30    26    27    1
    31    31    30    1
    32    27    28    2
    33    30    29    2
    34    28    29    1
