@<TRIPOS>MOLECULE
33342_out_ligand_01.pdbqt
 31 33 0 0 0
SMALL
GASTEIGER

@<TRIPOS>ATOM
      1  C         20.1800  -22.3880  -10.5680 C.2     1  UNL1        0.0330
      2  C         19.7130  -21.4920  -11.5400 C.2     1  UNL1        0.0170
      3  C         18.3580  -21.1590  -11.5940 C.2     1  UNL1        0.0030
      4  C         17.4670  -21.7070  -10.6700 C.2     1  UNL1        0.0250
      5  C         17.9430  -22.5730   -9.6800 C.2     1  UNL1        0.0800
      6  C         19.2940  -22.9290   -9.6310 C.2     1  UNL1        0.0420
      7  C         21.6180  -22.7620  -10.4850 C.2     1  UNL1        0.2560
      8  N         22.4300  -22.1340  -11.4140 N.am    1  UNL1       -0.3230
      9  H         21.9650  -21.5810  -12.1220 H       1  UNL1        0.1690
     10  O         21.9530  -23.5900   -9.6490 O.2     1  UNL1       -0.2670
     11  C         23.8300  -22.2590  -11.5460 C.2     1  UNL1        0.0350
     12  C         24.7480  -21.5190  -10.7980 C.2     1  UNL1        0.0290
     13  C         26.1220  -21.6890  -10.9920 C.2     1  UNL1        0.0030
     14  C         26.5890  -22.6000  -11.9350 C.2     1  UNL1        0.0150
     15  C         25.6850  -23.3510  -12.6940 C.2     1  UNL1        0.0110
     16  C         24.3070  -23.1740  -12.4970 C.2     1  UNL1        0.0440
     17  C         26.2300  -24.3160  -13.6950 C.2     1  UNL1        0.1550
     18  C         25.6840  -24.3010  -15.0990 C.3     1  UNL1        0.0960
     19  O         27.1150  -25.1050  -13.3690 O.2     1  UNL1       -0.2930
     20  S         16.8010  -23.2890   -8.5160 S.O2    1  UNL1        0.2630
     21  O         15.5710  -23.5550   -9.2330 O.2     1  UNL1       -0.2000
     22  O         17.4920  -24.3450   -7.8110 O.2     1  UNL1       -0.2000
     23  N         16.4560  -22.0180   -7.4650 N.pl3   1  UNL1       -0.2800
     24  H         16.7910  -21.1220   -7.8080 H       1  UNL1        0.1790
     25  C         16.4260  -22.2390   -6.0570 C.2     1  UNL1        0.0480
     26  C         15.2380  -22.6550   -5.4490 C.2     1  UNL1        0.0300
     27  C         15.2010  -22.9170   -4.0800 C.2     1  UNL1        0.0020
     28  C         16.3480  -22.7540   -3.3110 C.2     1  UNL1        0.0010
     29  C         17.5330  -22.3230   -3.9100 C.2     1  UNL1        0.0090
     30  C         17.5890  -22.0590   -5.2870 C.2     1  UNL1       -0.0350
     31  C         18.8840  -21.5920   -5.8890 C.3     1  UNL1        0.0500
@<TRIPOS>BOND
     1    18    17    1
     2    17    19    2
     3    17    15    1
     4    15    16    1
     5    15    14    2
     6    16    11    2
     7     9     8    1
     8    14    13    1
     9     3     2    1
    10     3     4    2
    11    11     8    1
    12    11    12    1
    13     2     1    2
    14     8     7   am
    15    13    12    2
    16     4     5    1
    17     1     7    1
    18     1     6    1
    19     7    10    2
    20     5     6    2
    21     5    20    1
    22    21    20    2
    23    20    22    2
    24    20    23    1
    25    24    23    1
    26    23    25    1
    27    25    26    2
    28    25    30    1
    29    31    30    1
    30    26    27    1
    31    30    29    2
    32    27    28    2
    33    29    28    1
