@<TRIPOS>MOLECULE
33341_out_ligand_01.pdbqt
 31 33 0 0 0
SMALL
GASTEIGER

@<TRIPOS>ATOM
      1  C         17.9090  -22.5450   -9.9080 C.2     1  UNL1        0.0800
      2  C         17.4550  -21.6480  -10.8800 C.2     1  UNL1        0.0250
      3  C         18.3640  -21.0860  -11.7770 C.2     1  UNL1        0.0030
      4  C         19.7210  -21.4110  -11.6960 C.2     1  UNL1        0.0170
      5  C         20.1730  -22.2890  -10.7010 C.2     1  UNL1        0.0330
      6  C         19.2660  -22.8590   -9.8020 C.2     1  UNL1        0.0420
      7  C         21.6030  -22.6840  -10.6030 C.2     1  UNL1        0.2560
      8  O         21.9160  -23.4970   -9.7430 O.2     1  UNL1       -0.2670
      9  N         22.4480  -22.0450  -11.4920 N.am    1  UNL1       -0.3230
     10  H         22.0490  -21.2910  -12.0380 H       1  UNL1        0.1690
     11  C         23.8340  -22.2550  -11.6520 C.2     1  UNL1        0.0370
     12  C         24.6900  -21.4540  -10.8810 C.2     1  UNL1        0.0290
     13  C         26.0780  -21.5890  -10.9720 C.2     1  UNL1        0.0050
     14  C         26.6310  -22.5260  -11.8400 C.2     1  UNL1        0.0360
     15  C         25.7800  -23.3230  -12.6170 C.2     1  UNL1        0.1050
     16  C         24.3850  -23.1920  -12.5280 C.2     1  UNL1        0.0650
     17  N         26.3620  -24.3050  -13.5420 N.pl3   1  UNL1       -0.1160
     18  O         26.0710  -24.2150  -14.7430 O.2     1  UNL1       -0.5320
     19  O         27.1200  -25.1620  -13.0650 O.2     1  UNL1       -0.5320
     20  S         16.7600  -23.2750   -8.7650 S.O2    1  UNL1        0.2630
     21  O         15.5440  -23.5490   -9.5010 O.2     1  UNL1       -0.2000
     22  O         17.4500  -24.3290   -8.0520 O.2     1  UNL1       -0.2000
     23  N         16.4050  -22.0100   -7.7090 N.pl3   1  UNL1       -0.2800
     24  H         16.7590  -21.1170   -8.0430 H       1  UNL1        0.1790
     25  C         16.3640  -22.2390   -6.3010 C.2     1  UNL1        0.0480
     26  C         15.1510  -22.5550   -5.6830 C.2     1  UNL1        0.0300
     27  C         15.0970  -22.8010   -4.3120 C.2     1  UNL1        0.0020
     28  C         16.2570  -22.7250   -3.5490 C.2     1  UNL1        0.0010
     29  C         17.4690  -22.3940   -4.1540 C.2     1  UNL1        0.0090
     30  C         17.5400  -22.1440   -5.5350 C.2     1  UNL1       -0.0350
     31  C         18.8660  -21.7680   -6.1380 C.3     1  UNL1        0.0500
@<TRIPOS>BOND
     1    18    17    2
     2    17    19    2
     3    17    15    1
     4    15    16    1
     5    15    14    2
     6    16    11    2
     7    10     9    1
     8    14    13    1
     9     3     4    2
    10     3     2    1
    11     4     5    1
    12    11     9    1
    13    11    12    1
    14     9     7   am
    15    13    12    2
    16     2     1    2
    17     5     7    1
    18     5     6    2
    19     7     8    2
    20     1     6    1
    21     1    20    1
    22    21    20    2
    23    20    22    2
    24    20    23    1
    25    24    23    1
    26    23    25    1
    27    25    26    2
    28    25    30    1
    29    31    30    1
    30    26    27    1
    31    30    29    2
    32    27    28    2
    33    29    28    1
