@<TRIPOS>MOLECULE
33343_out_ligand_01.pdbqt
 33 35 0 0 0
SMALL
GASTEIGER

@<TRIPOS>ATOM
      1  C         19.5050  -22.3880  -10.4650 C.2     1  UNL1        0.0330
      2  C         18.9210  -21.5480  -11.4250 C.2     1  UNL1        0.0170
      3  C         17.5610  -21.2360  -11.3490 C.2     1  UNL1        0.0030
      4  C         16.7780  -21.7670  -10.3240 C.2     1  UNL1        0.0250
      5  C         17.3610  -22.6240   -9.3840 C.2     1  UNL1        0.0800
      6  C         18.7220  -22.9360   -9.4450 C.2     1  UNL1        0.0420
      7  C         20.9480  -22.7490  -10.5250 C.2     1  UNL1        0.2560
      8  N         21.7480  -21.8210  -11.1660 N.am    1  UNL1       -0.3220
      9  H         21.3000  -20.9540  -11.4230 H       1  UNL1        0.1690
     10  O         21.2980  -23.7910   -9.9860 O.2     1  UNL1       -0.2670
     11  C         23.1350  -21.9160  -11.4470 C.2     1  UNL1        0.0420
     12  C         24.0610  -22.2560  -10.4510 C.2     1  UNL1        0.0300
     13  C         25.4170  -22.4100  -10.7410 C.2     1  UNL1        0.0030
     14  C         25.8670  -22.2460  -12.0440 C.2     1  UNL1        0.0180
     15  C         24.9640  -21.9010  -13.0600 C.2     1  UNL1        0.0470
     16  C         23.5920  -21.6990  -12.7720 C.2     1  UNL1       -0.0190
     17  C         22.6440  -21.2750  -13.8690 C.3     1  UNL1        0.0520
     18  C         25.4870  -21.8170  -14.4480 C.2     1  UNL1        0.2930
     19  O         25.9120  -20.7950  -14.9620 O.2     1  UNL1       -0.2590
     20  O         25.4340  -23.0450  -15.0230 O.3     1  UNL1       -0.3230
     21  C         24.8310  -23.0510  -16.3170 C.3     1  UNL1        0.2130
     22  S         16.3760  -23.3040   -8.0740 S.O2    1  UNL1        0.2630
     23  O         15.6190  -22.2080   -7.5070 O.2     1  UNL1       -0.2000
     24  O         15.7120  -24.4920   -8.5620 O.2     1  UNL1       -0.2000
     25  N         17.5330  -23.7250   -6.9190 N.pl3   1  UNL1       -0.2800
     26  H         18.2900  -24.2680   -7.3300 H       1  UNL1        0.1790
     27  C         17.8720  -22.7680   -5.9200 C.2     1  UNL1        0.0480
     28  C         18.8450  -21.8100   -6.2190 C.2     1  UNL1        0.0300
     29  C         19.2360  -20.8810   -5.2560 C.2     1  UNL1        0.0020
     30  C         18.6590  -20.9120   -3.9890 C.2     1  UNL1        0.0010
     31  C         17.6900  -21.8700   -3.6860 C.2     1  UNL1        0.0090
     32  C         17.2790  -22.8070   -4.6480 C.2     1  UNL1       -0.0350
     33  C         16.2480  -23.8370   -4.2790 C.3     1  UNL1        0.0500
@<TRIPOS>BOND
     1    21    20    1
     2    20    18    1
     3    19    18    2
     4    18    15    1
     5    17    16    1
     6    15    16    1
     7    15    14    2
     8    16    11    2
     9    14    13    1
    10    11     8    1
    11    11    12    1
    12     2     3    1
    13     2     1    2
    14     9     8    1
    15     3     4    2
    16     8     7   am
    17    13    12    2
    18     7     1    1
    19     7    10    2
    20     1     6    1
    21     4     5    1
    22     6     5    2
    23     5    22    1
    24    24    22    2
    25    22    23    2
    26    22    25    1
    27    26    25    1
    28    25    27    1
    29    28    27    2
    30    28    29    1
    31    27    32    1
    32    29    30    2
    33    32    33    1
    34    32    31    2
    35    30    31    1
