@<TRIPOS>MOLECULE
33354_out_ligand_01.pdbqt
 29 31 0 0 0
SMALL
GASTEIGER

@<TRIPOS>ATOM
      1  C         16.9880  -22.8110   -9.0540 C.2     1  UNL1        0.0800
      2  C         16.2900  -21.9570   -9.9150 C.2     1  UNL1        0.0250
      3  C         16.9510  -21.3810  -11.0000 C.2     1  UNL1        0.0030
      4  C         18.3020  -21.6550  -11.2220 C.2     1  UNL1        0.0170
      5  C         18.9990  -22.5150  -10.3590 C.2     1  UNL1        0.0330
      6  C         18.3330  -23.1180   -9.2870 C.2     1  UNL1        0.0420
      7  S         16.1450  -23.5500   -7.6730 S.O2    1  UNL1        0.2630
      8  O         15.5470  -24.7880   -8.1210 O.2     1  UNL1       -0.2000
      9  O         15.3450  -22.5150   -7.0510 O.2     1  UNL1       -0.2000
     10  N         17.3940  -23.8780   -6.5850 N.pl3   1  UNL1       -0.2800
     11  H         17.3800  -24.8400   -6.2560 H       1  UNL1        0.1790
     12  C         17.8630  -22.8600   -5.7050 C.2     1  UNL1        0.0480
     13  C         18.7670  -21.9020   -6.1740 C.2     1  UNL1        0.0300
     14  C         19.2010  -20.8730   -5.3410 C.2     1  UNL1        0.0020
     15  C         18.7420  -20.8020   -4.0300 C.2     1  UNL1        0.0010
     16  C         17.8530  -21.7630   -3.5490 C.2     1  UNL1        0.0090
     17  C         17.4020  -22.8040   -4.3770 C.2     1  UNL1       -0.0350
     18  C         16.4530  -23.8240   -3.8180 C.3     1  UNL1        0.0500
     19  C         20.4410  -22.8260  -10.5640 C.2     1  UNL1        0.2560
     20  O         20.8540  -23.9220  -10.2080 O.2     1  UNL1       -0.2670
     21  N         21.1780  -21.7980  -11.1140 N.am    1  UNL1       -0.3220
     22  H         20.7160  -20.9040  -11.2380 H       1  UNL1        0.1690
     23  C         22.5530  -21.7940  -11.4480 C.2     1  UNL1        0.0520
     24  C         23.0200  -21.8210  -12.7640 C.2     1  UNL1        0.0310
     25  C         24.3930  -21.8110  -13.0360 C.2     1  UNL1        0.0020
     26  C         25.3170  -21.7700  -11.9950 C.2     1  UNL1        0.0020
     27  C         24.8710  -21.7390  -10.6760 C.2     1  UNL1        0.0210
     28  C         23.4990  -21.7500  -10.4060 C.2     1  UNL1        0.0370
     29 BR         22.9590  -21.7040   -8.5800 Br      1  UNL1       -0.0490
@<TRIPOS>BOND
     1    25    24    1
     2    25    26    2
     3    24    23    2
     4    26    27    1
     5    23    21    1
     6    23    28    1
     7    22    21    1
     8     4     3    2
     9     4     5    1
    10    21    19   am
    11     3     2    1
    12    27    28    2
    13    19     5    1
    14    19    20    2
    15    28    29    1
    16     5     6    2
    17     2     1    2
    18     6     1    1
    19     1     7    1
    20     8     7    2
    21     7     9    2
    22     7    10    1
    23    10    11    1
    24    10    12    1
    25    13    12    2
    26    13    14    1
    27    12    17    1
    28    14    15    2
    29    17    18    1
    30    17    16    2
    31    15    16    1
