@<TRIPOS>MOLECULE
33350_out_ligand_01.pdbqt
 34 37 0 0 0
SMALL
GASTEIGER

@<TRIPOS>ATOM
      1  C         17.7680  -23.5620   -8.4790 C.2     1  UNL1        0.0800
      2  C         17.2200  -22.6890   -9.4240 C.2     1  UNL1        0.0250
      3  C         18.0430  -22.1300  -10.4000 C.2     1  UNL1        0.0030
      4  C         19.4090  -22.4250  -10.4140 C.2     1  UNL1        0.0170
      5  C         19.9620  -23.2690   -9.4410 C.2     1  UNL1        0.0330
      6  C         19.1380  -23.8450   -8.4700 C.2     1  UNL1        0.0420
      7  C         21.4220  -23.5500   -9.4930 C.2     1  UNL1        0.2510
      8  O         21.8620  -24.5790   -8.9970 O.2     1  UNL1       -0.2680
      9  N         22.1970  -22.6090  -10.1360 N.am    1  UNL1       -0.3530
     10  H         21.7420  -21.9300  -10.7310 H       1  UNL1        0.1630
     11  C         23.6000  -22.8470  -10.4000 C.3     1  UNL1        0.1610
     12  C         23.9100  -22.6340  -11.8580 C.2     1  UNL1       -0.0400
     13  C         25.0320  -23.2150  -12.4490 C.2     1  UNL1        0.0110
     14  C         25.3230  -22.9850  -13.8020 C.2     1  UNL1        0.0300
     15  C         24.5180  -22.1720  -14.6130 C.2     1  UNL1        0.0300
     16  C         23.4000  -21.5930  -13.9940 C.2     1  UNL1        0.0300
     17  C         23.0980  -21.8130  -12.6430 C.2     1  UNL1        0.0110
     18  N         24.8090  -21.9510  -15.9400 N.pl3   1  UNL1       -0.3810
     19  C         24.9380  -23.0060  -16.9420 C.3     1  UNL1        0.1230
     20  C         25.5390  -22.2930  -18.1490 C.3     1  UNL1        0.0210
     21  C         24.9770  -20.8880  -18.0320 C.3     1  UNL1        0.0210
     22  C         25.0060  -20.6300  -16.5280 C.3     1  UNL1        0.1230
     23  S         16.7230  -24.2850   -7.2330 S.O2    1  UNL1        0.2630
     24  O         15.5420  -24.7850   -7.9090 O.2     1  UNL1       -0.2000
     25  O         17.5380  -25.1580   -6.4170 O.2     1  UNL1       -0.2000
     26  N         16.2130  -22.9580   -6.3300 N.pl3   1  UNL1       -0.2800
     27  H         15.5390  -22.3790   -6.8240 H       1  UNL1        0.1790
     28  C         17.1040  -22.3300   -5.4110 C.2     1  UNL1        0.0480
     29  C         18.1090  -21.4870   -5.8940 C.2     1  UNL1        0.0300
     30  C         18.9740  -20.8410   -5.0120 C.2     1  UNL1        0.0020
     31  C         18.8390  -21.0380   -3.6410 C.2     1  UNL1        0.0010
     32  C         17.8460  -21.8870   -3.1530 C.2     1  UNL1        0.0090
     33  C         16.9680  -22.5460   -4.0290 C.2     1  UNL1       -0.0350
     34  C         15.9180  -23.4580   -3.4600 C.3     1  UNL1        0.0500
@<TRIPOS>BOND
     1    20    21    1
     2    20    19    1
     3    21    22    1
     4    19    18    1
     5    22    18    1
     6    18    15    1
     7    15    16    2
     8    15    14    1
     9    16    17    1
    10    14    13    2
    11    17    12    2
    12    13    12    1
    13    12    11    1
    14    10     9    1
    15     4     3    2
    16     4     5    1
    17    11     9    1
    18     3     2    1
    19     9     7   am
    20     7     5    1
    21     7     8    2
    22     5     6    2
    23     2     1    2
    24     1     6    1
    25     1    23    1
    26    24    23    2
    27    23    25    2
    28    23    26    1
    29    27    26    1
    30    26    28    1
    31    29    28    2
    32    29    30    1
    33    28    33    1
    34    30    31    2
    35    33    34    1
    36    33    32    2
    37    31    32    1
