@<TRIPOS>MOLECULE
33355_out_ligand_01.pdbqt
 30 32 0 0 0
SMALL
GASTEIGER

@<TRIPOS>ATOM
      1  C         18.7790  -22.3890  -10.0480 C.2     1  UNL1        0.0330
      2  C         18.5150  -21.6140  -11.1860 C.2     1  UNL1        0.0170
      3  C         19.5700  -21.0900  -11.9380 C.2     1  UNL1        0.0030
      4  C         20.8900  -21.3510  -11.5680 C.2     1  UNL1        0.0250
      5  C         21.1470  -22.1450  -10.4470 C.2     1  UNL1        0.0800
      6  C         20.1010  -22.6530   -9.6740 C.2     1  UNL1        0.0420
      7  C         17.6870  -22.9860   -9.2360 C.2     1  UNL1        0.2510
      8  N         18.0730  -23.6550   -8.0950 N.am    1  UNL1       -0.3530
      9  H         19.0450  -23.9020   -7.9850 H       1  UNL1        0.1630
     10  O         16.5250  -22.8820   -9.6150 O.2     1  UNL1       -0.2680
     11  C         17.1240  -24.4190   -7.3160 C.3     1  UNL1        0.1610
     12  C         16.7680  -23.6870   -6.0460 C.2     1  UNL1       -0.0400
     13  C         15.4850  -23.8120   -5.4980 C.2     1  UNL1        0.0090
     14  C         15.1590  -23.1650   -4.3070 C.2     1  UNL1        0.0010
     15  C         16.1120  -22.3860   -3.6520 C.2     1  UNL1        0.0070
     16  C         17.3970  -22.2410   -4.1860 C.2     1  UNL1       -0.0610
     17  C         18.4320  -21.4310   -3.4620 C.3     1  UNL1        0.0480
     18  C         17.7230  -22.9070   -5.3750 C.2     1  UNL1        0.0150
     19  S         22.8240  -22.4920   -9.9670 S.O2    1  UNL1        0.2630
     20  O         23.5030  -21.2290   -9.7710 O.2     1  UNL1       -0.2000
     21  O         22.7720  -23.4810   -8.9110 O.2     1  UNL1       -0.2000
     22  N         23.4590  -23.2760  -11.3190 N.pl3   1  UNL1       -0.2800
     23  H         22.7780  -23.8880  -11.7630 H       1  UNL1        0.1790
     24  C         24.4190  -22.6200  -12.1450 C.2     1  UNL1        0.0480
     25  C         23.9890  -21.8540  -13.2340 C.2     1  UNL1        0.0300
     26  C         24.9140  -21.2230  -14.0650 C.2     1  UNL1        0.0020
     27  C         26.2750  -21.3470  -13.8070 C.2     1  UNL1        0.0010
     28  C         26.7110  -22.0960  -12.7140 C.2     1  UNL1        0.0090
     29  C         25.7930  -22.7390  -11.8680 C.2     1  UNL1       -0.0350
     30  C         26.3100  -23.5170  -10.6910 C.3     1  UNL1        0.0500
@<TRIPOS>BOND
     1    26    27    2
     2    26    25    1
     3    27    28    1
     4    25    24    2
     5    28    29    2
     6    24    29    1
     7    24    22    1
     8     3     4    2
     9     3     2    1
    10    29    30    1
    11    23    22    1
    12     4     5    1
    13    22    19    1
    14     2     1    2
    15     5    19    1
    16     5     6    2
    17     1     6    1
    18     1     7    1
    19    19    20    2
    20    19    21    2
    21    10     7    2
    22     7     8   am
    23     8     9    1
    24     8    11    1
    25    11    12    1
    26    12    13    2
    27    12    18    1
    28    13    14    1
    29    18    16    2
    30    14    15    2
    31    16    15    1
    32    16    17    1
