@<TRIPOS>MOLECULE
33353_out_ligand_01.pdbqt
 30 33 0 0 0
SMALL
GASTEIGER

@<TRIPOS>ATOM
      1  C         19.2700  -23.0320   -9.5650 C.2     1  UNL1        0.0800
      2  C         19.4690  -24.2960   -8.9970 C.2     1  UNL1        0.0250
      3  C         20.7660  -24.7600   -8.7770 C.2     1  UNL1        0.0030
      4  C         21.8590  -23.9700   -9.1380 C.2     1  UNL1        0.0170
      5  C         21.6490  -22.7230   -9.7420 C.2     1  UNL1        0.0340
      6  C         20.3550  -22.2450   -9.9540 C.2     1  UNL1        0.0420
      7  S         17.6210  -22.4250   -9.8290 S.O2    1  UNL1        0.2630
      8  O         16.7390  -23.5650   -9.9500 O.2     1  UNL1       -0.2000
      9  O         17.6960  -21.4290  -10.8780 O.2     1  UNL1       -0.2000
     10  N         17.2830  -21.5880   -8.4050 N.pl3   1  UNL1       -0.2800
     11  H         17.7930  -20.7090   -8.3430 H       1  UNL1        0.1790
     12  C         17.0310  -22.3050   -7.1970 C.2     1  UNL1        0.0480
     13  C         15.8090  -22.9620   -7.0260 C.2     1  UNL1        0.0300
     14  C         15.5520  -23.6890   -5.8650 C.2     1  UNL1        0.0020
     15  C         16.5160  -23.7580   -4.8640 C.2     1  UNL1        0.0010
     16  C         17.7320  -23.0920   -5.0200 C.2     1  UNL1        0.0090
     17  C         18.0050  -22.3560   -6.1840 C.2     1  UNL1       -0.0350
     18  C         19.3230  -21.6400   -6.2990 C.3     1  UNL1        0.0500
     19  C         22.7960  -21.8500  -10.0860 C.2     1  UNL1        0.2580
     20  O         23.2930  -21.2530   -9.1340 O.2     1  UNL1       -0.2670
     21  N         23.1990  -21.7780  -11.4310 N.am    1  UNL1       -0.3130
     22  C         22.2730  -22.1580  -12.5090 C.3     1  UNL1        0.1330
     23  C         24.5060  -21.3110  -11.8270 C.2     1  UNL1        0.0430
     24  C         22.3730  -21.2430  -13.7150 C.3     1  UNL1        0.0250
     25  C         23.7790  -21.3140  -14.2740 C.3     1  UNL1        0.0420
     26  C         24.8000  -21.0900  -13.1920 C.2     1  UNL1       -0.0310
     27  C         26.0880  -20.6800  -13.5850 C.2     1  UNL1        0.0090
     28  C         27.0860  -20.4690  -12.6410 C.2     1  UNL1        0.0010
     29  C         26.8100  -20.6780  -11.2980 C.2     1  UNL1        0.0020
     30  C         25.5360  -21.1000  -10.8990 C.2     1  UNL1        0.0300
@<TRIPOS>BOND
     1    25    24    1
     2    25    26    1
     3    24    22    1
     4    27    26    1
     5    27    28    2
     6    26    23    2
     7    28    29    1
     8    22    21    1
     9    23    21    1
    10    23    30    1
    11    21    19   am
    12    29    30    2
    13     9     7    2
    14    19     5    1
    15    19    20    2
    16     6     5    1
    17     6     1    2
    18     8     7    2
    19     7     1    1
    20     7    10    1
    21     5     4    2
    22     1     2    1
    23     4     3    1
    24     2     3    2
    25    10    11    1
    26    10    12    1
    27    12    13    2
    28    12    17    1
    29    13    14    1
    30    18    17    1
    31    17    16    2
    32    14    15    2
    33    16    15    1
