@<TRIPOS>MOLECULE
33358_out_ligand_01.pdbqt
 31 34 0 0 0
SMALL
GASTEIGER

@<TRIPOS>ATOM
      1  C         17.2980  -22.6470   -9.3660 C.2     1  UNL1        0.0800
      2  C         16.6670  -21.8170  -10.2970 C.2     1  UNL1        0.0250
      3  C         17.4130  -21.2440  -11.3260 C.2     1  UNL1        0.0030
      4  C         18.7830  -21.5070  -11.4280 C.2     1  UNL1        0.0170
      5  C         19.4110  -22.3510  -10.5000 C.2     1  UNL1        0.0330
      6  C         18.6690  -22.8990   -9.4480 C.2     1  UNL1        0.0420
      7  C         20.8660  -22.6740  -10.5830 C.2     1  UNL1        0.2560
      8  O         21.2710  -23.6600   -9.9820 O.2     1  UNL1       -0.2670
      9  N         21.6090  -21.8340  -11.3930 N.am    1  UNL1       -0.3230
     10  H         21.1030  -21.1470  -11.9350 H       1  UNL1        0.1690
     11  C         23.0020  -21.8850  -11.6260 C.2     1  UNL1        0.0370
     12  C         23.8410  -21.5740  -10.5310 C.2     1  UNL1        0.0320
     13  C         25.2350  -21.6010  -10.6560 C.2     1  UNL1        0.0420
     14  C         25.7600  -21.9440  -11.8800 C.2     1  UNL1        0.1050
     15  C         24.9510  -22.2510  -12.9480 C.2     1  UNL1        0.1070
     16  O         27.0810  -22.0240  -12.1860 O.2     1  UNL1       -0.3230
     17  C         23.5730  -22.2330  -12.8540 C.2     1  UNL1        0.0690
     18  O         25.6660  -22.5650  -14.0620 O.2     1  UNL1       -0.3230
     19  C         27.0140  -22.4190  -13.5720 C.3     1  UNL1        0.3520
     20  S         16.3590  -23.3660   -8.0380 S.O2    1  UNL1        0.2630
     21  O         15.7570  -24.5900   -8.5240 O.2     1  UNL1       -0.2000
     22  O         15.5480  -22.3140   -7.4640 O.2     1  UNL1       -0.2000
     23  N         17.5350  -23.7350   -6.8880 N.pl3   1  UNL1       -0.2800
     24  H         17.5250  -24.7180   -6.6270 H       1  UNL1        0.1790
     25  C         17.9270  -22.7710   -5.9130 C.2     1  UNL1        0.0480
     26  C         18.8860  -21.8050   -6.2320 C.2     1  UNL1        0.0300
     27  C         19.2680  -20.8480   -5.2910 C.2     1  UNL1        0.0020
     28  C         18.7010  -20.8600   -4.0210 C.2     1  UNL1        0.0010
     29  C         17.7580  -21.8320   -3.6880 C.2     1  UNL1        0.0090
     30  C         17.3600  -22.8010   -4.6260 C.2     1  UNL1       -0.0350
     31  C         16.3580  -23.8430   -4.2140 C.3     1  UNL1        0.0500
@<TRIPOS>BOND
     1    18    19    1
     2    18    15    1
     3    19    16    1
     4    15    17    1
     5    15    14    2
     6    17    11    2
     7    16    14    1
     8    10     9    1
     9    14    13    1
    10    11     9    1
    11    11    12    1
    12     4     3    2
    13     4     5    1
    14     9     7   am
    15     3     2    1
    16    13    12    2
    17     7     5    1
    18     7     8    2
    19     5     6    2
    20     2     1    2
    21     6     1    1
    22     1    20    1
    23    21    20    2
    24    20    22    2
    25    20    23    1
    26    23    24    1
    27    23    25    1
    28    26    25    2
    29    26    27    1
    30    25    30    1
    31    27    28    2
    32    30    31    1
    33    30    29    2
    34    28    29    1
