@<TRIPOS>MOLECULE
33359_out_ligand_01.pdbqt
 30 32 0 0 0
SMALL
GASTEIGER

@<TRIPOS>ATOM
      1  C         19.3670  -22.3180  -10.4490 C.2     1  UNL1        0.0330
      2  C         18.7300  -21.5130  -11.4040 C.2     1  UNL1        0.0170
      3  C         17.3590  -21.2600  -11.3070 C.2     1  UNL1        0.0030
      4  C         16.6180  -21.8210  -10.2660 C.2     1  UNL1        0.0250
      5  C         17.2500  -22.6530   -9.3360 C.2     1  UNL1        0.0800
      6  C         18.6250  -22.8960   -9.4140 C.2     1  UNL1        0.0420
      7  C         20.8250  -22.6070  -10.5270 C.2     1  UNL1        0.2560
      8  N         21.5500  -21.7200  -11.3020 N.am    1  UNL1       -0.3230
      9  H         21.0560  -20.9090  -11.6520 H       1  UNL1        0.1690
     10  O         21.2580  -23.5620   -9.8940 O.2     1  UNL1       -0.2670
     11  C         22.9320  -21.7660  -11.5870 C.2     1  UNL1        0.0360
     12  C         23.9290  -21.7610  -10.6130 C.2     1  UNL1        0.0300
     13  C         25.2810  -21.8140  -10.9760 C.2     1  UNL1        0.0110
     14  C         25.6630  -21.8760  -12.3220 C.2     1  UNL1       -0.0400
     15  C         27.1210  -21.9310  -12.6780 C.3     1  UNL1        0.0500
     16  C         24.6570  -21.8840  -13.2970 C.2     1  UNL1        0.0420
     17  C         23.3060  -21.8310  -12.9330 C.2     1  UNL1        0.0530
     18 CL         25.0340  -21.9630  -14.9830 Cl      1  UNL1       -0.0840
     19  S         16.3070  -23.3540   -8.0000 S.O2    1  UNL1        0.2630
     20  O         15.4150  -22.3310   -7.5000 O.2     1  UNL1       -0.2000
     21  O         15.7920  -24.6270   -8.4630 O.2     1  UNL1       -0.2000
     22  N         17.4730  -23.7250   -6.8410 N.pl3   1  UNL1       -0.2800
     23  H         18.1940  -24.3480   -7.1960 H       1  UNL1        0.1790
     24  C         17.8300  -22.7660   -5.8500 C.2     1  UNL1        0.0480
     25  C         18.7770  -21.7820   -6.1510 C.2     1  UNL1        0.0300
     26  C         19.1720  -20.8620   -5.1810 C.2     1  UNL1        0.0020
     27  C         18.6140  -20.9160   -3.9070 C.2     1  UNL1        0.0010
     28  C         17.6560  -21.8830   -3.6050 C.2     1  UNL1        0.0090
     29  C         17.2500  -22.8190   -4.5710 C.2     1  UNL1       -0.0350
     30  C         16.2130  -23.8430   -4.2040 C.3     1  UNL1        0.0500
@<TRIPOS>BOND
     1    18    16    1
     2    16    17    1
     3    16    14    2
     4    17    11    2
     5    15    14    1
     6    14    13    1
     7     9     8    1
     8    11     8    1
     9    11    12    1
    10     2     3    1
    11     2     1    2
    12     3     4    2
    13     8     7   am
    14    13    12    2
    15     7     1    1
    16     7    10    2
    17     1     6    1
    18     4     5    1
    19     6     5    2
    20     5    19    1
    21    21    19    2
    22    19    20    2
    23    19    22    1
    24    23    22    1
    25    22    24    1
    26    25    24    2
    27    25    26    1
    28    24    29    1
    29    26    27    2
    30    29    30    1
    31    29    28    2
    32    27    28    1
