@<TRIPOS>MOLECULE
33363_out_ligand_01.pdbqt
 32 34 0 0 0
SMALL
GASTEIGER

@<TRIPOS>ATOM
      1  C         18.3390  -23.2980   -8.9360 C.2     1  UNL1        0.0800
      2  C         19.0180  -24.2940   -8.2270 C.2     1  UNL1        0.0250
      3  C         20.3810  -24.4890   -8.4480 C.2     1  UNL1        0.0030
      4  C         21.0570  -23.7050   -9.3870 C.2     1  UNL1        0.0170
      5  C         20.3660  -22.7330  -10.1240 C.2     1  UNL1        0.0330
      6  C         19.0010  -22.5250   -9.8940 C.2     1  UNL1        0.0420
      7  C         21.0530  -21.8770  -11.1340 C.2     1  UNL1        0.2560
      8  O         20.4960  -20.8470  -11.4900 O.2     1  UNL1       -0.2670
      9  N         22.2600  -22.3750  -11.5930 N.am    1  UNL1       -0.3220
     10  H         22.5040  -23.3080  -11.2730 H       1  UNL1        0.1690
     11  C         23.1590  -21.7760  -12.5110 C.2     1  UNL1        0.0500
     12  C         22.7850  -21.4850  -13.8300 C.2     1  UNL1        0.0300
     13  C         23.6780  -20.8900  -14.7260 C.2     1  UNL1        0.0020
     14  C         24.9660  -20.5720  -14.3210 C.2     1  UNL1        0.0010
     15  C         25.3590  -20.8490  -13.0150 C.2     1  UNL1        0.0180
     16  C         24.4680  -21.4450  -12.0950 C.2     1  UNL1        0.0740
     17  C         24.9960  -21.7110  -10.7090 C.3     1  UNL1        0.4190
     18  F         26.1800  -21.0800  -10.4660 F       1  UNL1       -0.1660
     19  F         25.2270  -23.0340  -10.4820 F       1  UNL1       -0.1660
     20  F         24.1610  -21.3080   -9.7050 F       1  UNL1       -0.1660
     21  S         16.5970  -23.0550   -8.6600 S.O2    1  UNL1        0.2630
     22  O         16.0210  -22.5320   -9.8790 O.2     1  UNL1       -0.2000
     23  O         16.0840  -24.2690   -8.0580 O.2     1  UNL1       -0.2000
     24  N         16.5460  -21.8840   -7.4480 N.pl3   1  UNL1       -0.2800
     25  H         16.0350  -21.0520   -7.7300 H       1  UNL1        0.1790
     26  C         16.5110  -22.2720   -6.0770 C.2     1  UNL1        0.0480
     27  C         15.3250  -22.7750   -5.5330 C.2     1  UNL1        0.0300
     28  C         15.2590  -23.1170   -4.1820 C.2     1  UNL1        0.0020
     29  C         16.3810  -22.9660   -3.3730 C.2     1  UNL1        0.0010
     30  C         17.5710  -22.4800   -3.9140 C.2     1  UNL1        0.0090
     31  C         17.6540  -22.1290   -5.2710 C.2     1  UNL1       -0.0350
     32  C         18.9580  -21.6130   -5.8130 C.3     1  UNL1        0.0500
@<TRIPOS>BOND
     1    13    14    2
     2    13    12    1
     3    14    15    1
     4    12    11    2
     5    15    16    2
     6    11    16    1
     7    11     9    1
     8    16    17    1
     9     9    10    1
    10     9     7   am
    11     8     7    2
    12     7     5    1
    13    17    19    1
    14    17    18    1
    15    17    20    1
    16     5     6    1
    17     5     4    2
    18     6     1    2
    19    22    21    2
    20     4     3    1
    21     1    21    1
    22     1     2    1
    23    21    23    2
    24    21    24    1
    25     3     2    2
    26    25    24    1
    27    24    26    1
    28    26    27    2
    29    26    31    1
    30    32    31    1
    31    27    28    1
    32    31    30    2
    33    28    29    2
    34    30    29    1
