@<TRIPOS>MOLECULE
33362_out_ligand_01.pdbqt
 32 35 0 0 0
SMALL
GASTEIGER

@<TRIPOS>ATOM
      1  C         18.7180  -22.4140  -10.1540 C.2     1  UNL1        0.0800
      2  C         18.3270  -21.4000  -11.0330 C.2     1  UNL1        0.0250
      3  C         19.2620  -20.8500  -11.9070 C.2     1  UNL1        0.0030
      4  C         20.5830  -21.3050  -11.8960 C.2     1  UNL1        0.0170
      5  C         20.9800  -22.3130  -11.0020 C.2     1  UNL1        0.0330
      6  C         20.0320  -22.8900  -10.1480 C.2     1  UNL1        0.0420
      7  C         22.3890  -22.8020  -10.9300 C.2     1  UNL1        0.2520
      8  O         22.7390  -23.5490  -10.0230 O.2     1  UNL1       -0.2680
      9  N         23.2470  -22.3280  -11.8950 N.am    1  UNL1       -0.3480
     10  H         22.9720  -21.5340  -12.4540 H       1  UNL1        0.1630
     11  C         24.6580  -22.6740  -11.9240 C.3     1  UNL1        0.1180
     12  C         25.0040  -23.6500  -13.0540 C.3     1  UNL1        0.0300
     13  C         24.6890  -23.0720  -14.4310 C.3     1  UNL1        0.0070
     14  C         25.1140  -21.6060  -14.6260 C.3     1  UNL1        0.0390
     15  C         25.6870  -20.9120  -13.4120 C.2     1  UNL1       -0.0500
     16  C         26.4080  -19.7200  -13.5740 C.2     1  UNL1        0.0070
     17  C         25.4670  -21.4110  -12.1160 C.2     1  UNL1       -0.0290
     18  C         26.9110  -19.0380  -12.4640 C.2     1  UNL1        0.0010
     19  C         26.6920  -19.5350  -11.1810 C.2     1  UNL1        0.0010
     20  C         25.9680  -20.7140  -11.0050 C.2     1  UNL1        0.0100
     21  S         17.5280  -23.1290   -9.0450 S.O2    1  UNL1        0.2630
     22  O         18.2250  -24.1060   -8.2370 O.2     1  UNL1       -0.2000
     23  O         16.3620  -23.5000   -9.8170 O.2     1  UNL1       -0.2000
     24  N         17.1340  -21.8510   -8.0170 N.pl3   1  UNL1       -0.2800
     25  H         16.7020  -21.0750   -8.5140 H       1  UNL1        0.1790
     26  C         16.7480  -22.1000   -6.6680 C.2     1  UNL1        0.0480
     27  C         15.4480  -22.5260   -6.3800 C.2     1  UNL1        0.0300
     28  C         15.0520  -22.7560   -5.0630 C.2     1  UNL1        0.0020
     29  C         15.9560  -22.5660   -4.0240 C.2     1  UNL1        0.0010
     30  C         17.2580  -22.1550   -4.3050 C.2     1  UNL1        0.0090
     31  C         17.6730  -21.9230   -5.6260 C.2     1  UNL1       -0.0350
     32  C         19.0950  -21.5100   -5.8770 C.3     1  UNL1        0.0500
@<TRIPOS>BOND
     1    14    13    1
     2    14    15    1
     3    13    12    1
     4    16    15    2
     5    16    18    1
     6    15    17    1
     7    12    11    1
     8    18    19    2
     9    10     9    1
    10    17    11    1
    11    17    20    2
    12    11     9    1
    13     3     4    2
    14     3     2    1
    15     4     5    1
    16     9     7   am
    17    19    20    1
    18     2     1    2
    19     5     7    1
    20     5     6    2
    21     7     8    2
    22     1     6    1
    23     1    21    1
    24    23    21    2
    25    21    22    2
    26    21    24    1
    27    25    24    1
    28    24    26    1
    29    26    27    2
    30    26    31    1
    31    27    28    1
    32    32    31    1
    33    31    30    2
    34    28    29    2
    35    30    29    1
