@<TRIPOS>MOLECULE
33365_out_ligand_01.pdbqt
 31 33 0 0 0
SMALL
GASTEIGER

@<TRIPOS>ATOM
      1  C         26.3070  -22.0700  -14.1970 C.3     1  UNL1        0.1620
      2  C         26.3650  -22.9720  -15.3570 C.1     1  UNL1        0.0630
      3  N         26.4310  -23.6740  -16.2790 N.1     1  UNL1       -0.1970
      4  C         24.9260  -21.9870  -13.5920 C.2     1  UNL1       -0.0450
      5  C         23.9200  -21.2300  -14.2060 C.2     1  UNL1        0.0100
      6  C         22.6380  -21.1690  -13.6500 C.2     1  UNL1        0.0300
      7  C         22.3350  -21.8620  -12.4710 C.2     1  UNL1        0.0350
      8  C         23.3320  -22.6240  -11.8650 C.2     1  UNL1        0.0300
      9  C         24.6160  -22.6890  -12.4210 C.2     1  UNL1        0.0100
     10  N         21.0170  -21.7530  -11.9800 N.am    1  UNL1       -0.3230
     11  C         20.5000  -22.3340  -10.8380 C.2     1  UNL1        0.2560
     12  O         21.1030  -22.9950  -10.0010 O.2     1  UNL1       -0.2670
     13  H         20.4090  -21.1270  -12.4930 H       1  UNL1        0.1690
     14  C         19.0530  -22.0800  -10.6090 C.2     1  UNL1        0.0330
     15  C         18.3050  -21.2650  -11.4720 C.2     1  UNL1        0.0170
     16  C         16.9410  -21.0700  -11.2430 C.2     1  UNL1        0.0030
     17  C         16.3160  -21.6990  -10.1660 C.2     1  UNL1        0.0250
     18  C         17.0610  -22.5340   -9.3270 C.2     1  UNL1        0.0800
     19  C         18.4300  -22.7160   -9.5320 C.2     1  UNL1        0.0420
     20  S         16.2730  -23.3490   -7.9550 S.O2    1  UNL1        0.2630
     21  O         15.4710  -22.3570   -7.2730 O.2     1  UNL1       -0.2000
     22  O         15.6810  -24.5750   -8.4460 O.2     1  UNL1       -0.2000
     23  N         17.5600  -23.7080   -6.9280 N.pl3   1  UNL1       -0.2800
     24  H         17.6110  -24.6990   -6.7040 H       1  UNL1        0.1790
     25  C         17.9680  -22.7690   -5.9340 C.2     1  UNL1        0.0480
     26  C         18.9000  -21.7770   -6.2570 C.2     1  UNL1        0.0300
     27  C         19.2930  -20.8370   -5.3050 C.2     1  UNL1        0.0020
     28  C         18.7610  -20.8890   -4.0210 C.2     1  UNL1        0.0010
     29  C         17.8430  -21.8840   -3.6860 C.2     1  UNL1        0.0090
     30  C         17.4360  -22.8370   -4.6340 C.2     1  UNL1       -0.0350
     31  C         16.4600  -23.9040   -4.2200 C.3     1  UNL1        0.0500
@<TRIPOS>BOND
     1     3     2    3
     2     2     1    1
     3     5     6    1
     4     5     4    2
     5     1     4    1
     6     6     7    2
     7     4     9    1
     8    13    10    1
     9     7    10    1
    10     7     8    1
    11     9     8    2
    12    10    11   am
    13    15    16    1
    14    15    14    2
    15    16    17    2
    16    11    14    1
    17    11    12    2
    18    14    19    1
    19    17    18    1
    20    19    18    2
    21    18    20    1
    22    22    20    2
    23    20    21    2
    24    20    23    1
    25    23    24    1
    26    23    25    1
    27    26    25    2
    28    26    27    1
    29    25    30    1
    30    27    28    2
    31    30    31    1
    32    30    29    2
    33    28    29    1
