@<TRIPOS>MOLECULE
33367_out_ligand_01.pdbqt
 32 34 0 0 0
SMALL
GASTEIGER

@<TRIPOS>ATOM
      1  C         20.7710  -22.2100  -11.0190 C.2     1  UNL1        0.0330
      2  C         20.2490  -21.2680  -11.9180 C.2     1  UNL1        0.0170
      3  C         18.8970  -20.9190  -11.8670 C.2     1  UNL1        0.0030
      4  C         18.0590  -21.5070  -10.9200 C.2     1  UNL1        0.0250
      5  C         18.5810  -22.4480  -10.0270 C.2     1  UNL1        0.0800
      6  C         19.9270  -22.8190  -10.0820 C.2     1  UNL1        0.0420
      7  C         22.2060  -22.6070  -11.0410 C.2     1  UNL1        0.2520
      8  N         22.9230  -22.2360  -12.1560 N.am    1  UNL1       -0.3490
      9  H         22.5170  -21.6020  -12.8290 H       1  UNL1        0.1630
     10  O         22.6940  -23.1980  -10.0860 O.2     1  UNL1       -0.2680
     11  C         24.3480  -22.5040  -12.2750 C.3     1  UNL1        0.1140
     12  C         24.5930  -23.8720  -12.9230 C.3     1  UNL1        0.0370
     13  C         25.0080  -21.3400  -13.0090 C.2     1  UNL1       -0.0300
     14  C         24.6780  -21.0670  -14.3510 C.2     1  UNL1        0.0100
     15  C         25.2470  -19.9890  -15.0340 C.2     1  UNL1        0.0070
     16  C         26.1620  -19.1520  -14.3960 C.2     1  UNL1       -0.0610
     17  C         26.7570  -17.9780  -15.1140 C.3     1  UNL1        0.0480
     18  C         26.4710  -19.3900  -13.0520 C.2     1  UNL1        0.0140
     19  C         25.9010  -20.4670  -12.3470 C.2     1  UNL1       -0.0530
     20  C         26.2830  -20.6590  -10.9030 C.3     1  UNL1        0.0490
     21  S         17.5050  -23.2110   -8.8390 S.O2    1  UNL1        0.2630
     22  O         18.2620  -24.1730   -8.0700 O.2     1  UNL1       -0.2000
     23  O         16.3020  -23.6040   -9.5440 O.2     1  UNL1       -0.2000
     24  N         17.0570  -21.9100   -7.8580 N.pl3   1  UNL1       -0.2800
     25  H         16.4060  -21.2960   -8.3460 H       1  UNL1        0.1790
     26  C         16.8120  -22.1590   -6.4760 C.2     1  UNL1        0.0480
     27  C         15.5400  -22.6020   -6.1030 C.2     1  UNL1        0.0300
     28  C         15.2330  -22.8090   -4.7590 C.2     1  UNL1        0.0020
     29  C         16.1970  -22.5680   -3.7850 C.2     1  UNL1        0.0010
     30  C         17.4700  -22.1280   -4.1540 C.2     1  UNL1        0.0090
     31  C         17.7980  -21.9260   -5.5050 C.2     1  UNL1       -0.0350
     32  C         19.1670  -21.4130   -5.8530 C.3     1  UNL1        0.0500
@<TRIPOS>BOND
     1    17    16    1
     2    15    16    2
     3    15    14    1
     4    16    18    1
     5    14    13    2
     6    18    19    2
     7    13    19    1
     8    13    11    1
     9    12    11    1
    10     9     8    1
    11    19    20    1
    12    11     8    1
    13     8     7   am
    14     2     3    1
    15     2     1    2
    16     3     4    2
    17     7     1    1
    18     7    10    2
    19     1     6    1
    20     4     5    1
    21     6     5    2
    22     5    21    1
    23    23    21    2
    24    21    22    2
    25    21    24    1
    26    25    24    1
    27    24    26    1
    28    26    27    2
    29    26    31    1
    30    27    28    1
    31    32    31    1
    32    31    30    2
    33    28    29    2
    34    30    29    1
