@<TRIPOS>MOLECULE
33364_out_ligand_01.pdbqt
 31 33 0 0 0
SMALL
GASTEIGER

@<TRIPOS>ATOM
      1  C         20.1670  -22.3880  -10.5670 C.2     1  UNL1        0.0330
      2  C         19.7240  -21.4830  -11.5450 C.2     1  UNL1        0.0170
      3  C         18.3740  -21.1300  -11.6150 C.2     1  UNL1        0.0030
      4  C         17.4590  -21.6800  -10.7180 C.2     1  UNL1        0.0250
      5  C         17.9030  -22.5860   -9.7480 C.2     1  UNL1        0.0800
      6  C         19.2560  -22.9210   -9.6500 C.2     1  UNL1        0.0420
      7  C         21.5960  -22.7900  -10.4610 C.2     1  UNL1        0.2520
      8  N         22.4800  -22.1110  -11.2710 N.am    1  UNL1       -0.3490
      9  H         22.1170  -21.5410  -12.0220 H       1  UNL1        0.1630
     10  O         21.9240  -23.7030   -9.7140 O.2     1  UNL1       -0.2680
     11  C         23.8850  -22.4820  -11.3440 C.3     1  UNL1        0.1140
     12  C         24.7690  -21.4930  -10.5790 C.3     1  UNL1        0.0370
     13  C         24.2920  -22.6170  -12.8020 C.2     1  UNL1       -0.0360
     14  C         23.9130  -21.6310  -13.7240 C.2     1  UNL1        0.0100
     15  C         24.2970  -21.7190  -15.0650 C.2     1  UNL1        0.0070
     16  C         25.0850  -22.7870  -15.5080 C.2     1  UNL1       -0.0620
     17  C         25.4670  -22.9020  -16.9540 C.3     1  UNL1        0.0480
     18  C         25.4640  -23.7750  -14.5940 C.2     1  UNL1        0.0070
     19  C         25.0790  -23.6870  -13.2530 C.2     1  UNL1        0.0100
     20  S         16.7380  -23.2810   -8.5970 S.O2    1  UNL1        0.2630
     21  O         15.5250  -23.5960   -9.3180 O.2     1  UNL1       -0.2000
     22  O         17.4370  -24.2940   -7.8340 O.2     1  UNL1       -0.2000
     23  N         16.4530  -22.0140   -7.5190 N.pl3   1  UNL1       -0.2800
     24  H         15.8340  -21.3050   -7.9060 H       1  UNL1        0.1790
     25  C         16.4200  -22.2570   -6.1150 C.2     1  UNL1        0.0480
     26  C         15.2280  -22.6690   -5.5140 C.2     1  UNL1        0.0300
     27  C         15.1660  -22.8720   -4.1360 C.2     1  UNL1        0.0020
     28  C         16.2990  -22.6720   -3.3530 C.2     1  UNL1        0.0010
     29  C         17.4960  -22.2750   -3.9490 C.2     1  UNL1        0.0090
     30  C         17.5740  -22.0620   -5.3360 C.2     1  UNL1       -0.0350
     31  C         18.8840  -21.6430   -5.9380 C.3     1  UNL1        0.0500
@<TRIPOS>BOND
     1    17    16    1
     2    16    15    2
     3    16    18    1
     4    15    14    1
     5    18    19    2
     6    14    13    2
     7    19    13    1
     8    13    11    1
     9     9     8    1
    10     3     2    1
    11     3     4    2
    12     2     1    2
    13    11     8    1
    14    11    12    1
    15     8     7   am
    16     4     5    1
    17     1     7    1
    18     1     6    1
    19     7    10    2
    20     5     6    2
    21     5    20    1
    22    21    20    2
    23    20    22    2
    24    20    23    1
    25    24    23    1
    26    23    25    1
    27    25    26    2
    28    25    30    1
    29    31    30    1
    30    26    27    1
    31    30    29    2
    32    27    28    2
    33    29    28    1
