@<TRIPOS>MOLECULE
33366_out_ligand_01.pdbqt
 32 34 0 0 0
SMALL
GASTEIGER

@<TRIPOS>ATOM
      1  C         20.2040  -22.4110  -10.5900 C.2     1  UNL1        0.0330
      2  C         19.8020  -21.5100  -11.5850 C.2     1  UNL1        0.0170
      3  C         18.4620  -21.1250  -11.6900 C.2     1  UNL1        0.0030
      4  C         17.5160  -21.6540  -10.8140 C.2     1  UNL1        0.0250
      5  C         17.9130  -22.5850   -9.8490 C.2     1  UNL1        0.0800
      6  C         19.2570  -22.9570   -9.7180 C.2     1  UNL1        0.0420
      7  C         21.6410  -22.7890  -10.5150 C.2     1  UNL1        0.2520
      8  N         22.4850  -22.1310  -11.3820 N.am    1  UNL1       -0.3480
      9  H         22.0990  -21.5550  -12.1190 H       1  UNL1        0.1630
     10  O         22.0030  -23.6520   -9.7270 O.2     1  UNL1       -0.2680
     11  C         23.9060  -22.4360  -11.4630 C.3     1  UNL1        0.1170
     12  C         24.7440  -21.4130  -10.6700 C.3     1  UNL1        0.0250
     13  C         26.2310  -21.4760  -11.0000 C.3     1  UNL1        0.0070
     14  C         24.2980  -22.5170  -12.9310 C.2     1  UNL1       -0.0350
     15  C         24.9510  -23.6660  -13.4050 C.2     1  UNL1        0.0100
     16  C         25.2960  -23.7900  -14.7520 C.2     1  UNL1        0.0070
     17  C         24.9820  -22.7760  -15.6610 C.2     1  UNL1       -0.0620
     18  C         25.3820  -22.9020  -17.1010 C.3     1  UNL1        0.0480
     19  C         24.3310  -21.6300  -15.1980 C.2     1  UNL1        0.0070
     20  C         23.9830  -21.5050  -13.8500 C.2     1  UNL1        0.0100
     21  S         16.7090  -23.2720   -8.7330 S.O2    1  UNL1        0.2630
     22  O         15.4910  -23.4680   -9.4930 O.2     1  UNL1       -0.2000
     23  O         17.3300  -24.3690   -8.0250 O.2     1  UNL1       -0.2000
     24  N         16.3930  -22.0040   -7.6710 N.pl3   1  UNL1       -0.2800
     25  H         16.7320  -21.1070   -8.0120 H       1  UNL1        0.1790
     26  C         16.3710  -22.2320   -6.2640 C.2     1  UNL1        0.0480
     27  C         15.1630  -22.5500   -5.6380 C.2     1  UNL1        0.0300
     28  C         15.1240  -22.8050   -4.2670 C.2     1  UNL1        0.0020
     29  C         16.2930  -22.7360   -3.5170 C.2     1  UNL1        0.0010
     30  C         17.5000  -22.4080   -4.1340 C.2     1  UNL1        0.0090
     31  C         17.5560  -22.1490   -5.5130 C.2     1  UNL1       -0.0350
     32  C         18.8750  -21.7850   -6.1340 C.3     1  UNL1        0.0500
@<TRIPOS>BOND
     1    18    17    1
     2    17    19    2
     3    17    16    1
     4    19    20    1
     5    16    15    2
     6    20    14    2
     7    15    14    1
     8    14    11    1
     9     9     8    1
    10     3     2    1
    11     3     4    2
    12     2     1    2
    13    11     8    1
    14    11    12    1
    15     8     7   am
    16    13    12    1
    17     4     5    1
    18     1     7    1
    19     1     6    1
    20     7    10    2
    21     5     6    2
    22     5    21    1
    23    22    21    2
    24    21    23    2
    25    21    24    1
    26    25    24    1
    27    24    26    1
    28    26    27    2
    29    26    31    1
    30    32    31    1
    31    27    28    1
    32    31    30    2
    33    28    29    2
    34    30    29    1
