@<TRIPOS>MOLECULE
33378_out_ligand_01.pdbqt
 31 33 0 0 0
SMALL
GASTEIGER

@<TRIPOS>ATOM
      1  C         20.7510  -22.1480  -10.4130 C.2     1  UNL1        0.0750
      2  C         20.7720  -21.2450  -11.4800 C.2     1  UNL1        0.0250
      3  C         19.5740  -20.7180  -11.9610 C.2     1  UNL1        0.0030
      4  C         18.3610  -21.0980  -11.3810 C.2     1  UNL1        0.0170
      5  C         18.3430  -22.0100  -10.3140 C.2     1  UNL1        0.0330
      6  C         19.5450  -22.5240   -9.8160 C.2     1  UNL1        0.0410
      7  C         17.0700  -22.4400   -9.6710 C.2     1  UNL1        0.2520
      8  O         16.0020  -22.2190  -10.2300 O.2     1  UNL1       -0.2680
      9  N         17.1890  -23.0390   -8.4370 N.am    1  UNL1       -0.3490
     10  H         18.0730  -22.9910   -7.9550 H       1  UNL1        0.1630
     11  C         16.0240  -23.3740   -7.6290 C.3     1  UNL1        0.1140
     12  C         15.5700  -24.8050   -7.9330 C.3     1  UNL1        0.0370
     13  C         16.3460  -23.1510   -6.1540 C.2     1  UNL1       -0.0300
     14  C         17.5850  -23.5850   -5.6330 C.2     1  UNL1        0.0100
     15  C         17.9170  -23.3870   -4.2910 C.2     1  UNL1        0.0010
     16  C         17.0240  -22.7430   -3.4430 C.2     1  UNL1        0.0010
     17  C         15.8010  -22.2940   -3.9380 C.2     1  UNL1        0.0070
     18  C         15.4510  -22.4810   -5.2880 C.2     1  UNL1       -0.0540
     19  C         14.1210  -21.9520   -5.7590 C.3     1  UNL1        0.0490
     20  S         22.2910  -22.7930   -9.7980 S.O2    1  UNL1        0.2450
     21  O         21.9970  -23.9790   -9.0240 O.2     1  UNL1       -0.2060
     22  O         23.0290  -21.6760   -9.2510 O.2     1  UNL1       -0.2060
     23  N         22.9990  -23.3070  -11.2650 N.pl3   1  UNL1       -0.1810
     24  H         23.0040  -24.3270  -11.2700 H       1  UNL1        0.1460
     25  C         24.3080  -22.7660  -11.5160 C.2     1  UNL1        0.0280
     26  C         25.3500  -23.1400  -10.6580 C.2     1  UNL1        0.0250
     27  C         26.6450  -22.6700  -10.8740 C.2     1  UNL1        0.0020
     28  C         26.9060  -21.8320  -11.9530 C.2     1  UNL1        0.0010
     29  C         25.8720  -21.4610  -12.8150 C.2     1  UNL1        0.0080
     30  C         24.5590  -21.9190  -12.6080 C.2     1  UNL1       -0.0400
     31  C         23.4830  -21.4970  -13.5690 C.3     1  UNL1        0.0500
@<TRIPOS>BOND
     1    31    30    1
     2    29    30    1
     3    29    28    2
     4    30    25    2
     5     3     2    1
     6     3     4    2
     7    28    27    1
     8    25    23    1
     9    25    26    1
    10     2     1    2
    11     4     5    1
    12    24    23    1
    13    23    20    1
    14    27    26    2
    15     1     6    1
    16     1    20    1
    17     5     6    2
    18     5     7    1
    19     8     7    2
    20    20    22    2
    21    20    21    2
    22     7     9   am
    23     9    10    1
    24     9    11    1
    25    12    11    1
    26    11    13    1
    27    13    14    2
    28    13    18    1
    29    19    18    1
    30    14    15    1
    31    18    17    2
    32    15    16    2
    33    17    16    1
