@<TRIPOS>MOLECULE
33374_out_ligand_01.pdbqt
 32 34 0 0 0
SMALL
GASTEIGER

@<TRIPOS>ATOM
      1  C         18.3100  -21.9240  -10.2630 C.2     1  UNL1        0.0330
      2  C         18.3000  -21.1100  -11.4050 C.2     1  UNL1        0.0170
      3  C         19.4970  -20.7920  -12.0520 C.2     1  UNL1        0.0030
      4  C         20.7050  -21.2990  -11.5730 C.2     1  UNL1        0.0250
      5  C         20.7080  -22.1310  -10.4480 C.2     1  UNL1        0.0800
      6  C         19.5190  -22.4340   -9.7800 C.2     1  UNL1        0.0420
      7  C         17.0550  -22.3100   -9.5630 C.2     1  UNL1        0.2520
      8  N         17.2050  -22.7460   -8.2650 N.am    1  UNL1       -0.3490
      9  H         18.1390  -23.0120   -7.9860 H       1  UNL1        0.1630
     10  O         15.9940  -22.2350  -10.1670 O.2     1  UNL1       -0.2680
     11  C         16.1430  -23.3580   -7.4720 C.3     1  UNL1        0.1140
     12  C         15.9090  -24.8470   -7.7560 C.3     1  UNL1        0.0370
     13  C         16.3000  -23.0070   -5.9970 C.2     1  UNL1       -0.0290
     14  C         15.3320  -23.3710   -5.0320 C.2     1  UNL1       -0.0540
     15  C         15.5230  -23.0040   -3.6900 C.2     1  UNL1        0.0080
     16  C         14.0950  -24.1510   -5.3870 C.3     1  UNL1        0.0490
     17  C         16.6430  -22.2740   -3.2940 C.2     1  UNL1        0.0070
     18  C         17.6040  -21.9000   -4.2330 C.2     1  UNL1       -0.0610
     19  C         18.7860  -21.0710   -3.8270 C.3     1  UNL1        0.0480
     20  C         17.4160  -22.2560   -5.5740 C.2     1  UNL1        0.0160
     21  S         22.2390  -22.7920   -9.8350 S.O2    1  UNL1        0.2630
     22  O         21.9260  -24.0060   -9.1100 O.2     1  UNL1       -0.2000
     23  O         22.9700  -21.7150   -9.2000 O.2     1  UNL1       -0.2000
     24  N         23.0410  -23.2740  -11.2390 N.pl3   1  UNL1       -0.2800
     25  H         22.4010  -23.4170  -12.0170 H       1  UNL1        0.1790
     26  C         24.3520  -22.7850  -11.5190 C.2     1  UNL1        0.0480
     27  C         25.4150  -23.1510  -10.6870 C.2     1  UNL1        0.0300
     28  C         26.6980  -22.6590  -10.9190 C.2     1  UNL1        0.0020
     29  C         26.9270  -21.8000  -11.9890 C.2     1  UNL1        0.0010
     30  C         25.8750  -21.4430  -12.8330 C.2     1  UNL1        0.0090
     31  C         24.5780  -21.9390  -12.6180 C.2     1  UNL1       -0.0350
     32  C         23.4800  -21.5250  -13.5580 C.3     1  UNL1        0.0500
@<TRIPOS>BOND
     1    32    31    1
     2    30    31    1
     3    30    29    2
     4    31    26    2
     5     3     4    2
     6     3     2    1
     7    25    24    1
     8    29    28    1
     9     4     5    1
    10    26    24    1
    11    26    27    1
    12     2     1    2
    13    24    21    1
    14    28    27    2
    15     5    21    1
    16     5     6    2
    17     1     6    1
    18     1     7    1
    19    10     7    2
    20    21    23    2
    21    21    22    2
    22     7     8   am
    23     8     9    1
    24     8    11    1
    25    12    11    1
    26    11    13    1
    27    13    20    2
    28    13    14    1
    29    20    18    1
    30    16    14    1
    31    14    15    2
    32    18    19    1
    33    18    17    2
    34    15    17    1
