@<TRIPOS>MOLECULE
33375_out_ligand_01.pdbqt
 29 31 0 0 0
SMALL
GASTEIGER

@<TRIPOS>ATOM
      1  C         16.9680  -22.9240   -8.9590 C.2     1  UNL1        0.0800
      2  C         16.2550  -22.0820   -9.8170 C.2     1  UNL1        0.0250
      3  C         16.9130  -21.4740  -10.8860 C.2     1  UNL1        0.0030
      4  C         18.2760  -21.7020  -11.0910 C.2     1  UNL1        0.0170
      5  C         18.9900  -22.5300  -10.2120 C.2     1  UNL1        0.0330
      6  C         18.3350  -23.1450   -9.1410 C.2     1  UNL1        0.0420
      7  S         16.1370  -23.7380   -7.6120 S.O2    1  UNL1        0.2630
      8  O         15.5310  -24.9490   -8.1220 O.2     1  UNL1       -0.2000
      9  O         15.3470  -22.7330   -6.9340 O.2     1  UNL1       -0.2000
     10  N         17.4040  -24.1400   -6.5700 N.pl3   1  UNL1       -0.2810
     11  H         17.4330  -25.1400   -6.3750 H       1  UNL1        0.1790
     12  C         17.7260  -23.2530   -5.5040 C.2     1  UNL1        0.0430
     13  C         17.4310  -23.5850   -4.1840 C.2     1  UNL1        0.0300
     14  C         17.7900  -22.7160   -3.1530 C.2     1  UNL1        0.0030
     15  C         18.4490  -21.5200   -3.4430 C.2     1  UNL1        0.0070
     16  C         18.7620  -21.1850   -4.7650 C.2     1  UNL1       -0.0600
     17  C         19.4460  -19.8880   -5.0810 C.3     1  UNL1        0.0480
     18  C         18.3820  -22.0550   -5.7970 C.2     1  UNL1        0.0370
     19  C         20.4340  -22.8240  -10.4180 C.2     1  UNL1        0.2560
     20  O         20.8470  -23.9150  -10.0440 O.2     1  UNL1       -0.2670
     21  N         21.1560  -21.7960  -10.9930 N.am    1  UNL1       -0.3220
     22  H         20.6690  -20.9190  -11.1110 H       1  UNL1        0.1690
     23  C         22.5250  -21.7930  -11.3530 C.2     1  UNL1        0.0410
     24  C         22.9500  -21.8800  -12.6840 C.2     1  UNL1        0.0300
     25  C         24.3090  -21.8670  -13.0090 C.2     1  UNL1        0.0020
     26  C         25.2650  -21.7620  -12.0070 C.2     1  UNL1        0.0010
     27  C         24.8610  -21.6700  -10.6770 C.2     1  UNL1        0.0090
     28  C         23.4970  -21.6820  -10.3330 C.2     1  UNL1       -0.0350
     29  C         23.1320  -21.5810   -8.8760 C.3     1  UNL1        0.0500
@<TRIPOS>BOND
     1    25    24    1
     2    25    26    2
     3    24    23    2
     4    26    27    1
     5    23    21    1
     6    23    28    1
     7    22    21    1
     8     4     3    2
     9     4     5    1
    10    21    19   am
    11     3     2    1
    12    27    28    2
    13    19     5    1
    14    19    20    2
    15    28    29    1
    16     5     6    2
    17     2     1    2
    18     6     1    1
    19     1     7    1
    20     8     7    2
    21     7     9    2
    22     7    10    1
    23    10    11    1
    24    10    12    1
    25    18    12    2
    26    18    16    1
    27    12    13    1
    28    17    16    1
    29    16    15    2
    30    13    14    2
    31    15    14    1
