@<TRIPOS>MOLECULE
33381_out_ligand_01.pdbqt
 32 34 0 0 0
SMALL
GASTEIGER

@<TRIPOS>ATOM
      1  C         20.2230  -22.3410  -10.5200 C.2     1  UNL1        0.0330
      2  C         19.7820  -21.4970  -11.5490 C.2     1  UNL1        0.0170
      3  C         18.4280  -21.1630  -11.6510 C.2     1  UNL1        0.0030
      4  C         17.5090  -21.6860  -10.7420 C.2     1  UNL1        0.0250
      5  C         17.9500  -22.5510   -9.7370 C.2     1  UNL1        0.0800
      6  C         19.3030  -22.8660   -9.6070 C.2     1  UNL1        0.0420
      7  C         21.6460  -22.7550  -10.3990 C.2     1  UNL1        0.2520
      8  N         22.5580  -22.0170  -11.1140 N.am    1  UNL1       -0.3490
      9  H         22.2530  -21.2380  -11.6800 H       1  UNL1        0.1630
     10  O         21.9360  -23.7070   -9.6820 O.2     1  UNL1       -0.2680
     11  C         23.9540  -22.4100  -11.2340 C.3     1  UNL1        0.1140
     12  C         24.8490  -21.3800  -10.5440 C.3     1  UNL1        0.0370
     13  C         24.2640  -22.6410  -12.7030 C.2     1  UNL1       -0.0350
     14  C         23.8270  -21.6950  -13.6400 C.2     1  UNL1        0.0100
     15  C         24.1190  -21.8430  -14.9970 C.2     1  UNL1        0.0080
     16  C         24.8610  -22.9390  -15.4560 C.2     1  UNL1       -0.0560
     17  C         25.1640  -23.0560  -16.9240 C.3     1  UNL1        0.0490
     18  C         25.3360  -23.8820  -14.5250 C.2     1  UNL1       -0.0560
     19  C         25.0280  -23.7240  -13.1610 C.2     1  UNL1        0.0160
     20  C         26.1550  -25.0670  -14.9610 C.3     1  UNL1        0.0490
     21  S         16.7830  -23.2520   -8.5930 S.O2    1  UNL1        0.2630
     22  O         17.4420  -24.3270   -7.8830 O.2     1  UNL1       -0.2000
     23  O         15.5540  -23.4880   -9.3230 O.2     1  UNL1       -0.2000
     24  N         16.4670  -21.9780   -7.5320 N.pl3   1  UNL1       -0.2800
     25  H         16.8430  -21.0960   -7.8730 H       1  UNL1        0.1790
     26  C         16.4530  -22.2080   -6.1240 C.2     1  UNL1        0.0480
     27  C         15.2590  -22.5710   -5.4930 C.2     1  UNL1        0.0300
     28  C         15.2320  -22.8310   -4.1240 C.2     1  UNL1        0.0020
     29  C         16.3990  -22.7210   -3.3750 C.2     1  UNL1        0.0010
     30  C         17.5900  -22.3430   -3.9940 C.2     1  UNL1        0.0090
     31  C         17.6340  -22.0770   -5.3720 C.2     1  UNL1       -0.0350
     32  C         18.9380  -21.6560   -5.9910 C.3     1  UNL1        0.0500
@<TRIPOS>BOND
     1    17    16    1
     2    16    15    2
     3    16    18    1
     4    15    14    1
     5    20    18    1
     6    18    19    2
     7    14    13    2
     8    19    13    1
     9    13    11    1
    10     9     8    1
    11     3     2    1
    12     3     4    2
    13     2     1    2
    14    11     8    1
    15    11    12    1
    16     8     7   am
    17     4     5    1
    18     1     7    1
    19     1     6    1
    20     7    10    2
    21     5     6    2
    22     5    21    1
    23    23    21    2
    24    21    22    2
    25    21    24    1
    26    25    24    1
    27    24    26    1
    28    26    27    2
    29    26    31    1
    30    32    31    1
    31    27    28    1
    32    31    30    2
    33    28    29    2
    34    30    29    1
