@<TRIPOS>MOLECULE
3338_out_ligand_01.pdbqt
 31 34 0 0 0
SMALL
GASTEIGER

@<TRIPOS>ATOM
      1  N         21.1030  -22.8520  -10.4480 N.pl3   1  UNL1       -0.2670
      2  C         22.0950  -22.5730  -11.4330 C.2     1  UNL1        0.0520
      3  C         23.2910  -23.2320  -11.6660 C.2     1  UNL1        0.0320
      4  C         24.1060  -22.7880  -12.7120 C.2     1  UNL1        0.0270
      5  C         23.6900  -21.7200  -13.5240 C.2     1  UNL1        0.0750
      6  C         22.4650  -21.0790  -13.3050 C.2     1  UNL1        0.0340
      7  C         21.6750  -21.5300  -12.2590 C.2     1  UNL1       -0.0270
      8  C         20.3410  -21.0000  -11.8410 C.3     1  UNL1        0.0670
      9  C         19.9800  -21.8680  -10.6100 C.3     1  UNL1        0.1020
     10  C         18.6760  -22.6270  -10.8190 C.3     1  UNL1        0.0340
     11  S         21.5830  -23.2390   -8.8680 S.O2    1  UNL1        0.2680
     12  O         22.7650  -22.4810   -8.5200 O.2     1  UNL1       -0.2000
     13  O         21.5390  -24.6770   -8.7120 O.2     1  UNL1       -0.2000
     14  C         20.4170  -22.6830   -7.7430 C.2     1  UNL1        0.1160
     15  C         19.2120  -23.2340   -7.3740 C.2     1  UNL1        0.1450
     16  N         18.6320  -22.3650   -6.4730 N.pl3   1  UNL1       -0.2430
     17  N         19.4930  -21.3510   -6.1650 N.2     1  UNL1       -0.1780
     18  C         20.5410  -21.5290   -6.9700 C.2     1  UNL1        0.1660
     19  C         17.3520  -22.4460   -5.8380 C.2     1  UNL1        0.0640
     20  C         17.3350  -22.3170   -4.4320 C.2     1  UNL1        0.0320
     21  C         16.1500  -22.4440   -3.7090 C.2     1  UNL1        0.0020
     22  C         14.9580  -22.6910   -4.3760 C.2     1  UNL1        0.0010
     23  C         14.9510  -22.7850   -5.7670 C.2     1  UNL1        0.0090
     24  C         16.1320  -22.6400   -6.5260 C.2     1  UNL1       -0.0330
     25  C         15.9650  -22.6570   -8.0220 C.3     1  UNL1        0.0500
     26  S         24.7490  -21.1470  -14.8280 S.O2    1  UNL1        0.2390
     27  O         26.0750  -21.6660  -14.5920 O.2     1  UNL1       -0.2060
     28  O         24.0560  -21.3250  -16.0820 O.2     1  UNL1       -0.2060
     29  N         24.7750  -19.4900  -14.5420 N.3     1  UNL1       -0.2250
     30  H         24.0190  -18.9830  -15.0010 H       1  UNL1        0.1360
     31  H         25.6920  -19.1230  -14.8020 H       1  UNL1        0.1360
@<TRIPOS>BOND
     1    28    26    2
     2    30    29    1
     3    26    27    2
     4    26    29    1
     5    26     5    1
     6    31    29    1
     7     5     6    2
     8     5     4    1
     9     6     7    1
    10     4     3    2
    11     7     8    1
    12     7     2    2
    13     8     9    1
    14     3     2    1
    15     2     1    1
    16    10     9    1
    17     9     1    1
    18     1    11    1
    19    11    13    2
    20    11    12    2
    21    11    14    1
    22    25    24    1
    23    14    15    2
    24    14    18    1
    25    15    16    1
    26    18    17    2
    27    24    19    2
    28    24    23    1
    29    16    17    1
    30    16    19    1
    31    19    20    1
    32    23    22    2
    33    20    21    2
    34    22    21    1
