@<TRIPOS>MOLECULE
33382_out_ligand_01.pdbqt
 30 32 0 0 0
SMALL
GASTEIGER

@<TRIPOS>ATOM
      1  C         16.9650  -22.9100   -8.9780 C.2     1  UNL1        0.0800
      2  C         16.2440  -22.0550   -9.8170 C.2     1  UNL1        0.0250
      3  C         16.8930  -21.4260  -10.8790 C.2     1  UNL1        0.0030
      4  C         18.2560  -21.6440  -11.0970 C.2     1  UNL1        0.0170
      5  C         18.9780  -22.4850  -10.2380 C.2     1  UNL1        0.0330
      6  C         18.3330  -23.1210   -9.1730 C.2     1  UNL1        0.0420
      7  S         16.1480  -23.7510   -7.6410 S.O2    1  UNL1        0.2630
      8  O         15.3500  -22.7640   -6.9450 O.2     1  UNL1       -0.2000
      9  O         15.5520  -24.9600   -8.1680 O.2     1  UNL1       -0.2000
     10  N         17.4220  -24.1560   -6.6090 N.pl3   1  UNL1       -0.2810
     11  H         17.4640  -25.1580   -6.4330 H       1  UNL1        0.1790
     12  C         17.7360  -23.2840   -5.5280 C.2     1  UNL1        0.0430
     13  C         17.4570  -23.6470   -4.2120 C.2     1  UNL1        0.0300
     14  C         17.8070  -22.7930   -3.1660 C.2     1  UNL1        0.0030
     15  C         18.4440  -21.5800   -3.4370 C.2     1  UNL1        0.0070
     16  C         18.7430  -21.2150   -4.7550 C.2     1  UNL1       -0.0600
     17  C         19.4030  -19.9010   -5.0500 C.3     1  UNL1        0.0480
     18  C         18.3710  -22.0690   -5.8010 C.2     1  UNL1        0.0370
     19  C         20.4220  -22.7710  -10.4590 C.2     1  UNL1        0.2560
     20  O         20.8340  -23.8770  -10.1380 O.2     1  UNL1       -0.2670
     21  N         21.1440  -21.7150  -10.9840 N.am    1  UNL1       -0.3220
     22  H         20.6580  -20.8340  -11.0570 H       1  UNL1        0.1690
     23  C         22.5120  -21.6950  -11.3470 C.2     1  UNL1        0.0410
     24  C         22.9350  -21.7030  -12.6830 C.2     1  UNL1        0.0370
     25  C         24.2970  -21.6830  -13.0210 C.2     1  UNL1       -0.0600
     26  C         24.7160  -21.6630  -14.4610 C.3     1  UNL1        0.0480
     27  C         25.2490  -21.6270  -12.0040 C.2     1  UNL1        0.0070
     28  C         24.8470  -21.6140  -10.6700 C.2     1  UNL1        0.0090
     29  C         23.4850  -21.6490  -10.3230 C.2     1  UNL1       -0.0350
     30  C         23.1240  -21.6360   -8.8630 C.3     1  UNL1        0.0500
@<TRIPOS>BOND
     1    26    25    1
     2    25    24    1
     3    25    27    2
     4    24    23    2
     5    27    28    1
     6    23    21    1
     7    23    29    1
     8     4     3    2
     9     4     5    1
    10    22    21    1
    11    21    19   am
    12     3     2    1
    13    28    29    2
    14    19     5    1
    15    19    20    2
    16    29    30    1
    17     5     6    2
    18     2     1    2
    19     6     1    1
    20     1     7    1
    21     9     7    2
    22     7     8    2
    23     7    10    1
    24    10    11    1
    25    10    12    1
    26    18    12    2
    27    18    16    1
    28    12    13    1
    29    17    16    1
    30    16    15    2
    31    13    14    2
    32    15    14    1
