@<TRIPOS>MOLECULE
33380_out_ligand_01.pdbqt
 34 37 0 0 0
SMALL
GASTEIGER

@<TRIPOS>ATOM
      1  C         17.7270  -22.5420   -9.6770 C.2     1  UNL1        0.0800
      2  C         17.0330  -21.6490  -10.4980 C.2     1  UNL1        0.0250
      3  C         17.7070  -20.9990  -11.5320 C.2     1  UNL1        0.0030
      4  C         19.0700  -21.2340  -11.7360 C.2     1  UNL1        0.0170
      5  C         19.7670  -22.1150  -10.8960 C.2     1  UNL1        0.0330
      6  C         19.0920  -22.7790   -9.8660 C.2     1  UNL1        0.0420
      7  C         21.2150  -22.4020  -11.0950 C.2     1  UNL1        0.2560
      8  O         21.7380  -23.2390  -10.3680 O.2     1  UNL1       -0.2670
      9  N         21.8230  -21.6570  -12.0860 N.am    1  UNL1       -0.3230
     10  H         21.2750  -20.9200  -12.5130 H       1  UNL1        0.1690
     11  C         23.1650  -21.7360  -12.5180 C.2     1  UNL1        0.0370
     12  C         24.2580  -21.7680  -11.6570 C.2     1  UNL1        0.0290
     13  C         25.5490  -21.8470  -12.1750 C.2     1  UNL1        0.0040
     14  C         25.7560  -21.8980  -13.5570 C.2     1  UNL1        0.0300
     15  C         24.6760  -21.8770  -14.4510 C.2     1  UNL1        0.0390
     16  C         23.3860  -21.7950  -13.9050 C.2     1  UNL1        0.0590
     17  N         24.8960  -21.9350  -15.8570 N.am    1  UNL1       -0.3180
     18  C         24.9200  -20.7550  -16.6910 C.3     1  UNL1        0.1330
     19  C         25.5360  -21.2250  -17.9900 C.3     1  UNL1        0.0290
     20  C         25.0870  -22.6690  -18.0870 C.3     1  UNL1        0.1050
     21  C         24.9880  -23.0970  -16.6420 C.2     1  UNL1        0.2240
     22  O         24.9520  -24.2700  -16.3010 O.2     1  UNL1       -0.2730
     23  S         16.8810  -23.3780   -8.3600 S.O2    1  UNL1        0.2630
     24  O         15.6320  -23.8650   -8.9060 O.2     1  UNL1       -0.2000
     25  O         17.8090  -24.2770   -7.7110 O.2     1  UNL1       -0.2000
     26  N         16.4790  -22.1150   -7.3140 N.pl3   1  UNL1       -0.2800
     27  H         15.6980  -21.5690   -7.6760 H       1  UNL1        0.1790
     28  C         16.5220  -22.3580   -5.9110 C.2     1  UNL1        0.0480
     29  C         15.3920  -22.9030   -5.2940 C.2     1  UNL1        0.0300
     30  C         15.3800  -23.1210   -3.9180 C.2     1  UNL1        0.0020
     31  C         16.4950  -22.7870   -3.1530 C.2     1  UNL1        0.0010
     32  C         17.6240  -22.2380   -3.7660 C.2     1  UNL1        0.0090
     33  C         17.6520  -22.0150   -5.1530 C.2     1  UNL1       -0.0350
     34  C         18.8770  -21.4110   -5.7770 C.3     1  UNL1        0.0500
@<TRIPOS>BOND
     1    20    19    1
     2    20    21    1
     3    19    18    1
     4    18    17    1
     5    21    22    2
     6    21    17   am
     7    17    15    1
     8    15    16    1
     9    15    14    2
    10    16    11    2
    11    14    13    1
    12    11     9    1
    13    11    12    1
    14    10     9    1
    15    13    12    2
    16     9     7   am
    17     4     3    2
    18     4     5    1
    19     3     2    1
    20     7     5    1
    21     7     8    2
    22     5     6    2
    23     2     1    2
    24     6     1    1
    25     1    23    1
    26    24    23    2
    27    23    25    2
    28    23    26    1
    29    27    26    1
    30    26    28    1
    31    28    29    2
    32    28    33    1
    33    34    33    1
    34    29    30    1
    35    33    32    2
    36    30    31    2
    37    32    31    1
