@<TRIPOS>MOLECULE
33387_out_ligand_01.pdbqt
 29 31 0 0 0
SMALL
GASTEIGER

@<TRIPOS>ATOM
      1  C         19.2730  -22.5250  -10.2490 C.2     1  UNL1        0.0330
      2  C         18.6300  -21.6810  -11.1670 C.2     1  UNL1        0.0170
      3  C         17.2600  -21.4350  -11.0510 C.2     1  UNL1        0.0030
      4  C         16.5290  -22.0180  -10.0170 C.2     1  UNL1        0.0250
      5  C         17.1800  -22.8410   -9.0910 C.2     1  UNL1        0.0800
      6  C         18.5490  -23.1010   -9.2020 C.2     1  UNL1        0.0420
      7  S         16.2610  -23.5880   -7.7710 S.O2    1  UNL1        0.2630
      8  O         15.6900  -24.8120   -8.2910 O.2     1  UNL1       -0.2000
      9  O         15.4210  -22.5810   -7.1580 O.2     1  UNL1       -0.2000
     10  N         17.4720  -24.0490   -6.6910 N.pl3   1  UNL1       -0.2810
     11  H         17.4270  -25.0460   -6.4840 H       1  UNL1        0.1790
     12  C         17.7830  -23.1690   -5.6190 C.2     1  UNL1        0.0430
     13  C         17.4490  -23.5330   -4.3170 C.2     1  UNL1        0.0300
     14  C         17.7830  -22.6920   -3.2570 C.2     1  UNL1        0.0030
     15  C         18.4530  -21.4920   -3.5010 C.2     1  UNL1        0.0070
     16  C         18.7850  -21.1160   -4.8090 C.2     1  UNL1       -0.0600
     17  C         19.5460  -19.8500   -5.0670 C.3     1  UNL1        0.0480
     18  C         18.4570  -21.9730   -5.8680 C.2     1  UNL1        0.0370
     19  C         20.7340  -22.7940  -10.3340 C.2     1  UNL1        0.2560
     20  N         21.4470  -21.8780  -11.0850 N.am    1  UNL1       -0.3230
     21  H         20.9140  -21.1830  -11.5890 H       1  UNL1        0.1690
     22  O         21.1650  -23.7920   -9.7710 O.2     1  UNL1       -0.2670
     23  C         22.8400  -21.8540  -11.3060 C.2     1  UNL1        0.0350
     24  C         23.2840  -22.0880  -12.6130 C.2     1  UNL1        0.0300
     25  C         24.6500  -22.0770  -12.9170 C.2     1  UNL1        0.0090
     26  C         25.5950  -21.8400  -11.9160 C.2     1  UNL1       -0.0620
     27  C         27.0590  -21.7950  -12.2430 C.3     1  UNL1        0.0480
     28  C         25.1510  -21.5890  -10.6150 C.2     1  UNL1        0.0090
     29  C         23.7830  -21.6000  -10.3120 C.2     1  UNL1        0.0300
@<TRIPOS>BOND
     1    25    24    1
     2    25    26    2
     3    24    23    2
     4    27    26    1
     5    26    28    1
     6    21    20    1
     7    23    20    1
     8    23    29    1
     9     2     3    1
    10     2     1    2
    11    20    19   am
    12     3     4    2
    13    28    29    2
    14    19     1    1
    15    19    22    2
    16     1     6    1
    17     4     5    1
    18     6     5    2
    19     5     7    1
    20     8     7    2
    21     7     9    2
    22     7    10    1
    23    10    11    1
    24    10    12    1
    25    18    12    2
    26    18    16    1
    27    12    13    1
    28    17    16    1
    29    16    15    2
    30    13    14    2
    31    15    14    1
