@<TRIPOS>MOLECULE
33384_out_ligand_01.pdbqt
 29 31 0 0 0
SMALL
GASTEIGER

@<TRIPOS>ATOM
      1  C         19.4650  -22.6320  -10.1310 C.2     1  UNL1        0.0330
      2  C         18.8870  -21.8140  -11.1110 C.2     1  UNL1        0.0170
      3  C         17.5210  -21.5260  -11.0670 C.2     1  UNL1        0.0030
      4  C         16.7270  -22.0650  -10.0540 C.2     1  UNL1        0.0250
      5  C         17.3050  -22.9010   -9.0920 C.2     1  UNL1        0.0800
      6  C         18.6750  -23.1770   -9.1150 C.2     1  UNL1        0.0420
      7  S         16.2980  -23.5760   -7.7940 S.O2    1  UNL1        0.2630
      8  O         15.5150  -22.5100   -7.2120 O.2     1  UNL1       -0.2000
      9  O         15.6530  -24.7610   -8.3240 O.2     1  UNL1       -0.2000
     10  N         17.4430  -24.1380   -6.6830 N.pl3   1  UNL1       -0.2810
     11  H         17.2720  -25.1190   -6.4620 H       1  UNL1        0.1790
     12  C         17.7840  -23.2840   -5.5970 C.2     1  UNL1        0.0430
     13  C         17.3840  -23.6100   -4.3030 C.2     1  UNL1        0.0300
     14  C         17.6760  -22.7430   -3.2510 C.2     1  UNL1        0.0030
     15  C         18.3520  -21.5460   -3.4960 C.2     1  UNL1        0.0070
     16  C         18.7360  -21.2020   -4.7980 C.2     1  UNL1       -0.0600
     17  C         19.4680  -19.9200   -5.0650 C.3     1  UNL1        0.0480
     18  C         18.4630  -22.0910   -5.8460 C.2     1  UNL1        0.0370
     19  C         20.9100  -22.9800  -10.1740 C.2     1  UNL1        0.2560
     20  N         21.6950  -22.0810  -10.8710 N.am    1  UNL1       -0.3230
     21  H         21.2460  -21.2350  -11.1960 H       1  UNL1        0.1690
     22  O         21.2730  -23.9930   -9.5890 O.2     1  UNL1       -0.2670
     23  C         23.0820  -22.1660  -11.1140 C.2     1  UNL1        0.0350
     24  C         24.0430  -21.4490  -10.4030 C.2     1  UNL1        0.0290
     25  C         25.3990  -21.5900  -10.7070 C.2     1  UNL1        0.0030
     26  C         25.8080  -22.4540  -11.7220 C.2     1  UNL1        0.0070
     27  C         24.8620  -23.1950  -12.4360 C.2     1  UNL1       -0.0600
     28  C         25.2920  -24.1000  -13.5520 C.3     1  UNL1        0.0480
     29  C         23.5010  -23.0350  -12.1320 C.2     1  UNL1        0.0360
@<TRIPOS>BOND
     1    28    27    1
     2    27    29    1
     3    27    26    2
     4    29    23    2
     5    26    25    1
     6    21    20    1
     7    23    20    1
     8    23    24    1
     9     2     3    1
    10     2     1    2
    11     3     4    2
    12    20    19   am
    13    25    24    2
    14    19     1    1
    15    19    22    2
    16     1     6    1
    17     4     5    1
    18     6     5    2
    19     5     7    1
    20     9     7    2
    21     7     8    2
    22     7    10    1
    23    10    11    1
    24    10    12    1
    25    18    12    2
    26    18    16    1
    27    12    13    1
    28    17    16    1
    29    16    15    2
    30    13    14    2
    31    15    14    1
