@<TRIPOS>MOLECULE
33389_out_ligand_01.pdbqt
 32 35 0 0 0
SMALL
GASTEIGER

@<TRIPOS>ATOM
      1  C         17.1980  -22.9120   -9.0150 C.2     1  UNL1        0.0800
      2  C         16.6340  -22.0570   -9.9670 C.2     1  UNL1        0.0250
      3  C         17.4350  -21.5330  -10.9830 C.2     1  UNL1        0.0030
      4  C         18.7880  -21.8730  -11.0520 C.2     1  UNL1        0.0170
      5  C         19.3420  -22.7510  -10.1080 C.2     1  UNL1        0.0330
      6  C         18.5470  -23.2670   -9.0790 C.2     1  UNL1        0.0420
      7  C         20.7840  -23.1190  -10.1460 C.2     1  UNL1        0.2560
      8  O         21.1500  -24.0540   -9.4470 O.2     1  UNL1       -0.2670
      9  N         21.5460  -22.3590  -11.0140 N.am    1  UNL1       -0.3220
     10  H         21.0330  -21.7300  -11.6110 H       1  UNL1        0.1690
     11  C         22.9490  -22.4210  -11.2320 C.2     1  UNL1        0.0460
     12  C         23.8060  -22.9700  -10.2690 C.2     1  UNL1        0.0300
     13  C         25.1810  -23.0160  -10.4740 C.2     1  UNL1        0.0030
     14  C         25.7260  -22.5080  -11.6470 C.2     1  UNL1        0.0120
     15  C         24.9060  -21.9480  -12.6340 C.2     1  UNL1       -0.0240
     16  C         25.4920  -21.4450  -13.8070 C.2     1  UNL1        0.0120
     17  C         23.4980  -21.8940  -12.4480 C.2     1  UNL1        0.0010
     18  C         24.7170  -20.8820  -14.8160 C.2     1  UNL1        0.0010
     19  C         23.3410  -20.8180  -14.6650 C.2     1  UNL1        0.0010
     20  C         22.7410  -21.3150  -13.5030 C.2     1  UNL1        0.0140
     21  S         16.1880  -23.5830   -7.7190 S.O2    1  UNL1        0.2630
     22  O         15.5640  -24.7790   -8.2450 O.2     1  UNL1       -0.2000
     23  O         15.3890  -22.5180   -7.1530 O.2     1  UNL1       -0.2000
     24  N         17.3310  -24.0980   -6.5890 N.pl3   1  UNL1       -0.2810
     25  H         17.1950  -25.0780   -6.3450 H       1  UNL1        0.1790
     26  C         17.6890  -23.2050   -5.5460 C.2     1  UNL1        0.0430
     27  C         17.3830  -23.5350   -4.2260 C.2     1  UNL1        0.0300
     28  C         17.7620  -22.6800   -3.1940 C.2     1  UNL1        0.0030
     29  C         18.4480  -21.4980   -3.4810 C.2     1  UNL1        0.0070
     30  C         18.7520  -21.1570   -4.8050 C.2     1  UNL1       -0.0600
     31  C         19.5290  -19.9100   -5.1100 C.3     1  UNL1        0.0480
     32  C         18.3780  -22.0270   -5.8370 C.2     1  UNL1        0.0370
@<TRIPOS>BOND
     1    18    19    1
     2    18    16    2
     3    19    20    2
     4    16    15    1
     5    20    17    1
     6    15    17    1
     7    15    14    2
     8    17    11    2
     9    14    13    1
    10    10     9    1
    11    11     9    1
    12    11    12    1
    13     4     3    2
    14     4     5    1
    15     9     7   am
    16     3     2    1
    17    13    12    2
    18     7     5    1
    19     7     8    2
    20     5     6    2
    21     2     1    2
    22     6     1    1
    23     1    21    1
    24    22    21    2
    25    21    23    2
    26    21    24    1
    27    24    25    1
    28    24    26    1
    29    32    26    2
    30    32    30    1
    31    26    27    1
    32    31    30    1
    33    30    29    2
    34    27    28    2
    35    29    28    1
