@<TRIPOS>MOLECULE
33383_out_ligand_01.pdbqt
 30 32 0 0 0
SMALL
GASTEIGER

@<TRIPOS>ATOM
      1  C         18.0800  -22.6100   -9.7820 C.2     1  UNL1        0.0800
      2  C         17.6910  -21.6680  -10.7390 C.2     1  UNL1        0.0250
      3  C         18.6380  -21.1550  -11.6240 C.2     1  UNL1        0.0030
      4  C         19.9700  -21.5720  -11.5430 C.2     1  UNL1        0.0170
      5  C         20.3610  -22.5020  -10.5680 C.2     1  UNL1        0.0330
      6  C         19.4110  -23.0280   -9.6870 C.2     1  UNL1        0.0420
      7  S         16.8860  -23.2690   -8.6480 S.O2    1  UNL1        0.2630
      8  O         17.5070  -24.3330   -7.8870 O.2     1  UNL1       -0.2000
      9  O         15.6740  -23.5070   -9.4030 O.2     1  UNL1       -0.2000
     10  N         16.5640  -21.9550   -7.6390 N.pl3   1  UNL1       -0.2800
     11  H         15.8910  -21.3190   -8.0620 H       1  UNL1        0.1790
     12  C         16.4700  -22.1840   -6.2370 C.2     1  UNL1        0.0480
     13  C         15.2230  -22.5200   -5.6990 C.2     1  UNL1        0.0300
     14  C         15.0790  -22.7120   -4.3270 C.2     1  UNL1        0.0020
     15  C         16.1790  -22.5610   -3.4870 C.2     1  UNL1        0.0010
     16  C         17.4240  -22.2230   -4.0200 C.2     1  UNL1        0.0090
     17  C         17.5870  -22.0340   -5.4010 C.2     1  UNL1       -0.0350
     18  C         18.9370  -21.6470   -5.9370 C.3     1  UNL1        0.0500
     19  C         21.7660  -22.9770  -10.4570 C.2     1  UNL1        0.2510
     20  O         22.1010  -23.6650   -9.5000 O.2     1  UNL1       -0.2680
     21  N         22.6270  -22.5720  -11.4530 N.am    1  UNL1       -0.3530
     22  H         22.3420  -21.8200  -12.0650 H       1  UNL1        0.1630
     23  C         24.0450  -22.8440  -11.3760 C.3     1  UNL1        0.1610
     24  C         24.8430  -21.6760  -11.9000 C.2     1  UNL1       -0.0400
     25  C         25.7450  -20.9930  -11.0690 C.2     1  UNL1        0.0120
     26  C         26.4940  -19.9270  -11.5680 C.2     1  UNL1        0.0430
     27  C         26.3490  -19.5490  -12.8990 C.2     1  UNL1        0.1160
     28  F         27.0720  -18.5260  -13.3760 F       1  UNL1       -0.2060
     29  C         25.4690  -20.2170  -13.7400 C.2     1  UNL1        0.0430
     30  C         24.7180  -21.2820  -13.2420 C.2     1  UNL1        0.0120
@<TRIPOS>BOND
     1    29    30    1
     2    29    27    2
     3    28    27    1
     4    30    24    2
     5    27    26    1
     6    22    21    1
     7    24    23    1
     8    24    25    1
     9     3     4    2
    10     3     2    1
    11    26    25    2
    12     4     5    1
    13    21    23    1
    14    21    19   am
    15     2     1    2
    16     5    19    1
    17     5     6    2
    18    19    20    2
    19     1     6    1
    20     1     7    1
    21     9     7    2
    22     7     8    2
    23     7    10    1
    24    11    10    1
    25    10    12    1
    26    12    13    2
    27    12    17    1
    28    18    17    1
    29    13    14    1
    30    17    16    2
    31    14    15    2
    32    16    15    1
