@<TRIPOS>MOLECULE
33386_out_ligand_01.pdbqt
 30 32 0 0 0
SMALL
GASTEIGER

@<TRIPOS>ATOM
      1  C         17.1550  -22.9340   -8.9560 C.2     1  UNL1        0.0800
      2  C         16.5290  -22.1010   -9.8890 C.2     1  UNL1        0.0250
      3  C         17.2750  -21.5500  -10.9310 C.2     1  UNL1        0.0030
      4  C         18.6380  -21.8370  -11.0430 C.2     1  UNL1        0.0170
      5  C         19.2610  -22.6850  -10.1130 C.2     1  UNL1        0.0330
      6  C         18.5200  -23.2200   -9.0540 C.2     1  UNL1        0.0420
      7  S         16.2190  -23.6160   -7.6110 S.O2    1  UNL1        0.2630
      8  O         15.5070  -22.5220   -6.9860 O.2     1  UNL1       -0.2000
      9  O         15.5140  -24.7900   -8.0810 O.2     1  UNL1       -0.2000
     10  N         17.4270  -24.0770   -6.5220 N.pl3   1  UNL1       -0.2810
     11  H         18.1960  -24.5320   -7.0140 H       1  UNL1        0.1790
     12  C         17.7640  -23.1700   -5.4810 C.2     1  UNL1        0.0430
     13  C         17.3250  -23.4210   -4.1830 C.2     1  UNL1        0.0300
     14  C         17.6180  -22.5140   -3.1660 C.2     1  UNL1        0.0030
     15  C         18.3460  -21.3570   -3.4500 C.2     1  UNL1        0.0070
     16  C         18.7940  -21.1010   -4.7520 C.2     1  UNL1       -0.0600
     17  C         19.5340  -19.8340   -5.0660 C.3     1  UNL1        0.0480
     18  C         18.4850  -22.0110   -5.7700 C.2     1  UNL1        0.0370
     19  C         20.7130  -23.0140  -10.2010 C.2     1  UNL1        0.2560
     20  O         21.0960  -24.0610   -9.6950 O.2     1  UNL1       -0.2670
     21  N         21.4780  -22.0970  -10.8990 N.am    1  UNL1       -0.3230
     22  H         20.9880  -21.3500  -11.3730 H       1  UNL1        0.1690
     23  C         22.8730  -22.1290  -11.1070 C.2     1  UNL1        0.0350
     24  C         23.7910  -21.3980  -10.3580 C.2     1  UNL1        0.0300
     25  C         25.1590  -21.4830  -10.6340 C.2     1  UNL1        0.0090
     26  C         25.6400  -22.3020  -11.6650 C.2     1  UNL1       -0.0560
     27  C         27.1190  -22.3640  -11.9280 C.3     1  UNL1        0.0490
     28  C         24.7220  -23.0420  -12.4330 C.2     1  UNL1       -0.0540
     29  C         25.1800  -23.9340  -13.5530 C.3     1  UNL1        0.0490
     30  C         23.3490  -22.9450  -12.1430 C.2     1  UNL1        0.0370
@<TRIPOS>BOND
     1    29    28    1
     2    28    30    1
     3    28    26    2
     4    30    23    2
     5    27    26    1
     6    26    25    1
     7    22    21    1
     8    23    21    1
     9    23    24    1
    10     4     3    2
    11     4     5    1
    12     3     2    1
    13    21    19   am
    14    25    24    2
    15    19     5    1
    16    19    20    2
    17     5     6    2
    18     2     1    2
    19     6     1    1
    20     1     7    1
    21     9     7    2
    22     7     8    2
    23     7    10    1
    24    11    10    1
    25    10    12    1
    26    18    12    2
    27    18    16    1
    28    12    13    1
    29    17    16    1
    30    16    15    2
    31    13    14    2
    32    15    14    1
