@<TRIPOS>MOLECULE
33396_out_ligand_01.pdbqt
 30 32 0 0 0
SMALL
GASTEIGER

@<TRIPOS>ATOM
      1  C         17.2300  -22.9310   -9.0280 C.2     1  UNL1        0.0800
      2  C         16.6270  -22.0510   -9.9320 C.2     1  UNL1        0.0250
      3  C         17.3890  -21.4840  -10.9530 C.2     1  UNL1        0.0030
      4  C         18.7450  -21.7990  -11.0730 C.2     1  UNL1        0.0170
      5  C         19.3450  -22.6930  -10.1710 C.2     1  UNL1        0.0330
      6  C         18.5880  -23.2450   -9.1310 C.2     1  UNL1        0.0420
      7  S         16.2740  -23.6380   -7.7120 S.O2    1  UNL1        0.2630
      8  O         15.5310  -22.5610   -7.0930 O.2     1  UNL1       -0.2000
      9  O         15.5990  -24.8190   -8.2060 O.2     1  UNL1       -0.2000
     10  N         17.4630  -24.0910   -6.5980 N.pl3   1  UNL1       -0.2810
     11  H         18.2490  -24.5330   -7.0730 H       1  UNL1        0.1790
     12  C         17.7620  -23.1880   -5.5420 C.2     1  UNL1        0.0430
     13  C         17.4080  -23.5030   -4.2330 C.2     1  UNL1        0.0300
     14  C         17.7350  -22.6260   -3.1990 C.2     1  UNL1        0.0030
     15  C         18.4240  -21.4440   -3.4740 C.2     1  UNL1        0.0070
     16  C         18.8030  -21.1330   -4.7860 C.2     1  UNL1       -0.0600
     17  C         19.5170  -19.8480   -5.0870 C.3     1  UNL1        0.0480
     18  C         18.4590  -22.0110   -5.8210 C.2     1  UNL1        0.0370
     19  C         20.7890  -23.0540  -10.2700 C.2     1  UNL1        0.2560
     20  O         21.1800  -24.0220   -9.6310 O.2     1  UNL1       -0.2670
     21  N         21.5270  -22.2600  -11.1290 N.am    1  UNL1       -0.3220
     22  H         21.0050  -21.6000  -11.6850 H       1  UNL1        0.1690
     23  C         22.9190  -22.3240  -11.3960 C.2     1  UNL1        0.0410
     24  C         23.8230  -22.8440  -10.4640 C.2     1  UNL1        0.0300
     25  C         25.1880  -22.8920  -10.7390 C.2     1  UNL1        0.0030
     26  C         25.6720  -22.4160  -11.9510 C.2     1  UNL1        0.0070
     27  C         24.7980  -21.8830  -12.9090 C.2     1  UNL1       -0.0540
     28  C         25.3870  -21.3820  -14.2020 C.3     1  UNL1        0.0490
     29  C         23.4070  -21.8310  -12.6360 C.2     1  UNL1       -0.0290
     30  C         22.4500  -21.2600  -13.6570 C.3     1  UNL1        0.0510
@<TRIPOS>BOND
     1    28    27    1
     2    30    29    1
     3    27    29    1
     4    27    26    2
     5    29    23    2
     6    26    25    1
     7    22    21    1
     8    23    21    1
     9    23    24    1
    10    21    19   am
    11     4     3    2
    12     4     5    1
    13     3     2    1
    14    25    24    2
    15    19     5    1
    16    19    20    2
    17     5     6    2
    18     2     1    2
    19     6     1    1
    20     1     7    1
    21     9     7    2
    22     7     8    2
    23     7    10    1
    24    11    10    1
    25    10    12    1
    26    18    12    2
    27    18    16    1
    28    12    13    1
    29    17    16    1
    30    16    15    2
    31    13    14    2
    32    15    14    1
