@<TRIPOS>MOLECULE
33391_out_ligand_01.pdbqt
 29 31 0 0 0
SMALL
GASTEIGER

@<TRIPOS>ATOM
      1  C         17.0390  -22.8290   -9.0670 C.2     1  UNL1        0.0800
      2  C         16.3360  -22.0150   -9.9610 C.2     1  UNL1        0.0250
      3  C         17.0140  -21.4050  -11.0160 C.2     1  UNL1        0.0030
      4  C         18.3860  -21.6120  -11.1790 C.2     1  UNL1        0.0170
      5  C         19.0880  -22.4400  -10.2880 C.2     1  UNL1        0.0330
      6  C         18.4130  -23.0350   -9.2150 C.2     1  UNL1        0.0420
      7  S         16.1900  -23.5840   -7.7050 S.O2    1  UNL1        0.2630
      8  O         15.5020  -24.7660   -8.1790 O.2     1  UNL1       -0.2000
      9  O         15.4730  -22.5360   -7.0110 O.2     1  UNL1       -0.2000
     10  N         17.4610  -24.0370   -6.6870 N.pl3   1  UNL1       -0.2810
     11  H         18.2340  -24.4210   -7.2280 H       1  UNL1        0.1790
     12  C         17.7860  -23.1730   -5.6060 C.2     1  UNL1        0.0430
     13  C         17.3660  -23.4980   -4.3180 C.2     1  UNL1        0.0300
     14  C         17.6610  -22.6420   -3.2570 C.2     1  UNL1        0.0030
     15  C         18.3650  -21.4600   -3.4900 C.2     1  UNL1        0.0070
     16  C         18.7690  -21.1150   -4.7860 C.2     1  UNL1       -0.0600
     17  C         19.5420  -19.8540   -5.0330 C.3     1  UNL1        0.0480
     18  C         18.4830  -21.9890   -5.8440 C.2     1  UNL1        0.0370
     19  C         20.5510  -22.6850  -10.4300 C.2     1  UNL1        0.2560
     20  O         21.0360  -23.6420   -9.8390 O.2     1  UNL1       -0.2670
     21  N         21.2130  -21.8080  -11.2700 N.am    1  UNL1       -0.3230
     22  H         20.6470  -21.1520  -11.7910 H       1  UNL1        0.1690
     23  C         22.5940  -21.7780  -11.5590 C.2     1  UNL1        0.0350
     24  C         22.9650  -21.7320  -12.9090 C.2     1  UNL1        0.0310
     25  C         24.3130  -21.6950  -13.2800 C.2     1  UNL1        0.0210
     26  C         25.2980  -21.7020  -12.2970 C.2     1  UNL1        0.0110
     27 BR         27.1210  -21.6530  -12.7920 Br      1  UNL1       -0.0510
     28  C         24.9460  -21.7430  -10.9520 C.2     1  UNL1        0.0210
     29  C         23.5950  -21.7800  -10.5840 C.2     1  UNL1        0.0310
@<TRIPOS>BOND
     1    25    24    1
     2    25    26    2
     3    24    23    2
     4    27    26    1
     5    26    28    1
     6    22    21    1
     7    23    21    1
     8    23    29    1
     9    21    19   am
    10     4     3    2
    11     4     5    1
    12     3     2    1
    13    28    29    2
    14    19     5    1
    15    19    20    2
    16     5     6    2
    17     2     1    2
    18     6     1    1
    19     1     7    1
    20     8     7    2
    21     7     9    2
    22     7    10    1
    23    11    10    1
    24    10    12    1
    25    18    12    2
    26    18    16    1
    27    12    13    1
    28    17    16    1
    29    16    15    2
    30    13    14    2
    31    15    14    1
