@<TRIPOS>MOLECULE
33393_out_ligand_01.pdbqt
 29 31 0 0 0
SMALL
GASTEIGER

@<TRIPOS>ATOM
      1  C         17.2800  -22.9320   -9.0500 C.2     1  UNL1        0.0800
      2  C         16.7000  -22.0900  -10.0040 C.2     1  UNL1        0.0250
      3  C         17.4910  -21.5490  -11.0200 C.2     1  UNL1        0.0030
      4  C         18.8570  -21.8390  -11.0710 C.2     1  UNL1        0.0170
      5  C         19.4380  -22.6630  -10.0960 C.2     1  UNL1        0.0330
      6  C         18.6490  -23.2140   -9.0810 C.2     1  UNL1        0.0420
      7  S         16.2780  -23.6000   -7.7450 S.O2    1  UNL1        0.2630
      8  O         15.6730  -24.8160   -8.2500 O.2     1  UNL1       -0.2000
      9  O         15.4590  -22.5410   -7.2000 O.2     1  UNL1       -0.2000
     10  N         17.4260  -24.0960   -6.6080 N.pl3   1  UNL1       -0.2810
     11  H         17.2800  -25.0740   -6.3570 H       1  UNL1        0.1790
     12  C         17.7420  -23.2020   -5.5490 C.2     1  UNL1        0.0430
     13  C         17.4340  -23.5540   -4.2370 C.2     1  UNL1        0.0300
     14  C         17.7900  -22.7060   -3.1900 C.2     1  UNL1        0.0030
     15  C         18.4510  -21.5050   -3.4580 C.2     1  UNL1        0.0070
     16  C         18.7540  -21.1380   -4.7750 C.2     1  UNL1       -0.0600
     17  C         19.5080  -19.8740   -5.0580 C.3     1  UNL1        0.0480
     18  C         18.4060  -22.0040   -5.8210 C.2     1  UNL1        0.0370
     19  C         20.8840  -23.0060  -10.1380 C.2     1  UNL1        0.2560
     20  O         21.2540  -24.0100   -9.5450 O.2     1  UNL1       -0.2670
     21  N         21.6670  -22.1100  -10.8430 N.am    1  UNL1       -0.3230
     22  H         21.2130  -21.2680  -11.1740 H       1  UNL1        0.1690
     23  C         23.0560  -22.1920  -11.0810 C.2     1  UNL1        0.0360
     24  C         24.0150  -21.4810  -10.3570 C.2     1  UNL1        0.0290
     25  C         25.3760  -21.6210  -10.6470 C.2     1  UNL1        0.0040
     26  C         25.7920  -22.4760  -11.6660 C.2     1  UNL1        0.0240
     27  C         24.8400  -23.1880  -12.3880 C.2     1  UNL1        0.0360
     28 CL         25.3420  -24.2500  -13.6470 Cl      1  UNL1       -0.0840
     29  C         23.4800  -23.0530  -12.1010 C.2     1  UNL1        0.0530
@<TRIPOS>BOND
     1    28    27    1
     2    27    29    1
     3    27    26    2
     4    29    23    2
     5    26    25    1
     6    22    21    1
     7    23    21    1
     8    23    24    1
     9     4     3    2
    10     4     5    1
    11     3     2    1
    12    21    19   am
    13    25    24    2
    14    19     5    1
    15    19    20    2
    16     5     6    2
    17     2     1    2
    18     6     1    1
    19     1     7    1
    20     8     7    2
    21     7     9    2
    22     7    10    1
    23    10    11    1
    24    10    12    1
    25    18    12    2
    26    18    16    1
    27    12    13    1
    28    17    16    1
    29    16    15    2
    30    13    14    2
    31    15    14    1
