@<TRIPOS>MOLECULE
33395_out_ligand_01.pdbqt
 29 31 0 0 0
SMALL
GASTEIGER

@<TRIPOS>ATOM
      1  C         16.9440  -22.8660   -9.0120 C.2     1  UNL1        0.0800
      2  C         16.2370  -22.0040   -9.8560 C.2     1  UNL1        0.0250
      3  C         16.8900  -21.4110  -10.9350 C.2     1  UNL1        0.0030
      4  C         18.2430  -21.6750  -11.1660 C.2     1  UNL1        0.0170
      5  C         18.9530  -22.5310  -10.3100 C.2     1  UNL1        0.0330
      6  C         18.2940  -23.1460   -9.2390 C.2     1  UNL1        0.0420
      7  S         16.1150  -23.6400   -7.6460 S.O2    1  UNL1        0.2630
      8  O         15.5130  -24.8600   -8.1430 O.2     1  UNL1       -0.2000
      9  O         15.3200  -22.6480   -6.9570 O.2     1  UNL1       -0.2000
     10  N         17.4030  -24.1180   -6.6590 N.pl3   1  UNL1       -0.2810
     11  H         17.3580  -25.1200   -6.4720 H       1  UNL1        0.1790
     12  C         17.7630  -23.2670   -5.5810 C.2     1  UNL1        0.0430
     13  C         17.4210  -23.6120   -4.2760 C.2     1  UNL1        0.0300
     14  C         17.7510  -22.7540   -3.2260 C.2     1  UNL1        0.0030
     15  C         18.4120  -21.5510   -3.4860 C.2     1  UNL1        0.0070
     16  C         18.7360  -21.1880   -4.7990 C.2     1  UNL1       -0.0600
     17  C         19.4720  -19.9100   -5.0760 C.3     1  UNL1        0.0480
     18  C         18.4160  -22.0610   -5.8450 C.2     1  UNL1        0.0370
     19  C         20.3980  -22.8340  -10.5210 C.2     1  UNL1        0.2560
     20  O         20.8160  -23.9320  -10.1760 O.2     1  UNL1       -0.2670
     21  N         21.1370  -21.8000  -11.0590 N.am    1  UNL1       -0.3220
     22  H         20.6810  -20.9020  -11.1720 H       1  UNL1        0.1690
     23  C         22.5120  -21.7960  -11.4000 C.2     1  UNL1        0.0520
     24  C         22.9720  -21.8340  -12.7190 C.2     1  UNL1        0.0310
     25  C         24.3440  -21.8240  -12.9970 C.2     1  UNL1        0.0020
     26  C         25.2720  -21.7740  -11.9610 C.2     1  UNL1        0.0020
     27  C         24.8330  -21.7330  -10.6400 C.2     1  UNL1        0.0210
     28  C         23.4620  -21.7430  -10.3630 C.2     1  UNL1        0.0370
     29 BR         22.9300  -21.6810   -8.5360 Br      1  UNL1       -0.0490
@<TRIPOS>BOND
     1    25    24    1
     2    25    26    2
     3    24    23    2
     4    26    27    1
     5    23    21    1
     6    23    28    1
     7    22    21    1
     8     4     3    2
     9     4     5    1
    10    21    19   am
    11     3     2    1
    12    27    28    2
    13    19     5    1
    14    19    20    2
    15    28    29    1
    16     5     6    2
    17     2     1    2
    18     6     1    1
    19     1     7    1
    20     8     7    2
    21     7     9    2
    22     7    10    1
    23    10    11    1
    24    10    12    1
    25    18    12    2
    26    18    16    1
    27    12    13    1
    28    17    16    1
    29    16    15    2
    30    13    14    2
    31    15    14    1
