@<TRIPOS>MOLECULE
33398_out_ligand_01.pdbqt
 29 31 0 0 0
SMALL
GASTEIGER

@<TRIPOS>ATOM
      1  C         17.3250  -22.9440   -9.0690 C.2     1  UNL1        0.0800
      2  C         16.7350  -22.1090  -10.0240 C.2     1  UNL1        0.0250
      3  C         17.5200  -21.5580  -11.0350 C.2     1  UNL1        0.0030
      4  C         18.8910  -21.8280  -11.0840 C.2     1  UNL1        0.0170
      5  C         19.4800  -22.6470  -10.1090 C.2     1  UNL1        0.0330
      6  C         18.6950  -23.2150   -9.1010 C.2     1  UNL1        0.0420
      7  S         16.3340  -23.6540   -7.7790 S.O2    1  UNL1        0.2630
      8  O         15.5820  -22.5730   -7.1780 O.2     1  UNL1       -0.2000
      9  O         15.6610  -24.8250   -8.2990 O.2     1  UNL1       -0.2000
     10  N         17.4880  -24.1220   -6.6400 N.pl3   1  UNL1       -0.2810
     11  H         18.2770  -24.5920   -7.0840 H       1  UNL1        0.1790
     12  C         17.7720  -23.2300   -5.5710 C.2     1  UNL1        0.0430
     13  C         17.4280  -23.5710   -4.2660 C.2     1  UNL1        0.0300
     14  C         17.7520  -22.7080   -3.2190 C.2     1  UNL1        0.0030
     15  C         18.4160  -21.5080   -3.4810 C.2     1  UNL1        0.0070
     16  C         18.7570  -21.1570   -4.7930 C.2     1  UNL1       -0.0600
     17  C         19.5030  -19.8850   -5.0720 C.3     1  UNL1        0.0480
     18  C         18.4430  -22.0350   -5.8370 C.2     1  UNL1        0.0370
     19  C         20.9340  -22.9680  -10.1420 C.2     1  UNL1        0.2560
     20  O         21.3200  -23.9430   -9.5110 O.2     1  UNL1       -0.2670
     21  N         21.7040  -22.0860  -10.8770 N.am    1  UNL1       -0.3230
     22  H         21.2410  -21.2580  -11.2310 H       1  UNL1        0.1690
     23  C         23.0930  -22.1570  -11.1150 C.2     1  UNL1        0.0360
     24  C         24.0520  -21.4890  -10.3470 C.2     1  UNL1        0.0290
     25  C         25.4130  -21.6150  -10.6420 C.2     1  UNL1        0.0040
     26  C         25.8310  -22.4120  -11.7040 C.2     1  UNL1        0.0190
     27  C         24.8810  -23.0820  -12.4690 C.2     1  UNL1        0.0130
     28 BR         25.4380  -24.1680  -13.9130 Br      1  UNL1       -0.0510
     29  C         23.5200  -22.9600  -12.1810 C.2     1  UNL1        0.0480
@<TRIPOS>BOND
     1    28    27    1
     2    27    29    1
     3    27    26    2
     4    29    23    2
     5    26    25    1
     6    22    21    1
     7    23    21    1
     8    23    24    1
     9     4     3    2
    10     4     5    1
    11     3     2    1
    12    21    19   am
    13    25    24    2
    14    19     5    1
    15    19    20    2
    16     5     6    2
    17     2     1    2
    18     6     1    1
    19     1     7    1
    20     9     7    2
    21     7     8    2
    22     7    10    1
    23    11    10    1
    24    10    12    1
    25    18    12    2
    26    18    16    1
    27    12    13    1
    28    17    16    1
    29    16    15    2
    30    13    14    2
    31    15    14    1
