@<TRIPOS>MOLECULE
33399_out_ligand_01.pdbqt
 32 34 0 0 0
SMALL
GASTEIGER

@<TRIPOS>ATOM
      1  C         17.2680  -22.8190   -9.1800 C.2     1  UNL1        0.0750
      2  C         16.6690  -21.9760  -10.1210 C.2     1  UNL1        0.0250
      3  C         17.4460  -21.4060  -11.1300 C.2     1  UNL1        0.0030
      4  C         18.8130  -21.6890  -11.2050 C.2     1  UNL1        0.0170
      5  C         19.4030  -22.5570  -10.2740 C.2     1  UNL1        0.0330
      6  C         18.6300  -23.1210   -9.2540 C.2     1  UNL1        0.0410
      7  C         20.8590  -22.8670  -10.3100 C.2     1  UNL1        0.2560
      8  O         21.2570  -23.8180   -9.6490 O.2     1  UNL1       -0.2670
      9  N         21.6090  -22.0430  -11.1300 N.am    1  UNL1       -0.3230
     10  H         21.1000  -21.3840  -11.7050 H       1  UNL1        0.1690
     11  C         23.0060  -22.0740  -11.3230 C.2     1  UNL1        0.0350
     12  C         23.9300  -21.5410  -10.4230 C.2     1  UNL1        0.0290
     13  C         25.3000  -21.6070  -10.6900 C.2     1  UNL1        0.0030
     14  C         25.7620  -22.2020  -11.8620 C.2     1  UNL1        0.0160
     15  C         24.8530  -22.7340  -12.7850 C.2     1  UNL1        0.0500
     16  C         23.4770  -22.6700  -12.5000 C.2     1  UNL1        0.0450
     17  C         25.3400  -23.3980  -14.0480 C.3     1  UNL1        0.4170
     18  F         25.0720  -24.7330  -14.0690 F       1  UNL1       -0.1660
     19  F         24.7640  -22.8860  -15.1730 F       1  UNL1       -0.1660
     20  F         26.6840  -23.2810  -14.2350 F       1  UNL1       -0.1660
     21  S         16.2760  -23.5490   -7.8970 S.O2    1  UNL1        0.2450
     22  O         15.5910  -24.6890   -8.4680 O.2     1  UNL1       -0.2060
     23  O         15.5650  -22.4760   -7.2390 O.2     1  UNL1       -0.2060
     24  N         17.5030  -24.1560   -6.8780 N.pl3   1  UNL1       -0.1810
     25  H         17.2020  -25.0790   -6.5610 H       1  UNL1        0.1460
     26  C         17.7880  -23.3110   -5.7530 C.2     1  UNL1        0.0230
     27  C         17.3050  -23.6440   -4.4870 C.2     1  UNL1        0.0240
     28  C         17.5450  -22.7890   -3.4120 C.2     1  UNL1        0.0020
     29  C         18.2560  -21.6040   -3.6030 C.2     1  UNL1        0.0070
     30  C         18.7370  -21.2610   -4.8730 C.2     1  UNL1       -0.0600
     31  C         19.4550  -19.9620   -5.0930 C.3     1  UNL1        0.0480
     32  C         18.4800  -22.1170   -5.9520 C.2     1  UNL1        0.0310
@<TRIPOS>BOND
     1    19    17    1
     2    20    17    1
     3    18    17    1
     4    17    15    1
     5    15    16    1
     6    15    14    2
     7    16    11    2
     8    14    13    1
     9    10     9    1
    10    11     9    1
    11    11    12    1
    12     4     3    2
    13     4     5    1
    14     9     7   am
    15     3     2    1
    16    13    12    2
    17     7     5    1
    18     7     8    2
    19     5     6    2
    20     2     1    2
    21     6     1    1
    22     1    21    1
    23    22    21    2
    24    21    23    2
    25    21    24    1
    26    24    25    1
    27    24    26    1
    28    32    26    2
    29    32    30    1
    30    26    27    1
    31    31    30    1
    32    30    29    2
    33    27    28    2
    34    29    28    1
