@<TRIPOS>MOLECULE
33408_out_ligand_01.pdbqt
 32 34 0 0 0
SMALL
GASTEIGER

@<TRIPOS>ATOM
      1  C         16.9250  -23.0310   -8.9700 C.2     1  UNL1        0.0800
      2  C         15.7690  -22.5220   -9.5700 C.2     1  UNL1        0.0250
      3  C         15.8810  -21.6540  -10.6560 C.2     1  UNL1        0.0030
      4  C         17.1410  -21.2870  -11.1320 C.2     1  UNL1        0.0170
      5  C         18.2990  -21.7780  -10.5110 C.2     1  UNL1        0.0330
      6  C         18.1920  -22.6570   -9.4270 C.2     1  UNL1        0.0420
      7  C         19.6590  -21.4220  -11.0040 C.2     1  UNL1        0.2560
      8  O         19.8470  -20.2740  -11.3840 O.2     1  UNL1       -0.2670
      9  N         20.5690  -22.4660  -10.9960 N.am    1  UNL1       -0.3220
     10  H         20.1950  -23.3750  -10.7410 H       1  UNL1        0.1690
     11  C         21.9360  -22.4360  -11.3740 C.2     1  UNL1        0.0500
     12  C         22.3580  -21.8530  -12.5770 C.2     1  UNL1        0.0300
     13  C         23.7080  -21.8300  -12.9410 C.2     1  UNL1        0.0020
     14  C         24.6660  -22.3870  -12.1060 C.2     1  UNL1        0.0010
     15  C         24.2700  -22.9670  -10.9050 C.2     1  UNL1        0.0180
     16  C         22.9100  -23.0000  -10.5220 C.2     1  UNL1        0.0740
     17  C         22.5940  -23.6470   -9.1970 C.3     1  UNL1        0.4190
     18  F         21.6220  -24.6070   -9.2600 F       1  UNL1       -0.1660
     19  F         23.6760  -24.2610   -8.6420 F       1  UNL1       -0.1660
     20  F         22.1560  -22.7510   -8.2690 F       1  UNL1       -0.1660
     21  S         16.7830  -24.1210   -7.5760 S.O2    1  UNL1        0.2630
     22  O         15.8990  -25.2110   -7.9250 O.2     1  UNL1       -0.2000
     23  O         18.1270  -24.3830   -7.0990 O.2     1  UNL1       -0.2000
     24  N         16.0640  -23.1380   -6.4050 N.pl3   1  UNL1       -0.2810
     25  H         15.3370  -22.5590   -6.8230 H       1  UNL1        0.1790
     26  C         16.9120  -22.5160   -5.4480 C.2     1  UNL1        0.0430
     27  C         16.7300  -22.7850   -4.0930 C.2     1  UNL1        0.0300
     28  C         17.5820  -22.2060   -3.1530 C.2     1  UNL1        0.0030
     29  C         18.6130  -21.3630   -3.5700 C.2     1  UNL1        0.0070
     30  C         18.8110  -21.1020   -4.9320 C.2     1  UNL1       -0.0600
     31  C         19.9060  -20.1790   -5.3790 C.3     1  UNL1        0.0480
     32  C         17.9450  -21.6790   -5.8700 C.2     1  UNL1        0.0370
@<TRIPOS>BOND
     1    13    12    1
     2    13    14    2
     3    12    11    2
     4    14    15    1
     5     8     7    2
     6    11     9    1
     7    11    16    1
     8     4     3    2
     9     4     5    1
    10     7     9   am
    11     7     5    1
    12     9    10    1
    13    15    16    2
    14     3     2    1
    15    16    17    1
    16     5     6    2
    17     2     1    2
    18     6     1    1
    19    18    17    1
    20    17    19    1
    21    17    20    1
    22     1    21    1
    23    22    21    2
    24    21    23    2
    25    21    24    1
    26    25    24    1
    27    24    26    1
    28    32    26    2
    29    32    30    1
    30    26    27    1
    31    31    30    1
    32    30    29    2
    33    27    28    2
    34    29    28    1
