@<TRIPOS>MOLECULE
33409_out_ligand_01.pdbqt
 30 32 0 0 0
SMALL
GASTEIGER

@<TRIPOS>ATOM
      1  C         17.2700  -22.9020   -9.0940 C.2     1  UNL1        0.0800
      2  C         16.6940  -22.0630  -10.0540 C.2     1  UNL1        0.0250
      3  C         17.4940  -21.5160  -11.0570 C.2     1  UNL1        0.0030
      4  C         18.8590  -21.8130  -11.1060 C.2     1  UNL1        0.0170
      5  C         19.4240  -22.6750  -10.1560 C.2     1  UNL1        0.0330
      6  C         18.6300  -23.2210   -9.1430 C.2     1  UNL1        0.0420
      7  S         16.2700  -23.5910   -7.7960 S.O2    1  UNL1        0.2630
      8  O         15.6760  -24.8040   -8.3170 O.2     1  UNL1       -0.2000
      9  O         15.4490  -22.5310   -7.2500 O.2     1  UNL1       -0.2000
     10  N         17.4110  -24.0690   -6.6480 N.pl3   1  UNL1       -0.2810
     11  H         18.1640  -24.6160   -7.0620 H       1  UNL1        0.1790
     12  C         17.7450  -23.1800   -5.5880 C.2     1  UNL1        0.0430
     13  C         17.4230  -23.5410   -4.2790 C.2     1  UNL1        0.0300
     14  C         17.7830  -22.7070   -3.2210 C.2     1  UNL1        0.0030
     15  C         18.4570  -21.5110   -3.4700 C.2     1  UNL1        0.0070
     16  C         18.7670  -21.1320   -4.7820 C.2     1  UNL1       -0.0600
     17  C         19.5160  -19.8600   -5.0520 C.3     1  UNL1        0.0480
     18  C         18.4150  -21.9830   -5.8390 C.2     1  UNL1        0.0370
     19  C         20.8780  -22.9940  -10.1590 C.2     1  UNL1        0.2560
     20  O         21.2600  -23.9280   -9.4650 O.2     1  UNL1       -0.2670
     21  N         21.6460  -22.1990  -10.9890 N.am    1  UNL1       -0.3230
     22  H         21.1510  -21.5520  -11.5890 H       1  UNL1        0.1690
     23  C         23.0460  -22.2510  -11.1640 C.2     1  UNL1        0.0360
     24  C         23.9550  -21.5140  -10.3980 C.2     1  UNL1        0.0320
     25  C         25.3300  -21.6150  -10.6340 C.2     1  UNL1        0.0460
     26  C         25.8000  -22.4500  -11.6410 C.2     1  UNL1        0.1380
     27  F         27.1210  -22.5290  -11.8530 F       1  UNL1       -0.2040
     28  C         24.9080  -23.1860  -12.4140 C.2     1  UNL1        0.0740
     29 CL         25.4760  -24.2220  -13.6660 Cl      1  UNL1       -0.0810
     30  C         23.5330  -23.0880  -12.1780 C.2     1  UNL1        0.0560
@<TRIPOS>BOND
     1    29    28    1
     2    28    30    1
     3    28    26    2
     4    30    23    2
     5    27    26    1
     6    26    25    1
     7    22    21    1
     8    23    21    1
     9    23    24    1
    10     4     3    2
    11     4     5    1
    12     3     2    1
    13    21    19   am
    14    25    24    2
    15    19     5    1
    16    19    20    2
    17     5     6    2
    18     2     1    2
    19     6     1    1
    20     1     7    1
    21     8     7    2
    22     7     9    2
    23     7    10    1
    24    11    10    1
    25    10    12    1
    26    18    12    2
    27    18    16    1
    28    12    13    1
    29    17    16    1
    30    16    15    2
    31    13    14    2
    32    15    14    1
