@<TRIPOS>MOLECULE
33406_out_ligand_01.pdbqt
 29 31 0 0 0
SMALL
GASTEIGER

@<TRIPOS>ATOM
      1  C         17.2460  -22.8420   -9.1410 C.2     1  UNL1        0.0800
      2  C         16.6030  -22.0000  -10.0550 C.2     1  UNL1        0.0250
      3  C         17.3380  -21.4030  -11.0790 C.2     1  UNL1        0.0030
      4  C         18.7080  -21.6540  -11.1950 C.2     1  UNL1        0.0170
      5  C         19.3420  -22.5180  -10.2910 C.2     1  UNL1        0.0330
      6  C         18.6110  -23.1170   -9.2600 C.2     1  UNL1        0.0420
      7  S         16.3070  -23.6160   -7.8470 S.O2    1  UNL1        0.2630
      8  O         15.5410  -22.5740   -7.1930 O.2     1  UNL1       -0.2000
      9  O         15.6510  -24.7840   -8.3890 O.2     1  UNL1       -0.2000
     10  N         17.4990  -24.0740   -6.7380 N.pl3   1  UNL1       -0.2810
     11  H         18.3050  -24.4630   -7.2250 H       1  UNL1        0.1790
     12  C         17.7670  -23.1930   -5.6540 C.2     1  UNL1        0.0430
     13  C         17.4260  -23.5650   -4.3540 C.2     1  UNL1        0.0300
     14  C         17.7510  -22.7270   -3.2880 C.2     1  UNL1        0.0030
     15  C         18.4210  -21.5250   -3.5220 C.2     1  UNL1        0.0070
     16  C         18.7600  -21.1420   -4.8250 C.2     1  UNL1       -0.0600
     17  C         19.5330  -19.8800   -5.0720 C.3     1  UNL1        0.0480
     18  C         18.4340  -21.9910   -5.8900 C.2     1  UNL1        0.0370
     19  C         20.8030  -22.7780  -10.3720 C.2     1  UNL1        0.2560
     20  O         21.2460  -23.7550   -9.7800 O.2     1  UNL1       -0.2670
     21  N         21.5050  -21.8720  -11.1440 N.am    1  UNL1       -0.3230
     22  H         20.9620  -21.1890  -11.6560 H       1  UNL1        0.1690
     23  C         22.8960  -21.8440  -11.3740 C.2     1  UNL1        0.0350
     24  C         23.8470  -21.6010  -10.3760 C.2     1  UNL1        0.0320
     25  C         25.2110  -21.5840  -10.6880 C.2     1  UNL1        0.0440
     26  C         25.6220  -21.8080  -11.9950 C.2     1  UNL1        0.1160
     27  F         26.9280  -21.7890  -12.2910 F       1  UNL1       -0.2060
     28  C         24.6950  -22.0480  -12.9990 C.2     1  UNL1        0.0440
     29  C         23.3330  -22.0660  -12.6890 C.2     1  UNL1        0.0320
@<TRIPOS>BOND
     1    28    29    1
     2    28    26    2
     3    29    23    2
     4    27    26    1
     5    26    25    1
     6    22    21    1
     7    23    21    1
     8    23    24    1
     9     4     3    2
    10     4     5    1
    11    21    19   am
    12     3     2    1
    13    25    24    2
    14    19     5    1
    15    19    20    2
    16     5     6    2
    17     2     1    2
    18     6     1    1
    19     1     7    1
    20     9     7    2
    21     7     8    2
    22     7    10    1
    23    11    10    1
    24    10    12    1
    25    18    12    2
    26    18    16    1
    27    12    13    1
    28    17    16    1
    29    16    15    2
    30    13    14    2
    31    15    14    1
