@<TRIPOS>MOLECULE
33401_out_ligand_01.pdbqt
 31 33 0 0 0
SMALL
GASTEIGER

@<TRIPOS>ATOM
      1  C         17.3380  -22.9200   -9.0890 C.2     1  UNL1        0.0800
      2  C         16.7910  -22.0450  -10.0310 C.2     1  UNL1        0.0250
      3  C         17.6070  -21.5200  -11.0330 C.2     1  UNL1        0.0030
      4  C         18.9570  -21.8760  -11.0980 C.2     1  UNL1        0.0170
      5  C         19.5020  -22.7650  -10.1600 C.2     1  UNL1        0.0330
      6  C         18.6900  -23.2700   -9.1360 C.2     1  UNL1        0.0420
      7  C         20.9300  -23.1880  -10.1910 C.2     1  UNL1        0.2510
      8  O         21.3270  -24.0560   -9.4210 O.2     1  UNL1       -0.2680
      9  N         21.7370  -22.5910  -11.1320 N.am    1  UNL1       -0.3530
     10  H         21.3690  -21.9090  -11.7800 H       1  UNL1        0.1630
     11  C         23.1560  -22.8600  -11.1990 C.3     1  UNL1        0.1630
     12  C         23.8180  -21.9970  -12.2440 C.2     1  UNL1       -0.0190
     13  C         23.0530  -21.5490  -13.3350 C.2     1  UNL1        0.0120
     14  C         23.6260  -20.7610  -14.3340 C.2     1  UNL1        0.0240
     15  C         24.9730  -20.4210  -14.2570 C.2     1  UNL1        0.0350
     16 CL         25.6810  -19.4490  -15.4880 Cl      1  UNL1       -0.0840
     17  C         25.7540  -20.8680  -13.1960 C.2     1  UNL1        0.0480
     18  C         25.1800  -21.6580  -12.1960 C.2     1  UNL1        0.0430
     19 CL         26.2100  -22.2160  -10.9260 Cl      1  UNL1       -0.0840
     20  S         16.3140  -23.5930   -7.8000 S.O2    1  UNL1        0.2630
     21  O         15.6330  -24.7570   -8.3260 O.2     1  UNL1       -0.2000
     22  O         15.5780  -22.4920   -7.2180 O.2     1  UNL1       -0.2000
     23  N         17.4360  -24.0830   -6.6380 N.pl3   1  UNL1       -0.2810
     24  H         17.3780  -25.0820   -6.4480 H       1  UNL1        0.1790
     25  C         17.7540  -23.2130   -5.5580 C.2     1  UNL1        0.0430
     26  C         17.4310  -23.5460   -4.2450 C.2     1  UNL1        0.0300
     27  C         17.7770  -22.6830   -3.2040 C.2     1  UNL1        0.0030
     28  C         18.4470  -21.4900   -3.4760 C.2     1  UNL1        0.0070
     29  C         18.7850  -21.1520   -4.7920 C.2     1  UNL1       -0.0600
     30  C         19.4750  -19.8530   -5.0900 C.3     1  UNL1        0.0480
     31  C         18.4180  -22.0150   -5.8330 C.2     1  UNL1        0.0370
@<TRIPOS>BOND
     1    16    15    1
     2    14    15    2
     3    14    13    1
     4    15    17    1
     5    13    12    2
     6    17    18    2
     7    12    18    1
     8    12    11    1
     9    18    19    1
    10    10     9    1
    11    11     9    1
    12     9     7   am
    13     4     3    2
    14     4     5    1
    15     3     2    1
    16     7     5    1
    17     7     8    2
    18     5     6    2
    19     2     1    2
    20     6     1    1
    21     1    20    1
    22    21    20    2
    23    20    22    2
    24    20    23    1
    25    23    24    1
    26    23    25    1
    27    31    25    2
    28    31    29    1
    29    25    26    1
    30    30    29    1
    31    29    28    2
    32    26    27    2
    33    28    27    1
