@<TRIPOS>MOLECULE
33403_out_ligand_01.pdbqt
 30 32 0 0 0
SMALL
GASTEIGER

@<TRIPOS>ATOM
      1  C         19.4660  -22.3480  -10.4200 C.2     1  UNL1        0.0330
      2  C         18.8650  -21.5160  -11.3740 C.2     1  UNL1        0.0170
      3  C         17.4930  -21.2520  -11.3120 C.2     1  UNL1        0.0030
      4  C         16.7140  -21.8270  -10.3080 C.2     1  UNL1        0.0250
      5  C         17.3130  -22.6750   -9.3740 C.2     1  UNL1        0.0800
      6  C         18.6870  -22.9310   -9.4150 C.2     1  UNL1        0.0420
      7  C         20.9170  -22.6790  -10.4600 C.2     1  UNL1        0.2510
      8  N         21.7470  -21.7270  -11.0070 N.am    1  UNL1       -0.3530
      9  H         21.3920  -20.7920  -11.1470 H       1  UNL1        0.1630
     10  O         21.3040  -23.7440   -9.9950 O.2     1  UNL1       -0.2680
     11  C         23.1870  -21.8630  -10.9550 C.3     1  UNL1        0.1610
     12  C         23.7330  -22.2300  -12.3110 C.2     1  UNL1       -0.0410
     13  C         23.4080  -21.4740  -13.4440 C.2     1  UNL1        0.0090
     14  C         23.9390  -21.8060  -14.6930 C.2     1  UNL1        0.0070
     15  C         24.7990  -22.9020  -14.8310 C.2     1  UNL1       -0.0620
     16  C         25.3900  -23.2350  -16.1680 C.3     1  UNL1        0.0480
     17  C         25.1400  -23.6450  -13.6960 C.2     1  UNL1        0.0070
     18  C         24.6100  -23.3140  -12.4480 C.2     1  UNL1        0.0090
     19  S         16.3310  -23.4480   -8.1080 S.O2    1  UNL1        0.2630
     20  O         15.5770  -22.4010   -7.4530 O.2     1  UNL1       -0.2000
     21  O         15.6690  -24.5960   -8.6920 O.2     1  UNL1       -0.2000
     22  N         17.4920  -23.9710   -6.9980 N.pl3   1  UNL1       -0.2810
     23  H         17.4640  -24.9820   -6.8700 H       1  UNL1        0.1790
     24  C         17.7510  -23.1720   -5.8500 C.2     1  UNL1        0.0430
     25  C         17.3620  -23.5970   -4.5820 C.2     1  UNL1        0.0300
     26  C         17.6600  -22.8160   -3.4650 C.2     1  UNL1        0.0030
     27  C         18.3560  -21.6160   -3.6160 C.2     1  UNL1        0.0070
     28  C         18.7660  -21.1880   -4.8860 C.2     1  UNL1       -0.0600
     29  C         19.4900  -19.8830   -5.0480 C.3     1  UNL1        0.0480
     30  C         18.4440  -21.9670   -6.0050 C.2     1  UNL1        0.0370
@<TRIPOS>BOND
     1    16    15    1
     2    15    14    2
     3    15    17    1
     4    14    13    1
     5    17    18    2
     6    13    12    2
     7    18    12    1
     8    12    11    1
     9     2     3    1
    10     2     1    2
    11     3     4    2
    12     9     8    1
    13     8    11    1
    14     8     7   am
    15     7     1    1
    16     7    10    2
    17     1     6    1
    18     4     5    1
    19     6     5    2
    20     5    19    1
    21    21    19    2
    22    19    20    2
    23    19    22    1
    24    22    23    1
    25    22    24    1
    26    30    24    2
    27    30    28    1
    28    24    25    1
    29    29    28    1
    30    28    27    2
    31    25    26    2
    32    27    26    1
