@<TRIPOS>MOLECULE
33405_out_ligand_01.pdbqt
 30 32 0 0 0
SMALL
GASTEIGER

@<TRIPOS>ATOM
      1  C         16.9580  -22.8870   -8.9520 C.2     1  UNL1        0.0800
      2  C         16.2530  -22.0410   -9.8140 C.2     1  UNL1        0.0250
      3  C         16.9120  -21.4580  -10.8950 C.2     1  UNL1        0.0030
      4  C         18.2700  -21.7130  -11.1100 C.2     1  UNL1        0.0170
      5  C         18.9770  -22.5520  -10.2350 C.2     1  UNL1        0.0330
      6  C         18.3130  -23.1570   -9.1620 C.2     1  UNL1        0.0420
      7  S         16.1220  -23.6540   -7.5880 S.O2    1  UNL1        0.2630
      8  O         15.5230  -24.8760   -8.0840 O.2     1  UNL1       -0.2000
      9  O         15.3230  -22.6570   -6.9080 O.2     1  UNL1       -0.2000
     10  N         17.4040  -24.1290   -6.5920 N.pl3   1  UNL1       -0.2810
     11  H         17.3450  -25.1260   -6.3870 H       1  UNL1        0.1790
     12  C         17.7710  -23.2640   -5.5260 C.2     1  UNL1        0.0430
     13  C         17.4280  -23.5890   -4.2160 C.2     1  UNL1        0.0300
     14  C         17.7490  -22.7110   -3.1800 C.2     1  UNL1        0.0030
     15  C         18.4100  -21.5130   -3.4570 C.2     1  UNL1        0.0070
     16  C         18.7630  -21.1830   -4.7720 C.2     1  UNL1       -0.0600
     17  C         19.4400  -19.8800   -5.0740 C.3     1  UNL1        0.0480
     18  C         18.4240  -22.0630   -5.8080 C.2     1  UNL1        0.0370
     19  C         20.4260  -22.8460  -10.4310 C.2     1  UNL1        0.2560
     20  O         20.8510  -23.9260  -10.0410 O.2     1  UNL1       -0.2670
     21  N         21.1570  -21.8200  -11.0050 N.am    1  UNL1       -0.3220
     22  H         20.6750  -20.9420  -11.1270 H       1  UNL1        0.1690
     23  C         22.5310  -21.8250  -11.3510 C.2     1  UNL1        0.0420
     24  C         22.9710  -21.9460  -12.6740 C.2     1  UNL1        0.0540
     25  C         24.3340  -21.9400  -12.9730 C.2     1  UNL1        0.0360
     26 CL         24.8560  -22.0890  -14.6070 Cl      1  UNL1       -0.0840
     27  C         25.2810  -21.8090  -11.9640 C.2     1  UNL1        0.0240
     28  C         24.8600  -21.6810  -10.6420 C.2     1  UNL1        0.0110
     29  C         23.4900  -21.6860  -10.3190 C.2     1  UNL1       -0.0350
     30  C         23.1040  -21.5450   -8.8700 C.3     1  UNL1        0.0500
@<TRIPOS>BOND
     1    26    25    1
     2    25    24    1
     3    25    27    2
     4    24    23    2
     5    27    28    1
     6    23    21    1
     7    23    29    1
     8    22    21    1
     9     4     3    2
    10     4     5    1
    11    21    19   am
    12     3     2    1
    13    28    29    2
    14    19     5    1
    15    19    20    2
    16    29    30    1
    17     5     6    2
    18     2     1    2
    19     6     1    1
    20     1     7    1
    21     8     7    2
    22     7     9    2
    23     7    10    1
    24    10    11    1
    25    10    12    1
    26    18    12    2
    27    18    16    1
    28    12    13    1
    29    17    16    1
    30    16    15    2
    31    13    14    2
    32    15    14    1
