@<TRIPOS>MOLECULE
3340_out_ligand_01.pdbqt
 29 32 0 0 0
SMALL
GASTEIGER

@<TRIPOS>ATOM
      1  C         19.6380  -23.5940   -8.5550 C.2     1  UNL1        0.2520
      2  O         19.8410  -24.7060   -8.0880 O.2     1  UNL1       -0.2680
      3  N         18.6630  -22.7090   -8.1580 N.am    1  UNL1       -0.3420
      4  H         18.5330  -21.8970   -8.7430 H       1  UNL1        0.1640
      5  C         20.5250  -23.1070   -9.6460 C.2     1  UNL1        0.0320
      6  C         19.9810  -22.2760  -10.6280 C.2     1  UNL1        0.0180
      7  C         20.7890  -21.7990  -11.6670 C.2     1  UNL1        0.0160
      8  C         22.1420  -22.1580  -11.7540 C.2     1  UNL1        0.0120
      9  C         22.6740  -23.0040  -10.7690 C.2     1  UNL1        0.0160
     10  C         21.8730  -23.4790   -9.7220 C.2     1  UNL1        0.0180
     11  C         22.9470  -21.6410  -12.8610 C.ar    1  UNL1        0.1610
     12  N         22.5010  -21.0710  -13.9660 N.ar    1  UNL1       -0.1300
     13  N         23.5760  -20.7360  -14.7550 N.ar    1  UNL1       -0.1350
     14  C         24.6670  -21.1150  -14.1310 C.ar    1  UNL1        0.1240
     15  C         26.0640  -20.9770  -14.5890 C.3     1  UNL1        0.0930
     16  N         24.3170  -21.6870  -12.9390 N.ar    1  UNL1       -0.3260
     17  H         24.9450  -22.0900  -12.2620 H       1  UNL1        0.1690
     18  C         17.5100  -22.9820   -7.2700 C.3     1  UNL1        0.0880
     19  C         17.0860  -24.4650   -7.1960 C.3     1  UNL1        0.0680
     20  C         15.9430  -24.6350   -8.2020 C.3     1  UNL1        0.2720
     21  N         15.6700  -23.3200   -8.7820 N.3     1  UNL1        0.0860
     22  C         16.2060  -22.3510   -7.8290 C.3     1  UNL1        0.3050
     23  H         14.6730  -23.1890   -8.9400 H       1  UNL1        0.3150
     24  C         17.9200  -22.4300   -5.8950 C.2     1  UNL1       -0.0280
     25  C         17.4690  -23.0010   -4.6920 C.2     1  UNL1        0.0100
     26  C         17.8270  -22.4520   -3.4580 C.2     1  UNL1        0.0010
     27  C         18.6250  -21.3130   -3.4010 C.2     1  UNL1        0.0000
     28  C         19.0600  -20.7150   -4.5790 C.2     1  UNL1        0.0010
     29  C         18.7040  -21.2620   -5.8140 C.2     1  UNL1        0.0100
@<TRIPOS>BOND
     1    13    14   ar
     2    13    12   ar
     3    15    14    1
     4    14    16   ar
     5    12    11   ar
     6    16    11   ar
     7    16    17    1
     8    11     8    1
     9     8     7    2
    10     8     9    1
    11     7     6    1
    12     9    10    2
    13     6     5    2
    14    10     5    1
    15     5     1    1
    16    23    21    1
    17    21    20    1
    18    21    22    1
    19     4     3    1
    20     1     3   am
    21     1     2    2
    22    20    19    1
    23     3    18    1
    24    22    18    1
    25    18    19    1
    26    18    24    1
    27    24    29    2
    28    24    25    1
    29    29    28    1
    30    25    26    2
    31    28    27    2
    32    26    27    1
