@<TRIPOS>MOLECULE
33400_out_ligand_01.pdbqt
 30 32 0 0 0
SMALL
GASTEIGER

@<TRIPOS>ATOM
      1  C         17.5420  -22.5920   -9.6370 C.2     1  UNL1        0.0750
      2  C         17.0130  -21.7150  -10.5880 C.2     1  UNL1        0.0250
      3  C         17.8530  -21.1430  -11.5420 C.2     1  UNL1        0.0030
      4  C         19.2170  -21.4520  -11.5470 C.2     1  UNL1        0.0170
      5  C         19.7460  -22.3410  -10.5990 C.2     1  UNL1        0.0330
      6  C         18.9060  -22.8980   -9.6270 C.2     1  UNL1        0.0410
      7  S         16.4710  -23.2850   -8.3990 S.O2    1  UNL1        0.2450
      8  O         15.8720  -22.1910   -7.6650 O.2     1  UNL1       -0.2060
      9  O         15.6770  -24.3100   -9.0390 O.2     1  UNL1       -0.2060
     10  N         17.6290  -23.9940   -7.3650 N.pl3   1  UNL1       -0.1810
     11  H         18.4970  -24.0570   -7.9010 H       1  UNL1        0.1460
     12  C         17.8530  -23.2500   -6.1580 C.2     1  UNL1        0.0230
     13  C         17.3080  -23.7110   -4.9630 C.2     1  UNL1        0.0240
     14  C         17.4890  -22.9780   -3.7910 C.2     1  UNL1        0.0020
     15  C         18.1980  -21.7760   -3.8210 C.2     1  UNL1        0.0070
     16  C         18.7170  -21.2870   -5.0260 C.2     1  UNL1       -0.0600
     17  C         19.4860  -20.0000   -5.0600 C.3     1  UNL1        0.0480
     18  C         18.5440  -22.0360   -6.1970 C.2     1  UNL1        0.0310
     19  C         21.1920  -22.7010  -10.5720 C.2     1  UNL1        0.2510
     20  O         21.6700  -23.2570   -9.5900 O.2     1  UNL1       -0.2680
     21  N         21.9220  -22.4100  -11.7020 N.am    1  UNL1       -0.3530
     22  H         21.4480  -22.1760  -12.5620 H       1  UNL1        0.1630
     23  C         23.3090  -22.8000  -11.8030 C.3     1  UNL1        0.1620
     24  C         24.0750  -21.8120  -12.6490 C.2     1  UNL1       -0.0350
     25  C         23.5550  -21.4520  -13.9050 C.2     1  UNL1        0.0090
     26  C         24.2110  -20.5230  -14.7120 C.2     1  UNL1        0.0010
     27  C         25.3940  -19.9370  -14.2730 C.2     1  UNL1        0.0010
     28  C         25.9180  -20.2750  -13.0260 C.2     1  UNL1        0.0070
     29  C         25.2660  -21.2030  -12.1980 C.2     1  UNL1       -0.0540
     30  C         25.8710  -21.5440  -10.8630 C.3     1  UNL1        0.0490
@<TRIPOS>BOND
     1    26    27    2
     2    26    25    1
     3    27    28    1
     4    25    24    2
     5    28    29    2
     6    24    29    1
     7    24    23    1
     8    22    21    1
     9    29    30    1
    10    23    21    1
    11    21    19   am
    12     4     3    2
    13     4     5    1
    14     3     2    1
    15     5    19    1
    16     5     6    2
    17     2     1    2
    18    19    20    2
    19     1     6    1
    20     1     7    1
    21     9     7    2
    22     7     8    2
    23     7    10    1
    24    11    10    1
    25    10    12    1
    26    18    12    2
    27    18    16    1
    28    12    13    1
    29    17    16    1
    30    16    15    2
    31    13    14    2
    32    15    14    1
