@<TRIPOS>MOLECULE
33418_out_ligand_01.pdbqt
 32 34 0 0 0
SMALL
GASTEIGER

@<TRIPOS>ATOM
      1  C         21.8360  -21.9030  -11.3520 C.2     1  UNL1        0.0800
      2  C         21.1030  -21.1860  -12.3040 C.2     1  UNL1        0.0250
      3  C         19.7190  -21.0720  -12.1660 C.2     1  UNL1        0.0030
      4  C         19.0700  -21.6710  -11.0820 C.2     1  UNL1        0.0170
      5  C         19.8130  -22.3860  -10.1320 C.2     1  UNL1        0.0330
      6  C         21.1980  -22.5240  -10.2710 C.2     1  UNL1        0.0420
      7  C         19.1610  -23.0260   -8.9670 C.2     1  UNL1        0.2560
      8  O         19.5760  -24.1190   -8.6070 O.2     1  UNL1       -0.2670
      9  N         18.1260  -22.2930   -8.4150 N.am    1  UNL1       -0.3220
     10  H         17.7230  -21.5850   -9.0120 H       1  UNL1        0.1690
     11  C         17.3400  -22.7050   -7.3120 C.2     1  UNL1        0.0470
     12  C         16.2110  -23.5170   -7.5940 C.2     1  UNL1       -0.0350
     13  C         15.8510  -23.9340   -8.9990 C.3     1  UNL1        0.0500
     14  C         15.4260  -24.0060   -6.5390 C.2     1  UNL1        0.0090
     15  C         15.7250  -23.6780   -5.2240 C.2     1  UNL1        0.0010
     16  C         16.7920  -22.8270   -4.9510 C.2     1  UNL1        0.0100
     17  C         17.6010  -22.3000   -5.9810 C.2     1  UNL1       -0.0270
     18  C         18.6040  -21.2080   -5.6050 C.3     1  UNL1        0.0130
     19  C         18.6650  -21.0230   -4.0880 C.3     1  UNL1        0.0150
     20  C         20.0020  -21.4730   -6.1640 C.3     1  UNL1        0.0150
     21  S         23.6020  -22.0330  -11.5260 S.O2    1  UNL1        0.2630
     22  O         23.9000  -23.4140  -11.8300 O.2     1  UNL1       -0.2000
     23  O         24.2230  -21.3640  -10.4100 O.2     1  UNL1       -0.2000
     24  N         23.9150  -21.1660  -12.9350 N.pl3   1  UNL1       -0.2810
     25  H         23.9760  -20.1640  -12.7650 H       1  UNL1        0.1790
     26  C         24.6990  -21.7260  -13.9810 C.2     1  UNL1        0.0430
     27  C         26.0890  -21.7470  -13.8180 C.2     1  UNL1        0.0300
     28  C         26.9010  -22.3050  -14.8110 C.2     1  UNL1        0.0030
     29  C         26.3250  -22.8270  -15.9730 C.2     1  UNL1        0.0070
     30  C         24.9370  -22.7830  -16.1600 C.2     1  UNL1       -0.0600
     31  C         24.3010  -23.3720  -17.3900 C.3     1  UNL1        0.0480
     32  C         24.1310  -22.2190  -15.1590 C.2     1  UNL1        0.0370
@<TRIPOS>BOND
     1    31    30    1
     2    30    29    2
     3    30    32    1
     4    29    28    1
     5    32    26    2
     6    28    27    2
     7    26    27    1
     8    26    24    1
     9    24    25    1
    10    24    21    1
    11     2     3    1
    12     2     1    2
    13     3     4    2
    14    22    21    2
    15    21     1    1
    16    21    23    2
    17     1     6    1
    18     4     5    1
    19     6     5    2
    20     5     7    1
    21    10     9    1
    22    13    12    1
    23     7     8    2
    24     7     9   am
    25     9    11    1
    26    12    11    2
    27    12    14    1
    28    11    17    1
    29    14    15    2
    30    20    18    1
    31    17    18    1
    32    17    16    2
    33    18    19    1
    34    15    16    1
