@<TRIPOS>MOLECULE
33413_out_ligand_01.pdbqt
 29 31 0 0 0
SMALL
GASTEIGER

@<TRIPOS>ATOM
      1  C         17.2330  -22.7940   -9.1700 C.2     1  UNL1        0.0800
      2  C         16.5910  -21.9720  -10.1010 C.2     1  UNL1        0.0250
      3  C         17.3330  -21.3870  -11.1280 C.2     1  UNL1        0.0030
      4  C         18.7030  -21.6330  -11.2300 C.2     1  UNL1        0.0170
      5  C         19.3370  -22.4780  -10.3070 C.2     1  UNL1        0.0330
      6  C         18.6020  -23.0550   -9.2660 C.2     1  UNL1        0.0420
      7  S         16.3000  -23.5440   -7.8600 S.O2    1  UNL1        0.2630
      8  O         15.4620  -22.5360   -7.2480 O.2     1  UNL1       -0.2000
      9  O         15.7250  -24.7620   -8.3930 O.2     1  UNL1       -0.2000
     10  N         17.5020  -24.0200   -6.7750 N.pl3   1  UNL1       -0.2810
     11  H         17.4500  -25.0190   -6.5800 H       1  UNL1        0.1790
     12  C         17.8020  -23.1550   -5.6890 C.2     1  UNL1        0.0430
     13  C         17.4630  -23.5420   -4.3940 C.2     1  UNL1        0.0300
     14  C         17.7870  -22.7160   -3.3190 C.2     1  UNL1        0.0030
     15  C         18.4500  -21.5070   -3.5410 C.2     1  UNL1        0.0070
     16  C         18.7880  -21.1100   -4.8410 C.2     1  UNL1       -0.0600
     17  C         19.5410  -19.8350   -5.0750 C.3     1  UNL1        0.0480
     18  C         18.4700  -21.9520   -5.9150 C.2     1  UNL1        0.0370
     19  C         20.7990  -22.7500  -10.3770 C.2     1  UNL1        0.2560
     20  O         21.2320  -23.7210   -9.7710 O.2     1  UNL1       -0.2670
     21  N         21.5140  -21.8660  -11.1650 N.am    1  UNL1       -0.3230
     22  H         20.9800  -21.1920  -11.6980 H       1  UNL1        0.1690
     23  C         22.9080  -21.8540  -11.3850 C.2     1  UNL1        0.0370
     24  C         23.8550  -21.6290  -10.3810 C.2     1  UNL1        0.0290
     25  C         25.2250  -21.6270  -10.6780 C.2     1  UNL1        0.0050
     26  C         25.6560  -21.8470  -11.9830 C.2     1  UNL1        0.0420
     27  C         24.7140  -22.0660  -12.9780 C.2     1  UNL1        0.1180
     28  F         25.1220  -22.2760  -14.2370 F       1  UNL1       -0.2060
     29  C         23.3510  -22.0710  -12.6930 C.2     1  UNL1        0.0710
@<TRIPOS>BOND
     1    28    27    1
     2    27    29    1
     3    27    26    2
     4    29    23    2
     5    26    25    1
     6    22    21    1
     7    23    21    1
     8    23    24    1
     9     4     3    2
    10     4     5    1
    11    21    19   am
    12     3     2    1
    13    25    24    2
    14    19     5    1
    15    19    20    2
    16     5     6    2
    17     2     1    2
    18     6     1    1
    19     1     7    1
    20     9     7    2
    21     7     8    2
    22     7    10    1
    23    10    11    1
    24    10    12    1
    25    18    12    2
    26    18    16    1
    27    12    13    1
    28    17    16    1
    29    16    15    2
    30    13    14    2
    31    15    14    1
