@<TRIPOS>MOLECULE
33410_out_ligand_01.pdbqt
 33 35 0 0 0
SMALL
GASTEIGER

@<TRIPOS>ATOM
      1  C         19.0320  -22.5440  -10.2540 C.2     1  UNL1        0.0330
      2  C         18.3260  -21.6430  -11.0680 C.2     1  UNL1        0.0170
      3  C         16.9690  -21.4020  -10.8380 C.2     1  UNL1        0.0030
      4  C         16.3110  -22.0500   -9.7920 C.2     1  UNL1        0.0250
      5  C         17.0200  -22.9360   -8.9750 C.2     1  UNL1        0.0800
      6  C         18.3800  -23.1780   -9.1900 C.2     1  UNL1        0.0420
      7  C         20.4800  -22.8270  -10.4690 C.2     1  UNL1        0.2560
      8  N         21.1790  -21.8250  -11.1200 N.am    1  UNL1       -0.3220
      9  H         20.6280  -21.0640  -11.4890 H       1  UNL1        0.1690
     10  O         20.9140  -23.9110  -10.1020 O.2     1  UNL1       -0.2670
     11  C         22.5640  -21.7870  -11.4210 C.2     1  UNL1        0.0420
     12  C         23.4830  -21.6560  -10.3560 C.2     1  UNL1       -0.0350
     13  C         24.8610  -21.6220  -10.6310 C.2     1  UNL1        0.0100
     14  C         23.0470  -21.5470   -8.9180 C.3     1  UNL1        0.0500
     15  C         25.3290  -21.7180  -11.9400 C.2     1  UNL1        0.0180
     16  C         24.4270  -21.8540  -12.9980 C.2     1  UNL1        0.0410
     17  C         23.0500  -21.8890  -12.7330 C.2     1  UNL1        0.0470
     18  C         24.9820  -21.9600  -14.3760 C.2     1  UNL1        0.2930
     19  O         26.1780  -21.9130  -14.6220 O.2     1  UNL1       -0.2590
     20  O         23.9910  -22.1130  -15.2880 O.3     1  UNL1       -0.3230
     21  C         24.3680  -22.8670  -16.4400 C.3     1  UNL1        0.2130
     22  S         16.1970  -23.7440   -7.6270 S.O2    1  UNL1        0.2630
     23  O         15.4120  -22.7400   -6.9390 O.2     1  UNL1       -0.2000
     24  O         15.5840  -24.9610   -8.1150 O.2     1  UNL1       -0.2000
     25  N         17.4780  -24.1300   -6.5930 N.pl3   1  UNL1       -0.2810
     26  H         18.2640  -24.5050   -7.1240 H       1  UNL1        0.1790
     27  C         17.7760  -23.2250   -5.5390 C.2     1  UNL1        0.0430
     28  C         17.4610  -23.5590   -4.2240 C.2     1  UNL1        0.0300
     29  C         17.8000  -22.6880   -3.1900 C.2     1  UNL1        0.0030
     30  C         18.4540  -21.4870   -3.4720 C.2     1  UNL1        0.0070
     31  C         18.7670  -21.1420   -4.7930 C.2     1  UNL1       -0.0600
     32  C         19.5020  -19.8690   -5.0920 C.3     1  UNL1        0.0480
     33  C         18.4370  -22.0300   -5.8250 C.2     1  UNL1        0.0370
@<TRIPOS>BOND
     1    21    20    1
     2    20    18    1
     3    19    18    2
     4    18    16    1
     5    16    17    1
     6    16    15    2
     7    17    11    2
     8    15    13    1
     9     9     8    1
    10    11     8    1
    11    11    12    1
    12     8     7   am
    13     2     3    1
    14     2     1    2
    15     3     4    2
    16    13    12    2
    17     7     1    1
    18     7    10    2
    19    12    14    1
    20     1     6    1
    21     4     5    1
    22     6     5    2
    23     5    22    1
    24    24    22    2
    25    22    23    2
    26    22    25    1
    27    26    25    1
    28    25    27    1
    29    33    27    2
    30    33    31    1
    31    27    28    1
    32    32    31    1
    33    31    30    2
    34    28    29    2
    35    30    29    1
