@<TRIPOS>MOLECULE
33412_out_ligand_01.pdbqt
 31 33 0 0 0
SMALL
GASTEIGER

@<TRIPOS>ATOM
      1  C         26.5440  -21.9720  -14.0730 C.3     1  UNL1        0.1620
      2  C         26.6450  -22.9160  -15.1940 C.1     1  UNL1        0.0630
      3  N         26.7450  -23.6510  -16.0880 N.1     1  UNL1       -0.1970
      4  C         25.1530  -21.9060  -13.4880 C.2     1  UNL1       -0.0450
      5  C         24.8840  -22.4390  -12.2210 C.2     1  UNL1        0.0100
      6  C         23.5930  -22.3900  -11.6830 C.2     1  UNL1        0.0300
      7  C         22.5460  -21.8130  -12.4030 C.2     1  UNL1        0.0350
      8  C         22.8100  -21.2920  -13.6740 C.2     1  UNL1        0.0300
      9  C         24.0990  -21.3370  -14.2140 C.2     1  UNL1        0.0100
     10  N         21.2180  -21.7350  -11.9340 N.am    1  UNL1       -0.3230
     11  C         20.6570  -22.4430  -10.8880 C.2     1  UNL1        0.2560
     12  O         21.2220  -23.2190  -10.1280 O.2     1  UNL1       -0.2670
     13  H         20.6400  -21.0300  -12.3740 H       1  UNL1        0.1690
     14  C         19.2080  -22.1840  -10.6670 C.2     1  UNL1        0.0330
     15  C         18.4870  -21.3110  -11.4970 C.2     1  UNL1        0.0170
     16  C         17.1230  -21.0990  -11.2730 C.2     1  UNL1        0.0030
     17  C         16.4750  -21.7610  -10.2300 C.2     1  UNL1        0.0250
     18  C         17.1940  -22.6470   -9.4220 C.2     1  UNL1        0.0800
     19  C         18.5590  -22.8620   -9.6310 C.2     1  UNL1        0.0420
     20  S         16.3790  -23.4940   -8.0920 S.O2    1  UNL1        0.2630
     21  O         15.6170  -22.5010   -7.3630 O.2     1  UNL1       -0.2000
     22  O         15.7400  -24.6810   -8.6170 O.2     1  UNL1       -0.2000
     23  N         17.6650  -23.9360   -7.0930 N.pl3   1  UNL1       -0.2810
     24  H         18.4630  -24.2600   -7.6370 H       1  UNL1        0.1790
     25  C         17.9300  -23.1340   -5.9500 C.2     1  UNL1        0.0430
     26  C         17.4480  -23.5350   -4.7060 C.2     1  UNL1        0.0300
     27  C         17.6740  -22.7350   -3.5870 C.2     1  UNL1        0.0030
     28  C         18.3770  -21.5360   -3.7150 C.2     1  UNL1        0.0070
     29  C         18.8700  -21.1310   -4.9620 C.2     1  UNL1       -0.0600
     30  C         19.5850  -19.8200   -5.1080 C.3     1  UNL1        0.0480
     31  C         18.6290  -21.9340   -6.0850 C.2     1  UNL1        0.0370
@<TRIPOS>BOND
     1     3     2    3
     2     2     1    1
     3     9     8    1
     4     9     4    2
     5     1     4    1
     6     8     7    2
     7     4     5    1
     8     7    10    1
     9     7     6    1
    10    13    10    1
    11     5     6    2
    12    10    11   am
    13    15    16    1
    14    15    14    2
    15    16    17    2
    16    11    14    1
    17    11    12    2
    18    14    19    1
    19    17    18    1
    20    19    18    2
    21    18    20    1
    22    22    20    2
    23    20    21    2
    24    20    23    1
    25    24    23    1
    26    23    25    1
    27    31    25    2
    28    31    29    1
    29    25    26    1
    30    30    29    1
    31    29    28    2
    32    26    27    2
    33    28    27    1
