@<TRIPOS>MOLECULE
33417_out_ligand_01.pdbqt
 33 35 0 0 0
SMALL
GASTEIGER

@<TRIPOS>ATOM
      1  C         19.3790  -22.5220  -10.2730 C.2     1  UNL1        0.0330
      2  C         18.7660  -21.6600  -11.1950 C.2     1  UNL1        0.0170
      3  C         17.4030  -21.3700  -11.0840 C.2     1  UNL1        0.0030
      4  C         16.6480  -21.9460  -10.0620 C.2     1  UNL1        0.0250
      5  C         17.2600  -22.8220   -9.1600 C.2     1  UNL1        0.0800
      6  C         18.6230  -23.1130   -9.2560 C.2     1  UNL1        0.0420
      7  C         20.8240  -22.8610  -10.3730 C.2     1  UNL1        0.2560
      8  N         21.5950  -21.9110  -11.0190 N.am    1  UNL1       -0.3220
      9  H         21.1260  -21.0480  -11.2510 H       1  UNL1        0.1690
     10  O         21.2010  -23.9080   -9.8620 O.2     1  UNL1       -0.2670
     11  C         22.9770  -21.9780  -11.3280 C.2     1  UNL1        0.0420
     12  C         23.9310  -22.3130  -10.3560 C.2     1  UNL1        0.0300
     13  C         25.2860  -22.4160  -10.6750 C.2     1  UNL1        0.0030
     14  C         25.7070  -22.2110  -11.9800 C.2     1  UNL1        0.0180
     15  C         24.7710  -21.8920  -12.9720 C.2     1  UNL1        0.0470
     16  C         23.4010  -21.7250  -12.6560 C.2     1  UNL1       -0.0190
     17  C         22.4230  -21.2860  -13.7180 C.3     1  UNL1        0.0520
     18  C         25.3140  -21.7450  -14.3410 C.2     1  UNL1        0.2930
     19  O         25.7480  -20.7000  -14.7940 O.2     1  UNL1       -0.2590
     20  O         25.3230  -22.9590  -14.9460 O.3     1  UNL1       -0.3230
     21  C         24.7640  -22.9490  -16.2600 C.3     1  UNL1        0.2130
     22  S         16.3080  -23.5580   -7.8550 S.O2    1  UNL1        0.2630
     23  O         15.6050  -24.7070   -8.3820 O.2     1  UNL1       -0.2000
     24  O         15.5880  -22.4850   -7.2010 O.2     1  UNL1       -0.2000
     25  N         17.4970  -24.0650   -6.7710 N.pl3   1  UNL1       -0.2810
     26  H         18.2710  -24.5200   -7.2560 H       1  UNL1        0.1790
     27  C         17.8190  -23.2090   -5.6840 C.2     1  UNL1        0.0430
     28  C         17.4050  -23.5530   -4.3980 C.2     1  UNL1        0.0300
     29  C         17.6850  -22.7020   -3.3310 C.2     1  UNL1        0.0030
     30  C         18.3740  -21.5080   -3.5520 C.2     1  UNL1        0.0070
     31  C         18.7980  -21.1590   -4.8410 C.2     1  UNL1       -0.0600
     32  C         19.4970  -19.8550   -5.0840 C.3     1  UNL1        0.0480
     33  C         18.5030  -22.0140   -5.9100 C.2     1  UNL1        0.0370
@<TRIPOS>BOND
     1    21    20    1
     2    20    18    1
     3    19    18    2
     4    18    15    1
     5    17    16    1
     6    15    16    1
     7    15    14    2
     8    16    11    2
     9    14    13    1
    10    11     8    1
    11    11    12    1
    12     9     8    1
    13     2     3    1
    14     2     1    2
    15     3     4    2
    16     8     7   am
    17    13    12    2
    18     7     1    1
    19     7    10    2
    20     1     6    1
    21     4     5    1
    22     6     5    2
    23     5    22    1
    24    23    22    2
    25    22    24    2
    26    22    25    1
    27    26    25    1
    28    25    27    1
    29    33    27    2
    30    33    31    1
    31    27    28    1
    32    32    31    1
    33    31    30    2
    34    28    29    2
    35    30    29    1
