@<TRIPOS>MOLECULE
33416_out_ligand_01.pdbqt
 31 33 0 0 0
SMALL
GASTEIGER

@<TRIPOS>ATOM
      1  C         21.4800  -22.4210  -10.0690 C.2     1  UNL1        0.0800
      2  C         20.9230  -21.8600  -11.2230 C.2     1  UNL1        0.0250
      3  C         19.5390  -21.7370  -11.3300 C.2     1  UNL1        0.0030
      4  C         18.7160  -22.1610  -10.2830 C.2     1  UNL1        0.0170
      5  C         19.2820  -22.7010   -9.1180 C.2     1  UNL1        0.0330
      6  C         20.6680  -22.8410   -9.0120 C.2     1  UNL1        0.0420
      7  C         18.4310  -23.1760   -7.9920 C.2     1  UNL1        0.2560
      8  O         18.5190  -24.3540   -7.6730 O.2     1  UNL1       -0.2670
      9  N         17.6480  -22.1940   -7.4140 N.am    1  UNL1       -0.3220
     10  H         17.8280  -21.2530   -7.7280 H       1  UNL1        0.1690
     11  C         16.7160  -22.3280   -6.3540 C.2     1  UNL1        0.0410
     12  C         15.3770  -22.6670   -6.5990 C.2     1  UNL1        0.0300
     13  C         14.4670  -22.8310   -5.5540 C.2     1  UNL1        0.0020
     14  C         14.8810  -22.6610   -4.2430 C.2     1  UNL1        0.0010
     15  C         16.2040  -22.3110   -3.9760 C.2     1  UNL1        0.0100
     16  C         17.1410  -22.1170   -5.0140 C.2     1  UNL1       -0.0280
     17  C         18.5780  -21.7260   -4.6630 C.3     1  UNL1        0.0130
     18  C         19.1250  -20.5100   -5.4230 C.3     1  UNL1        0.0150
     19  C         18.7100  -21.4990   -3.1550 C.3     1  UNL1        0.0150
     20  S         23.2410  -22.5830   -9.9240 S.O2    1  UNL1        0.2630
     21  O         23.4940  -23.4880   -8.8210 O.2     1  UNL1       -0.2000
     22  O         23.8340  -21.2640   -9.9510 O.2     1  UNL1       -0.2000
     23  N         23.6520  -23.4200  -11.3310 N.pl3   1  UNL1       -0.2810
     24  H         23.7170  -24.4230  -11.1620 H       1  UNL1        0.1790
     25  C         24.6120  -22.8360  -12.1990 C.2     1  UNL1        0.0430
     26  C         25.9690  -23.0110  -11.9340 C.2     1  UNL1        0.0300
     27  C         26.9180  -22.4570  -12.7910 C.2     1  UNL1        0.0030
     28  C         26.5090  -21.7370  -13.9160 C.2     1  UNL1        0.0070
     29  C         25.1460  -21.5750  -14.1990 C.2     1  UNL1       -0.0600
     30  C         24.7070  -20.7840  -15.3950 C.3     1  UNL1        0.0480
     31  C         24.1970  -22.1210  -13.3230 C.2     1  UNL1        0.0370
@<TRIPOS>BOND
     1    30    29    1
     2    29    28    2
     3    29    31    1
     4    28    27    1
     5    31    25    2
     6    27    26    2
     7    25    26    1
     8    25    23    1
     9    23    24    1
    10    23    20    1
    11     3     2    1
    12     3     4    2
    13     2     1    2
    14     4     5    1
    15     1    20    1
    16     1     6    1
    17    22    20    2
    18    20    21    2
    19     5     6    2
    20     5     7    1
    21     7     8    2
    22     7     9   am
    23    10     9    1
    24     9    11    1
    25    12    11    2
    26    12    13    1
    27    11    16    1
    28    13    14    2
    29    18    17    1
    30    16    17    1
    31    16    15    2
    32    17    19    1
    33    14    15    1
