@<TRIPOS>MOLECULE
33419_out_ligand_01.pdbqt
 30 32 0 0 0
SMALL
GASTEIGER

@<TRIPOS>ATOM
      1  C         17.2210  -22.8680   -9.1000 C.2     1  UNL1        0.0800
      2  C         16.5660  -22.0420  -10.0190 C.2     1  UNL1        0.0250
      3  C         17.2920  -21.4380  -11.0460 C.2     1  UNL1        0.0030
      4  C         18.6650  -21.6720  -11.1610 C.2     1  UNL1        0.0170
      5  C         19.3120  -22.5220  -10.2530 C.2     1  UNL1        0.0330
      6  C         18.5900  -23.1230   -9.2160 C.2     1  UNL1        0.0420
      7  S         16.2920  -23.6540   -7.8070 S.O2    1  UNL1        0.2630
      8  O         15.6070  -24.8020   -8.3590 O.2     1  UNL1       -0.2000
      9  O         15.5530  -22.6140   -7.1190 O.2     1  UNL1       -0.2000
     10  N         17.4950  -24.1520   -6.7310 N.pl3   1  UNL1       -0.2810
     11  H         18.2800  -24.5620   -7.2360 H       1  UNL1        0.1790
     12  C         17.8120  -23.2890   -5.6450 C.2     1  UNL1        0.0430
     13  C         17.4070  -23.6280   -4.3570 C.2     1  UNL1        0.0300
     14  C         17.6690  -22.7610   -3.2980 C.2     1  UNL1        0.0030
     15  C         18.3380  -21.5580   -3.5290 C.2     1  UNL1        0.0070
     16  C         18.7590  -21.2160   -4.8200 C.2     1  UNL1       -0.0600
     17  C         19.4350  -19.9010   -5.0750 C.3     1  UNL1        0.0480
     18  C         18.4790  -22.0850   -5.8820 C.2     1  UNL1        0.0370
     19  C         20.7760  -22.7710  -10.3390 C.2     1  UNL1        0.2560
     20  O         21.2310  -23.7350   -9.7370 O.2     1  UNL1       -0.2670
     21  N         21.4670  -21.8730  -11.1320 N.am    1  UNL1       -0.3230
     22  H         20.9140  -21.2030  -11.6510 H       1  UNL1        0.1690
     23  C         22.8570  -21.8390  -11.3720 C.2     1  UNL1        0.0360
     24  C         23.8140  -21.6240  -10.3810 C.2     1  UNL1        0.0300
     25  C         25.1760  -21.5990  -10.6990 C.2     1  UNL1        0.0110
     26  C         25.6130  -21.7850  -12.0170 C.2     1  UNL1       -0.0400
     27  C         27.0830  -21.7530  -12.3250 C.3     1  UNL1        0.0500
     28  C         24.6480  -21.9980  -13.0100 C.2     1  UNL1        0.0420
     29 CL         25.0910  -22.2360  -14.6640 Cl      1  UNL1       -0.0840
     30  C         23.2860  -22.0240  -12.6900 C.2     1  UNL1        0.0530
@<TRIPOS>BOND
     1    29    28    1
     2    28    30    1
     3    28    26    2
     4    30    23    2
     5    27    26    1
     6    26    25    1
     7    22    21    1
     8    23    21    1
     9    23    24    1
    10     4     3    2
    11     4     5    1
    12    21    19   am
    13     3     2    1
    14    25    24    2
    15    19     5    1
    16    19    20    2
    17     5     6    2
    18     2     1    2
    19     6     1    1
    20     1     7    1
    21     8     7    2
    22     7     9    2
    23     7    10    1
    24    11    10    1
    25    10    12    1
    26    18    12    2
    27    18    16    1
    28    12    13    1
    29    17    16    1
    30    16    15    2
    31    13    14    2
    32    15    14    1
