@<TRIPOS>MOLECULE
33415_out_ligand_01.pdbqt
 31 33 0 0 0
SMALL
GASTEIGER

@<TRIPOS>ATOM
      1  C         17.1720  -22.7800   -9.1870 C.2     1  UNL1        0.0800
      2  C         16.5020  -21.9390  -10.0810 C.2     1  UNL1        0.0250
      3  C         17.2130  -21.3290  -11.1140 C.2     1  UNL1        0.0030
      4  C         18.5870  -21.5500  -11.2470 C.2     1  UNL1        0.0170
      5  C         19.2570  -22.3750  -10.3320 C.2     1  UNL1        0.0330
      6  C         18.5480  -22.9940   -9.2980 C.2     1  UNL1        0.0420
      7  C         20.7120  -22.6590  -10.4570 C.2     1  UNL1        0.2560
      8  O         21.1550  -23.6390   -9.8710 O.2     1  UNL1       -0.2670
      9  N         21.4210  -21.7440  -11.2130 N.am    1  UNL1       -0.3230
     10  H         20.9180  -20.9230  -11.5250 H       1  UNL1        0.1690
     11  C         22.7970  -21.7800  -11.5270 C.2     1  UNL1        0.0370
     12  C         23.8160  -21.7550  -10.5710 C.2     1  UNL1        0.0290
     13  C         25.1620  -21.7970  -10.9540 C.2     1  UNL1        0.0050
     14  C         25.5080  -21.8680  -12.3010 C.2     1  UNL1        0.0360
     15  C         24.4920  -21.8980  -13.2620 C.2     1  UNL1        0.1050
     16  C         23.1410  -21.8540  -12.8820 C.2     1  UNL1        0.0650
     17  N         24.8400  -21.9780  -14.6850 N.pl3   1  UNL1       -0.1160
     18  O         25.8680  -22.6010  -14.9900 O.2     1  UNL1       -0.5320
     19  O         24.0910  -21.4180  -15.4970 O.2     1  UNL1       -0.5320
     20  S         16.2770  -23.5900   -7.8810 S.O2    1  UNL1        0.2630
     21  O         15.4890  -22.5740   -7.2150 O.2     1  UNL1       -0.2000
     22  O         15.6580  -24.7790   -8.4280 O.2     1  UNL1       -0.2000
     23  N         17.4970  -24.0360   -6.8030 N.pl3   1  UNL1       -0.2810
     24  H         17.5250  -25.0430   -6.6540 H       1  UNL1        0.1790
     25  C         17.7760  -23.1940   -5.6890 C.2     1  UNL1        0.0430
     26  C         17.4260  -23.5770   -4.3970 C.2     1  UNL1        0.0300
     27  C         17.7420  -22.7510   -3.3190 C.2     1  UNL1        0.0030
     28  C         18.4140  -21.5470   -3.5330 C.2     1  UNL1        0.0070
     29  C         18.7830  -21.1610   -4.8260 C.2     1  UNL1       -0.0600
     30  C         19.4800  -19.8540   -5.0610 C.3     1  UNL1        0.0480
     31  C         18.4460  -21.9870   -5.9070 C.2     1  UNL1        0.0370
@<TRIPOS>BOND
     1    19    17    2
     2    18    17    2
     3    17    15    1
     4    15    16    1
     5    15    14    2
     6    16    11    2
     7    14    13    1
     8    11     9    1
     9    11    12    1
    10    10     9    1
    11     4     3    2
    12     4     5    1
    13     9     7   am
    14     3     2    1
    15    13    12    2
    16     7     5    1
    17     7     8    2
    18     5     6    2
    19     2     1    2
    20     6     1    1
    21     1    20    1
    22    22    20    2
    23    20    21    2
    24    20    23    1
    25    23    24    1
    26    23    25    1
    27    31    25    2
    28    31    29    1
    29    25    26    1
    30    30    29    1
    31    29    28    2
    32    26    27    2
    33    28    27    1
