@<TRIPOS>MOLECULE
33428_out_ligand_01.pdbqt
 30 32 0 0 0
SMALL
GASTEIGER

@<TRIPOS>ATOM
      1  C         18.2750  -22.2030  -10.2390 C.2     1  UNL1        0.0330
      2  C         18.1590  -21.3480  -11.3440 C.2     1  UNL1        0.0170
      3  C         19.3040  -20.8210  -11.9460 C.2     1  UNL1        0.0030
      4  C         20.5670  -21.1330  -11.4430 C.2     1  UNL1        0.0250
      5  C         20.6760  -21.9720  -10.3300 C.2     1  UNL1        0.0800
      6  C         19.5390  -22.5180   -9.7300 C.2     1  UNL1        0.0420
      7  C         17.0840  -22.7560   -9.5450 C.2     1  UNL1        0.2510
      8  N         17.3320  -23.5880   -8.4790 N.am    1  UNL1       -0.3530
      9  H         18.2730  -23.6880   -8.1230 H       1  UNL1        0.1630
     10  O         15.9630  -22.4420   -9.9270 O.2     1  UNL1       -0.2680
     11  C         16.2660  -24.1430   -7.6760 C.3     1  UNL1        0.1610
     12  C         16.2490  -23.5050   -6.3110 C.2     1  UNL1       -0.0400
     13  C         15.1200  -23.6340   -5.4910 C.2     1  UNL1        0.0090
     14  C         15.0860  -23.0270   -4.2370 C.2     1  UNL1        0.0010
     15  C         16.1790  -22.2840   -3.7890 C.2     1  UNL1        0.0070
     16  C         17.3170  -22.1460   -4.5910 C.2     1  UNL1       -0.0610
     17  C         18.4750  -21.3140   -4.1260 C.3     1  UNL1        0.0480
     18  C         17.3390  -22.7480   -5.8560 C.2     1  UNL1        0.0150
     19  S         22.2750  -22.3620   -9.6570 S.O2    1  UNL1        0.2630
     20  O         22.0820  -23.1750   -8.4750 O.2     1  UNL1       -0.2000
     21  O         23.0250  -21.1250   -9.6010 O.2     1  UNL1       -0.2000
     22  N         22.9830  -23.2990  -10.8710 N.pl3   1  UNL1       -0.2810
     23  H         23.0530  -24.2790  -10.6020 H       1  UNL1        0.1790
     24  C         24.0470  -22.7470  -11.6370 C.2     1  UNL1        0.0430
     25  C         25.3740  -22.9200  -11.2470 C.2     1  UNL1        0.0300
     26  C         26.4020  -22.3990  -12.0310 C.2     1  UNL1        0.0030
     27  C         26.1060  -21.7090  -13.2080 C.2     1  UNL1        0.0070
     28  C         24.7760  -21.5400  -13.6140 C.2     1  UNL1       -0.0600
     29  C         24.4440  -20.7870  -14.8680 C.3     1  UNL1        0.0480
     30  C         23.7470  -22.0550  -12.8120 C.2     1  UNL1        0.0370
@<TRIPOS>BOND
     1    29    28    1
     2    28    27    2
     3    28    30    1
     4    27    26    1
     5    30    24    2
     6    26    25    2
     7     3     4    2
     8     3     2    1
     9    24    25    1
    10    24    22    1
    11     4     5    1
    12     2     1    2
    13    22    23    1
    14    22    19    1
    15     5     6    2
    16     5    19    1
    17     1     6    1
    18     1     7    1
    19    10     7    2
    20    19    21    2
    21    19    20    2
    22     7     8   am
    23     8     9    1
    24     8    11    1
    25    11    12    1
    26    12    18    2
    27    12    13    1
    28    18    16    1
    29    13    14    2
    30    16    17    1
    31    16    15    2
    32    14    15    1
