@<TRIPOS>MOLECULE
33423_out_ligand_01.pdbqt
 32 35 0 0 0
SMALL
GASTEIGER

@<TRIPOS>ATOM
      1  C         17.1220  -22.8950   -9.0470 C.2     1  UNL1        0.0800
      2  C         16.4610  -22.0700   -9.9630 C.2     1  UNL1        0.0250
      3  C         17.1790  -21.4770  -11.0030 C.2     1  UNL1        0.0030
      4  C         18.5540  -21.6980  -11.1170 C.2     1  UNL1        0.0170
      5  C         19.2160  -22.5040  -10.1800 C.2     1  UNL1        0.0330
      6  C         18.5010  -23.1070   -9.1410 C.2     1  UNL1        0.0420
      7  C         20.6740  -22.7750  -10.2910 C.2     1  UNL1        0.2560
      8  O         21.1130  -23.7860   -9.7580 O.2     1  UNL1       -0.2670
      9  N         21.3870  -21.8140  -10.9840 N.am    1  UNL1       -0.3230
     10  H         20.8840  -20.9800  -11.2610 H       1  UNL1        0.1690
     11  C         22.7660  -21.8200  -11.2810 C.2     1  UNL1        0.0370
     12  C         23.7700  -21.6290  -10.3290 C.2     1  UNL1        0.0320
     13  C         25.1200  -21.6620  -10.7000 C.2     1  UNL1        0.0420
     14  C         25.4720  -21.8920  -12.0260 C.2     1  UNL1        0.1020
     15  C         24.4750  -22.0580  -12.9880 C.2     1  UNL1        0.1040
     16  O         26.8110  -21.9330  -12.3140 O.2     1  UNL1       -0.3460
     17  C         23.1300  -22.0390  -12.6160 C.2     1  UNL1        0.0690
     18  O         24.7420  -22.2560  -14.3210 O.2     1  UNL1       -0.3460
     19  C         26.0980  -21.9150  -14.6340 C.3     1  UNL1        0.2020
     20  C         27.0510  -22.5010  -13.6050 C.3     1  UNL1        0.2020
     21  S         16.2130  -23.6300   -7.7110 S.O2    1  UNL1        0.2630
     22  O         15.6450  -24.8670   -8.2090 O.2     1  UNL1       -0.2000
     23  O         15.3710  -22.6200   -7.1100 O.2     1  UNL1       -0.2000
     24  N         17.4350  -24.0880   -6.6350 N.pl3   1  UNL1       -0.2810
     25  H         17.3500  -25.0770   -6.3990 H       1  UNL1        0.1790
     26  C         17.7490  -23.1990   -5.5700 C.2     1  UNL1        0.0430
     27  C         17.4430  -23.5620   -4.2610 C.2     1  UNL1        0.0300
     28  C         17.8000  -22.7200   -3.2080 C.2     1  UNL1        0.0030
     29  C         18.4560  -21.5160   -3.4680 C.2     1  UNL1        0.0070
     30  C         18.7550  -21.1390   -4.7840 C.2     1  UNL1       -0.0600
     31  C         19.5050  -19.8700   -5.0580 C.3     1  UNL1        0.0480
     32  C         18.4090  -21.9990   -5.8350 C.2     1  UNL1        0.0370
@<TRIPOS>BOND
     1    19    18    1
     2    19    20    1
     3    18    15    1
     4    20    16    1
     5    15    17    1
     6    15    14    2
     7    17    11    2
     8    16    14    1
     9    14    13    1
    10    11     9    1
    11    11    12    1
    12    10     9    1
    13     4     3    2
    14     4     5    1
    15     3     2    1
    16     9     7   am
    17    13    12    2
    18     7     5    1
    19     7     8    2
    20     5     6    2
    21     2     1    2
    22     6     1    1
    23     1    21    1
    24    22    21    2
    25    21    23    2
    26    21    24    1
    27    24    25    1
    28    24    26    1
    29    32    26    2
    30    32    30    1
    31    26    27    1
    32    31    30    1
    33    30    29    2
    34    27    28    2
    35    29    28    1
