@<TRIPOS>MOLECULE
33420_out_ligand_01.pdbqt
 32 34 0 0 0
SMALL
GASTEIGER

@<TRIPOS>ATOM
      1  C         16.9500  -22.8170   -8.9820 C.2     1  UNL1        0.0800
      2  C         16.2150  -21.9960   -9.8420 C.2     1  UNL1        0.0250
      3  C         16.8470  -21.4060  -10.9370 C.2     1  UNL1        0.0030
      4  C         18.2070  -21.6310  -11.1670 C.2     1  UNL1        0.0170
      5  C         18.9430  -22.4380  -10.2870 C.2     1  UNL1        0.0330
      6  C         18.3140  -23.0350   -9.1910 C.2     1  UNL1        0.0420
      7  C         20.3840  -22.7300  -10.5190 C.2     1  UNL1        0.2560
      8  O         20.8030  -23.8320  -10.1880 O.2     1  UNL1       -0.2670
      9  N         21.1090  -21.6830  -11.0570 N.am    1  UNL1       -0.3220
     10  H         20.6320  -20.7940  -11.1090 H       1  UNL1        0.1690
     11  C         22.4740  -21.6830  -11.4340 C.2     1  UNL1        0.0430
     12  C         22.8790  -21.7120  -12.7750 C.2     1  UNL1        0.0660
     13  C         24.2430  -21.7070  -13.0990 C.2     1  UNL1        0.1050
     14  C         25.2180  -21.6700  -12.1000 C.2     1  UNL1        0.0370
     15  C         24.8210  -21.6320  -10.7660 C.2     1  UNL1        0.0110
     16  C         23.4570  -21.6350  -10.4170 C.2     1  UNL1       -0.0350
     17  C         23.1030  -21.5960   -8.9530 C.3     1  UNL1        0.0500
     18  N         24.6570  -21.7310  -14.5080 N.pl3   1  UNL1       -0.1160
     19  O         23.7720  -21.7300  -15.3740 O.2     1  UNL1       -0.5320
     20  O         25.8740  -21.7420  -14.7460 O.2     1  UNL1       -0.5320
     21  S         16.1550  -23.6050   -7.6000 S.O2    1  UNL1        0.2630
     22  O         15.3820  -22.5850   -6.9230 O.2     1  UNL1       -0.2000
     23  O         15.5360  -24.8240   -8.0730 O.2     1  UNL1       -0.2000
     24  N         17.4450  -23.9870   -6.5820 N.pl3   1  UNL1       -0.2810
     25  H         17.5070  -24.9880   -6.4030 H       1  UNL1        0.1790
     26  C         17.7660  -23.1060   -5.5120 C.2     1  UNL1        0.0430
     27  C         17.4240  -23.4190   -4.1980 C.2     1  UNL1        0.0300
     28  C         17.7810  -22.5560   -3.1630 C.2     1  UNL1        0.0030
     29  C         18.4840  -21.3820   -3.4410 C.2     1  UNL1        0.0070
     30  C         18.8440  -21.0660   -4.7560 C.2     1  UNL1       -0.0600
     31  C         19.5730  -19.7900   -5.0610 C.3     1  UNL1        0.0480
     32  C         18.4650  -21.9290   -5.7930 C.2     1  UNL1        0.0370
@<TRIPOS>BOND
     1    19    18    2
     2    20    18    2
     3    18    13    1
     4    13    12    1
     5    13    14    2
     6    12    11    2
     7    14    15    1
     8    11     9    1
     9    11    16    1
    10     4     3    2
    11     4     5    1
    12    10     9    1
    13     9     7   am
    14     3     2    1
    15    15    16    2
    16     7     5    1
    17     7     8    2
    18    16    17    1
    19     5     6    2
    20     2     1    2
    21     6     1    1
    22     1    21    1
    23    23    21    2
    24    21    22    2
    25    21    24    1
    26    24    25    1
    27    24    26    1
    28    32    26    2
    29    32    30    1
    30    26    27    1
    31    31    30    1
    32    30    29    2
    33    27    28    2
    34    29    28    1
