@<TRIPOS>MOLECULE
33421_out_ligand_01.pdbqt
 32 34 0 0 0
SMALL
GASTEIGER

@<TRIPOS>ATOM
      1  C         17.2500  -22.8590   -9.1210 C.2     1  UNL1        0.0800
      2  C         16.6620  -21.9810  -10.0380 C.2     1  UNL1        0.0250
      3  C         17.4330  -21.4340  -11.0640 C.2     1  UNL1        0.0030
      4  C         18.7890  -21.7540  -11.1650 C.2     1  UNL1        0.0170
      5  C         19.3790  -22.6140  -10.2280 C.2     1  UNL1        0.0330
      6  C         18.6100  -23.1690   -9.2010 C.2     1  UNL1        0.0420
      7  C         20.8140  -22.9920  -10.3290 C.2     1  UNL1        0.2560
      8  O         21.1720  -24.0280   -9.7840 O.2     1  UNL1       -0.2670
      9  N         21.5980  -22.0850  -11.0210 N.am    1  UNL1       -0.3220
     10  H         21.1380  -21.2260  -11.2880 H       1  UNL1        0.1690
     11  C         22.9750  -22.1920  -11.3360 C.2     1  UNL1        0.0430
     12  C         23.9090  -22.6640  -10.3980 C.2     1  UNL1        0.0300
     13  C         25.2610  -22.8150  -10.7210 C.2     1  UNL1        0.0050
     14  C         25.7030  -22.5160  -12.0000 C.2     1  UNL1        0.0370
     15  C         24.7800  -22.0500  -12.9430 C.2     1  UNL1        0.1110
     16  C         23.4150  -21.8430  -12.6360 C.2     1  UNL1       -0.0020
     17  C         22.4590  -21.2850  -13.6620 C.3     1  UNL1        0.0530
     18  N         25.2920  -21.8120  -14.2850 N.pl3   1  UNL1       -0.1150
     19  O         25.8060  -20.7060  -14.5070 O.2     1  UNL1       -0.5320
     20  O         25.1610  -22.7250  -15.1100 O.2     1  UNL1       -0.5320
     21  S         16.2730  -23.5420   -7.8050 S.O2    1  UNL1        0.2630
     22  O         15.4980  -22.4780   -7.2060 O.2     1  UNL1       -0.2000
     23  O         15.6200  -24.7260   -8.3260 O.2     1  UNL1       -0.2000
     24  N         17.4410  -24.1020   -6.7190 N.pl3   1  UNL1       -0.2810
     25  H         17.2860  -25.0870   -6.5080 H       1  UNL1        0.1790
     26  C         17.7880  -23.2570   -5.6280 C.2     1  UNL1        0.0430
     27  C         17.3820  -23.5850   -4.3360 C.2     1  UNL1        0.0300
     28  C         17.6690  -22.7200   -3.2800 C.2     1  UNL1        0.0030
     29  C         18.3550  -21.5280   -3.5190 C.2     1  UNL1        0.0070
     30  C         18.7730  -21.1960   -4.8140 C.2     1  UNL1       -0.0600
     31  C         19.4590  -19.8890   -5.0820 C.3     1  UNL1        0.0480
     32  C         18.4770  -22.0680   -5.8690 C.2     1  UNL1        0.0370
@<TRIPOS>BOND
     1    20    18    2
     2    19    18    2
     3    18    15    1
     4    17    16    1
     5    15    16    1
     6    15    14    2
     7    16    11    2
     8    14    13    1
     9    11     9    1
    10    11    12    1
    11    10     9    1
    12     4     3    2
    13     4     5    1
    14     3     2    1
    15     9     7   am
    16    13    12    2
    17     7     5    1
    18     7     8    2
    19     5     6    2
    20     2     1    2
    21     6     1    1
    22     1    21    1
    23    23    21    2
    24    21    22    2
    25    21    24    1
    26    24    25    1
    27    24    26    1
    28    32    26    2
    29    32    30    1
    30    26    27    1
    31    31    30    1
    32    30    29    2
    33    27    28    2
    34    29    28    1
