@<TRIPOS>MOLECULE
33422_out_ligand_01.pdbqt
 32 34 0 0 0
SMALL
GASTEIGER

@<TRIPOS>ATOM
      1  C         17.0880  -22.7620   -9.1910 C.2     1  UNL1        0.0800
      2  C         16.3540  -21.8900  -10.0010 C.2     1  UNL1        0.0250
      3  C         16.9900  -21.2220  -11.0460 C.2     1  UNL1        0.0030
      4  C         18.3560  -21.4130  -11.2710 C.2     1  UNL1        0.0170
      5  C         19.0920  -22.2720  -10.4410 C.2     1  UNL1        0.0330
      6  C         18.4560  -22.9570   -9.4010 C.2     1  UNL1        0.0420
      7  C         20.5440  -22.5110  -10.6640 C.2     1  UNL1        0.2560
      8  O         21.1600  -23.1340   -9.8080 O.2     1  UNL1       -0.2670
      9  N         21.0480  -21.9610  -11.8280 N.am    1  UNL1       -0.3230
     10  H         20.4270  -21.3650  -12.3610 H       1  UNL1        0.1690
     11  C         22.3690  -22.0570  -12.3140 C.2     1  UNL1        0.0350
     12  C         23.3580  -22.8510  -11.7340 C.2     1  UNL1        0.0300
     13  C         24.6450  -22.8970  -12.2830 C.2     1  UNL1        0.0180
     14  C         24.9690  -22.1460  -13.4200 C.2     1  UNL1        0.0480
     15  C         23.9710  -21.3590  -14.0090 C.2     1  UNL1        0.0180
     16  C         22.6850  -21.3150  -13.4590 C.2     1  UNL1        0.0300
     17  C         26.3500  -22.2150  -14.0230 C.3     1  UNL1        0.4170
     18  F         26.3410  -22.3580  -15.3770 F       1  UNL1       -0.1660
     19  F         27.0820  -21.0970  -13.7680 F       1  UNL1       -0.1660
     20  F         27.0870  -23.2590  -13.5470 F       1  UNL1       -0.1660
     21  S         16.2880  -23.6170   -7.8570 S.O2    1  UNL1        0.2630
     22  O         15.6570  -24.8090   -8.3790 O.2     1  UNL1       -0.2000
     23  O         15.5220  -22.6320   -7.1230 O.2     1  UNL1       -0.2000
     24  N         17.5840  -24.0480   -6.8650 N.pl3   1  UNL1       -0.2810
     25  H         18.3670  -24.4050   -7.4110 H       1  UNL1        0.1790
     26  C         17.8850  -23.2100   -5.7570 C.2     1  UNL1        0.0430
     27  C         17.4880  -23.5990   -4.4790 C.2     1  UNL1        0.0300
     28  C         17.7480  -22.7660   -3.3910 C.2     1  UNL1        0.0030
     29  C         18.4000  -21.5460   -3.5860 C.2     1  UNL1        0.0070
     30  C         18.8070  -21.1530   -4.8680 C.2     1  UNL1       -0.0600
     31  C         19.4660  -19.8230   -5.0810 C.3     1  UNL1        0.0480
     32  C         18.5320  -21.9910   -5.9560 C.2     1  UNL1        0.0370
@<TRIPOS>BOND
     1    18    17    1
     2    17    19    1
     3    17    20    1
     4    17    14    1
     5    15    16    1
     6    15    14    2
     7    16    11    2
     8    14    13    1
     9    10     9    1
    10    11     9    1
    11    11    12    1
    12    13    12    2
    13     9     7   am
    14     4     3    2
    15     4     5    1
    16     3     2    1
    17     7     5    1
    18     7     8    2
    19     5     6    2
    20     2     1    2
    21     6     1    1
    22     1    21    1
    23    22    21    2
    24    21    23    2
    25    21    24    1
    26    25    24    1
    27    24    26    1
    28    32    26    2
    29    32    30    1
    30    26    27    1
    31    31    30    1
    32    30    29    2
    33    27    28    2
    34    29    28    1
