@<TRIPOS>MOLECULE
33433_out_ligand_01.pdbqt
 30 32 0 0 0
SMALL
GASTEIGER

@<TRIPOS>ATOM
      1  C         18.0280  -22.3210   -5.2820 C.2     1  UNL1        0.0800
      2  C         18.5940  -21.0880   -4.9400 C.2     1  UNL1        0.0250
      3  C         19.7330  -20.6430   -5.6120 C.2     1  UNL1        0.0030
      4  C         20.2940  -21.4200   -6.6280 C.2     1  UNL1        0.0170
      5  C         19.7090  -22.6440   -6.9850 C.2     1  UNL1        0.0330
      6  C         18.5720  -23.0980   -6.3090 C.2     1  UNL1        0.0420
      7  S         16.5640  -22.8770   -4.4450 S.O2    1  UNL1        0.2630
      8  O         16.3730  -22.0770   -3.2570 O.2     1  UNL1       -0.2000
      9  O         16.6420  -24.3210   -4.3590 O.2     1  UNL1       -0.2000
     10  N         15.3450  -22.5510   -5.5710 N.pl3   1  UNL1       -0.2810
     11  H         14.9880  -21.6050   -5.4440 H       1  UNL1        0.1790
     12  C         15.5420  -22.9920   -6.9090 C.2     1  UNL1        0.0430
     13  C         15.3390  -24.3330   -7.2260 C.2     1  UNL1        0.0300
     14  C         15.5670  -24.7770   -8.5280 C.2     1  UNL1        0.0030
     15  C         16.0000  -23.8810   -9.5070 C.2     1  UNL1        0.0070
     16  C         16.2230  -22.5350   -9.1890 C.2     1  UNL1       -0.0600
     17  C         16.6730  -21.5690  -10.2460 C.3     1  UNL1        0.0480
     18  C         15.9800  -22.0930   -7.8830 C.2     1  UNL1        0.0370
     19  C         20.2900  -23.5010   -8.0500 C.2     1  UNL1        0.2510
     20  O         19.6300  -24.4210   -8.5190 O.2     1  UNL1       -0.2680
     21  N         21.5620  -23.1720   -8.4650 N.am    1  UNL1       -0.3530
     22  H         21.9390  -22.2720   -8.2030 H       1  UNL1        0.1630
     23  C         22.1740  -23.8290   -9.5990 C.3     1  UNL1        0.1610
     24  C         22.1990  -22.9150  -10.7980 C.2     1  UNL1       -0.0400
     25  C         23.3590  -22.8150  -11.5840 C.2     1  UNL1        0.0120
     26  C         23.3830  -21.9890  -12.7080 C.2     1  UNL1        0.0430
     27  C         22.2470  -21.2670  -13.0500 C.2     1  UNL1        0.1160
     28  F         22.2680  -20.4740  -14.1300 F       1  UNL1       -0.2060
     29  C         21.0860  -21.3560  -12.2900 C.2     1  UNL1        0.0430
     30  C         21.0590  -22.1830  -11.1660 C.2     1  UNL1        0.0120
@<TRIPOS>BOND
     1    28    27    1
     2    27    26    2
     3    27    29    1
     4    26    25    1
     5    29    30    2
     6    25    24    2
     7    30    24    1
     8    24    23    1
     9    17    16    1
    10    23    21    1
    11    15    16    2
    12    15    14    1
    13    16    18    1
    14    14    13    2
    15    20    19    2
    16    21    22    1
    17    21    19   am
    18    19     5    1
    19    18    12    2
    20    13    12    1
    21     5     4    2
    22     5     6    1
    23    12    10    1
    24     4     3    1
    25     6     1    2
    26     3     2    2
    27    10    11    1
    28    10     7    1
    29     1     2    1
    30     1     7    1
    31     7     9    2
    32     7     8    2
