@<TRIPOS>MOLECULE
33432_out_ligand_01.pdbqt
 32 35 0 0 0
SMALL
GASTEIGER

@<TRIPOS>ATOM
      1  C         18.7290  -22.2710  -10.2380 C.2     1  UNL1        0.0800
      2  C         18.4530  -21.3180  -11.2220 C.2     1  UNL1        0.0250
      3  C         19.4830  -20.8550  -12.0390 C.2     1  UNL1        0.0030
      4  C         20.7820  -21.3460  -11.8740 C.2     1  UNL1        0.0170
      5  C         21.0560  -22.3100  -10.8930 C.2     1  UNL1        0.0330
      6  C         20.0260  -22.7600  -10.0580 C.2     1  UNL1        0.0420
      7  C         22.4220  -22.8630  -10.6820 C.2     1  UNL1        0.2520
      8  O         22.6260  -23.6710   -9.7840 O.2     1  UNL1       -0.2680
      9  N         23.3980  -22.4470  -11.5600 N.am    1  UNL1       -0.3480
     10  H         23.1660  -21.8690  -12.3540 H       1  UNL1        0.1630
     11  C         24.7740  -22.9120  -11.4590 C.3     1  UNL1        0.1180
     12  C         25.6200  -21.9460  -10.6140 C.3     1  UNL1        0.0300
     13  C         25.9330  -20.6720  -11.3920 C.3     1  UNL1        0.0070
     14  C         26.7570  -20.9920  -12.6360 C.3     1  UNL1        0.0390
     15  C         26.2270  -22.1640  -13.4250 C.2     1  UNL1       -0.0500
     16  C         26.6920  -22.3660  -14.7340 C.2     1  UNL1        0.0070
     17  C         25.3340  -23.0940  -12.8580 C.2     1  UNL1       -0.0290
     18  C         26.2620  -23.4610  -15.4810 C.2     1  UNL1        0.0010
     19  C         25.3700  -24.3750  -14.9280 C.2     1  UNL1        0.0010
     20  C         24.9080  -24.1920  -13.6250 C.2     1  UNL1        0.0100
     21  S         17.4270  -22.8540   -9.1830 S.O2    1  UNL1        0.2630
     22  O         16.7440  -21.6900   -8.6590 O.2     1  UNL1       -0.2000
     23  O         16.6970  -23.8960   -9.8730 O.2     1  UNL1       -0.2000
     24  N         18.2780  -23.5250   -7.8850 N.pl3   1  UNL1       -0.2810
     25  H         19.1150  -24.0040   -8.2130 H       1  UNL1        0.1790
     26  C         18.3890  -22.7540   -6.6950 C.2     1  UNL1        0.0430
     27  C         19.3340  -21.7350   -6.6100 C.2     1  UNL1        0.0300
     28  C         19.4130  -20.9620   -5.4530 C.2     1  UNL1        0.0030
     29  C         18.5440  -21.2040   -4.3880 C.2     1  UNL1        0.0070
     30  C         17.5760  -22.2120   -4.4760 C.2     1  UNL1       -0.0600
     31  C         16.6600  -22.4910   -3.3220 C.3     1  UNL1        0.0480
     32  C         17.5110  -22.9940   -5.6370 C.2     1  UNL1        0.0370
@<TRIPOS>BOND
     1    18    19    2
     2    18    16    1
     3    19    20    1
     4    16    15    2
     5    20    17    2
     6    15    17    1
     7    15    14    1
     8    17    11    1
     9    14    13    1
    10    10     9    1
    11     3     4    2
    12     3     2    1
    13     4     5    1
    14     9    11    1
    15     9     7   am
    16    11    12    1
    17    13    12    1
    18     2     1    2
    19     5     7    1
    20     5     6    2
    21     7     8    2
    22     1     6    1
    23     1    21    1
    24    23    21    2
    25    21    22    2
    26    21    24    1
    27    25    24    1
    28    24    26    1
    29    26    27    2
    30    26    32    1
    31    27    28    1
    32    32    30    2
    33    28    29    2
    34    30    29    1
    35    30    31    1
