@<TRIPOS>MOLECULE
33436_out_ligand_01.pdbqt
 32 34 0 0 0
SMALL
GASTEIGER

@<TRIPOS>ATOM
      1  C         17.3140  -22.9510   -9.0770 C.2     1  UNL1        0.0800
      2  C         16.7570  -22.1110  -10.0480 C.2     1  UNL1        0.0250
      3  C         17.5680  -21.5920  -11.0560 C.2     1  UNL1        0.0030
      4  C         18.9280  -21.9130  -11.0950 C.2     1  UNL1        0.0170
      5  C         19.4830  -22.7570  -10.1210 C.2     1  UNL1        0.0330
      6  C         18.6770  -23.2610   -9.0950 C.2     1  UNL1        0.0420
      7  C         20.9260  -23.1230  -10.1300 C.2     1  UNL1        0.2520
      8  O         21.3220  -24.0730   -9.4650 O.2     1  UNL1       -0.2680
      9  N         21.7400  -22.3680  -10.9420 N.am    1  UNL1       -0.3490
     10  H         21.3330  -21.7110  -11.5940 H       1  UNL1        0.1630
     11  C         23.1540  -22.6710  -11.1040 C.3     1  UNL1        0.1140
     12  C         23.9740  -22.0730   -9.9540 C.3     1  UNL1        0.0370
     13  C         23.5980  -22.2210  -12.4930 C.2     1  UNL1       -0.0300
     14  C         22.8280  -21.3010  -13.2270 C.2     1  UNL1        0.0100
     15  C         23.2050  -20.8950  -14.5090 C.2     1  UNL1        0.0070
     16  C         24.3640  -21.3990  -15.0960 C.2     1  UNL1       -0.0610
     17  C         24.7620  -20.9850  -16.4820 C.3     1  UNL1        0.0480
     18  C         25.1210  -22.3450  -14.3950 C.2     1  UNL1        0.0140
     19  C         24.7500  -22.7690  -13.1050 C.2     1  UNL1       -0.0530
     20  C         25.6160  -23.7880  -12.4100 C.3     1  UNL1        0.0490
     21  S         16.2860  -23.5970   -7.7840 S.O2    1  UNL1        0.2630
     22  O         15.6580  -24.8010   -8.2890 O.2     1  UNL1       -0.2000
     23  O         15.4890  -22.5250   -7.2310 O.2     1  UNL1       -0.2000
     24  N         17.4200  -24.1130   -6.6390 N.pl3   1  UNL1       -0.2810
     25  H         17.2650  -25.0910   -6.3940 H       1  UNL1        0.1790
     26  C         17.7460  -23.2240   -5.5790 C.2     1  UNL1        0.0430
     27  C         17.4080  -23.5770   -4.2740 C.2     1  UNL1        0.0300
     28  C         17.7350  -22.7260   -3.2200 C.2     1  UNL1        0.0030
     29  C         18.4040  -21.5270   -3.4730 C.2     1  UNL1        0.0070
     30  C         18.7610  -21.1740   -4.7810 C.2     1  UNL1       -0.0600
     31  C         19.4630  -19.8780   -5.0570 C.3     1  UNL1        0.0480
     32  C         18.4140  -22.0270   -5.8370 C.2     1  UNL1        0.0370
@<TRIPOS>BOND
     1    17    16    1
     2    16    15    2
     3    16    18    1
     4    15    14    1
     5    18    19    2
     6    14    13    2
     7    19    13    1
     8    19    20    1
     9    13    11    1
    10    10     9    1
    11    11     9    1
    12    11    12    1
    13     4     3    2
    14     4     5    1
    15     3     2    1
    16     9     7   am
    17     7     5    1
    18     7     8    2
    19     5     6    2
    20     2     1    2
    21     6     1    1
    22     1    21    1
    23    22    21    2
    24    21    23    2
    25    21    24    1
    26    24    25    1
    27    24    26    1
    28    32    26    2
    29    32    30    1
    30    26    27    1
    31    31    30    1
    32    30    29    2
    33    27    28    2
    34    29    28    1
