@<TRIPOS>MOLECULE
33437_out_ligand_01.pdbqt
 34 37 0 0 0
SMALL
GASTEIGER

@<TRIPOS>ATOM
      1  C         24.3500  -22.3780  -12.7730 C.2     1  UNL1        0.0800
      2  C         23.8250  -21.5140  -13.7390 C.2     1  UNL1        0.0250
      3  C         22.5030  -21.0810  -13.6300 C.2     1  UNL1        0.0030
      4  C         21.7080  -21.5180  -12.5670 C.2     1  UNL1        0.0170
      5  C         22.2320  -22.4050  -11.6160 C.2     1  UNL1        0.0330
      6  C         23.5590  -22.8370  -11.7160 C.2     1  UNL1        0.0420
      7  C         21.4250  -22.8730  -10.4570 C.2     1  UNL1        0.2560
      8  O         21.8420  -23.8340   -9.8220 O.2     1  UNL1       -0.2670
      9  N         20.2550  -22.1700  -10.2430 N.am    1  UNL1       -0.3230
     10  H         19.9980  -21.4790  -10.9360 H       1  UNL1        0.1690
     11  C         19.3170  -22.3670   -9.2080 C.2     1  UNL1        0.0350
     12  C         19.7600  -22.1880   -7.8970 C.2     1  UNL1        0.0320
     13  C         18.8910  -22.3700   -6.8110 C.2     1  UNL1        0.0320
     14  C         17.5550  -22.7340   -7.0040 C.2     1  UNL1        0.0370
     15  C         17.1220  -22.9130   -8.3260 C.2     1  UNL1        0.0320
     16  C         17.9910  -22.7340   -9.4140 C.2     1  UNL1        0.0320
     17  N         16.6600  -22.9140   -5.9140 N.am    1  UNL1       -0.3180
     18  C         15.3360  -22.3370   -5.8890 C.3     1  UNL1        0.1330
     19  C         14.9080  -22.4440   -4.4410 C.3     1  UNL1        0.0290
     20  C         15.6000  -23.7060   -3.9640 C.3     1  UNL1        0.1050
     21  C         16.8590  -23.7460   -4.8000 C.2     1  UNL1        0.2240
     22  O         17.8180  -24.4480   -4.5150 O.2     1  UNL1       -0.2730
     23  S         26.0390  -22.9210  -12.8840 S.O2    1  UNL1        0.2630
     24  O         26.3780  -23.5950  -11.6490 O.2     1  UNL1       -0.2000
     25  O         26.8170  -21.7980  -13.3610 O.2     1  UNL1       -0.2000
     26  N         25.9960  -24.0430  -14.1450 N.pl3   1  UNL1       -0.2810
     27  H         26.6790  -24.7860  -14.0180 H       1  UNL1        0.1790
     28  C         25.7590  -23.5850  -15.4730 C.2     1  UNL1        0.0430
     29  C         26.7230  -22.7930  -16.0950 C.2     1  UNL1        0.0300
     30  C         26.4980  -22.3070  -17.3830 C.2     1  UNL1        0.0030
     31  C         25.3080  -22.6120  -18.0470 C.2     1  UNL1        0.0070
     32  C         24.3300  -23.3980  -17.4260 C.2     1  UNL1       -0.0600
     33  C         23.0690  -23.7600  -18.1530 C.3     1  UNL1        0.0480
     34  C         24.5710  -23.8940  -16.1380 C.2     1  UNL1        0.0370
@<TRIPOS>BOND
     1    33    32    1
     2    31    32    2
     3    31    30    1
     4    32    34    1
     5    30    29    2
     6    34    28    2
     7    29    28    1
     8    28    26    1
     9    26    27    1
    10    26    23    1
    11     2     3    1
    12     2     1    2
    13     3     4    2
    14    25    23    2
    15    23     1    1
    16    23    24    2
    17     1     6    1
    18     4     5    1
    19     6     5    2
    20     5     7    1
    21    10     9    1
    22     7     9   am
    23     7     8    2
    24     9    11    1
    25    16    11    2
    26    16    15    1
    27    11    12    1
    28    15    14    2
    29    12    13    2
    30    14    13    1
    31    14    17    1
    32    17    18    1
    33    17    21   am
    34    18    19    1
    35    21    22    2
    36    21    20    1
    37    19    20    1
