@<TRIPOS>MOLECULE
33434_out_ligand_01.pdbqt
 31 33 0 0 0
SMALL
GASTEIGER

@<TRIPOS>ATOM
      1  C         19.1070  -21.8110  -10.8470 C.2     1  UNL1        0.0330
      2  C         19.4260  -21.3450  -12.1300 C.2     1  UNL1        0.0170
      3  C         20.7610  -21.2390  -12.5290 C.2     1  UNL1        0.0030
      4  C         21.7830  -21.6040  -11.6540 C.2     1  UNL1        0.0250
      5  C         21.4620  -22.0710  -10.3750 C.2     1  UNL1        0.0800
      6  C         20.1300  -22.1520   -9.9570 C.2     1  UNL1        0.0420
      7  C         17.6980  -21.9410  -10.3870 C.2     1  UNL1        0.2520
      8  N         17.4240  -23.0160   -9.5710 N.am    1  UNL1       -0.3490
      9  H         18.1920  -23.5320   -9.1650 H       1  UNL1        0.1630
     10  O         16.8660  -21.0990  -10.7050 O.2     1  UNL1       -0.2680
     11  C         16.1130  -23.1990   -8.9660 C.3     1  UNL1        0.1140
     12  C         15.3970  -24.4260   -9.5380 C.3     1  UNL1        0.0370
     13  C         16.2650  -23.2670   -7.4560 C.2     1  UNL1       -0.0360
     14  C         17.2900  -24.0050   -6.8470 C.2     1  UNL1        0.0100
     15  C         17.4260  -24.0310   -5.4560 C.2     1  UNL1        0.0070
     16  C         16.5360  -23.3190   -4.6430 C.2     1  UNL1       -0.0620
     17  C         16.7020  -23.3240   -3.1530 C.3     1  UNL1        0.0480
     18  C         15.5280  -22.5610   -5.2450 C.2     1  UNL1        0.0070
     19  C         15.3920  -22.5360   -6.6350 C.2     1  UNL1        0.0100
     20  S         22.7660  -22.5340   -9.2580 S.O2    1  UNL1        0.2630
     21  O         22.5670  -21.7900   -8.0300 O.2     1  UNL1       -0.2000
     22  O         22.8680  -23.9760   -9.2490 O.2     1  UNL1       -0.2000
     23  N         24.1400  -21.8700   -9.9810 N.pl3   1  UNL1       -0.2810
     24  H         23.9930  -20.9080  -10.2750 H       1  UNL1        0.1790
     25  C         24.9860  -22.6920  -10.7760 C.2     1  UNL1        0.0430
     26  C         26.1280  -23.2430  -10.1920 C.2     1  UNL1        0.0300
     27  C         26.9940  -24.0220  -10.9580 C.2     1  UNL1        0.0030
     28  C         26.7220  -24.2510  -12.3070 C.2     1  UNL1        0.0070
     29  C         25.5810  -23.6990  -12.9030 C.2     1  UNL1       -0.0600
     30  C         25.2710  -23.9720  -14.3450 C.3     1  UNL1        0.0480
     31  C         24.7060  -22.9330  -12.1220 C.2     1  UNL1        0.0370
@<TRIPOS>BOND
     1    30    29    1
     2    29    28    2
     3    29    31    1
     4     3     2    1
     5     3     4    2
     6    28    27    1
     7     2     1    2
     8    31    25    2
     9     4     5    1
    10    27    26    2
    11     1     7    1
    12     1     6    1
    13    25    26    1
    14    25    23    1
    15    10     7    2
    16     7     8   am
    17     5     6    2
    18     5    20    1
    19    24    23    1
    20    23    20    1
    21     8     9    1
    22     8    11    1
    23    12    11    1
    24    20    22    2
    25    20    21    2
    26    11    13    1
    27    13    14    2
    28    13    19    1
    29    14    15    1
    30    19    18    2
    31    15    16    2
    32    18    16    1
    33    16    17    1
