@<TRIPOS>MOLECULE
33456_out_ligand_01.pdbqt
 32 34 0 0 0
SMALL
GASTEIGER

@<TRIPOS>ATOM
      1  C         17.5970  -22.4980   -9.8570 C.2     1  UNL1        0.0800
      2  C         17.1890  -21.5860  -10.8350 C.2     1  UNL1        0.0250
      3  C         18.1350  -21.0370  -11.6990 C.2     1  UNL1        0.0030
      4  C         19.4800  -21.4050  -11.5910 C.2     1  UNL1        0.0170
      5  C         19.8860  -22.3300  -10.6170 C.2     1  UNL1        0.0330
      6  C         18.9410  -22.8640   -9.7330 C.2     1  UNL1        0.0420
      7  C         21.3060  -22.7610  -10.4780 C.2     1  UNL1        0.2520
      8  O         21.5900  -23.7120   -9.7580 O.2     1  UNL1       -0.2680
      9  N         22.2320  -22.0710  -11.2260 N.am    1  UNL1       -0.3490
     10  H         21.9130  -21.4700  -11.9730 H       1  UNL1        0.1630
     11  C         23.6340  -22.4640  -11.2590 C.3     1  UNL1        0.1140
     12  C         24.5060  -21.5170  -10.4290 C.3     1  UNL1        0.0370
     13  C         24.0900  -22.5550  -12.7060 C.2     1  UNL1       -0.0350
     14  C         23.6860  -21.6210  -13.6680 C.2     1  UNL1        0.0100
     15  C         24.0930  -21.7480  -14.9980 C.2     1  UNL1        0.0080
     16  C         24.9080  -22.8140  -15.4020 C.2     1  UNL1       -0.0560
     17  C         25.3180  -22.9200  -16.8460 C.3     1  UNL1        0.0490
     18  C         25.3040  -23.7740  -14.4520 C.2     1  UNL1       -0.0560
     19  C         26.1730  -24.9420  -14.8320 C.3     1  UNL1        0.0490
     20  C         24.8930  -23.6310  -13.1160 C.2     1  UNL1        0.0160
     21  S         16.4040  -23.1960   -8.7470 S.O2    1  UNL1        0.2630
     22  O         15.7490  -22.0970   -8.0710 O.2     1  UNL1       -0.2000
     23  O         15.6330  -24.1970   -9.4550 O.2     1  UNL1       -0.2000
     24  N         17.3760  -23.9530   -7.5900 N.pl3   1  UNL1       -0.2810
     25  H         18.1770  -24.4090   -8.0270 H       1  UNL1        0.1790
     26  C         17.5940  -23.2800   -6.3580 C.2     1  UNL1        0.0430
     27  C         17.0540  -23.7820   -5.1770 C.2     1  UNL1        0.0300
     28  C         17.2950  -23.1200   -3.9730 C.2     1  UNL1        0.0030
     29  C         18.0770  -21.9650   -3.9530 C.2     1  UNL1        0.0070
     30  C         18.6380  -21.4660   -5.1350 C.2     1  UNL1       -0.0600
     31  C         19.4540  -20.2070   -5.1220 C.3     1  UNL1        0.0480
     32  C         18.3820  -22.1290   -6.3420 C.2     1  UNL1        0.0370
@<TRIPOS>BOND
     1    17    16    1
     2    16    15    2
     3    16    18    1
     4    15    14    1
     5    19    18    1
     6    18    20    2
     7    14    13    2
     8    20    13    1
     9    13    11    1
    10    10     9    1
    11     3     4    2
    12     3     2    1
    13     4     5    1
    14    11     9    1
    15    11    12    1
    16     9     7   am
    17     2     1    2
    18     5     7    1
    19     5     6    2
    20     7     8    2
    21     1     6    1
    22     1    21    1
    23    23    21    2
    24    21    22    2
    25    21    24    1
    26    25    24    1
    27    24    26    1
    28    26    32    2
    29    26    27    1
    30    32    30    1
    31    27    28    2
    32    30    31    1
    33    30    29    2
    34    28    29    1
