@<TRIPOS>MOLECULE
33450_out_ligand_01.pdbqt
 30 32 0 0 0
SMALL
GASTEIGER

@<TRIPOS>ATOM
      1  C         21.0310  -22.1130  -10.4710 C.2     1  UNL1        0.0800
      2  C         20.8730  -21.3760  -11.6500 C.2     1  UNL1        0.0250
      3  C         19.5920  -21.0590  -12.0980 C.2     1  UNL1        0.0030
      4  C         18.4740  -21.4680  -11.3660 C.2     1  UNL1        0.0170
      5  C         18.6380  -22.1890  -10.1730 C.2     1  UNL1        0.0330
      6  C         19.9210  -22.5200   -9.7270 C.2     1  UNL1        0.0420
      7  S         22.6580  -22.5220   -9.8940 S.O2    1  UNL1        0.2630
      8  O         22.5140  -23.6350   -8.9780 O.2     1  UNL1       -0.2000
      9  O         23.3260  -21.3060   -9.4810 O.2     1  UNL1       -0.2000
     10  N         23.4000  -23.1370  -11.2780 N.pl3   1  UNL1       -0.2810
     11  H         23.6310  -24.1230  -11.1680 H       1  UNL1        0.1790
     12  C         24.3400  -22.3130  -11.9550 C.2     1  UNL1        0.0420
     13  C         23.9650  -21.6720  -13.1330 C.2     1  UNL1        0.0300
     14  C         24.8720  -20.8360  -13.7880 C.2     1  UNL1        0.0090
     15  C         26.1580  -20.6420  -13.2690 C.2     1  UNL1       -0.0620
     16  C         27.1210  -19.7160  -13.9540 C.3     1  UNL1        0.0480
     17  C         26.5150  -21.2750  -12.0730 C.2     1  UNL1        0.0090
     18  C         25.6090  -22.1120  -11.4180 C.2     1  UNL1        0.0300
     19  C         17.4670  -22.6520   -9.3800 C.2     1  UNL1        0.2560
     20  O         16.5740  -23.2410   -9.9760 O.2     1  UNL1       -0.2670
     21  N         17.5480  -22.3810   -8.0270 N.am    1  UNL1       -0.3220
     22  H         18.4270  -22.0080   -7.6980 H       1  UNL1        0.1690
     23  C         16.5800  -22.6490   -7.0280 C.2     1  UNL1        0.0410
     24  C         15.4470  -21.8450   -6.8470 C.2     1  UNL1        0.0370
     25  C         14.5070  -22.1190   -5.8420 C.2     1  UNL1       -0.0600
     26  C         13.2850  -21.2600   -5.6980 C.3     1  UNL1        0.0480
     27  C         14.6950  -23.2290   -5.0200 C.2     1  UNL1        0.0070
     28  C         15.8190  -24.0360   -5.1810 C.2     1  UNL1        0.0090
     29  C         16.7720  -23.7600   -6.1760 C.2     1  UNL1       -0.0350
     30  C         17.9610  -24.6750   -6.2960 C.3     1  UNL1        0.0500
@<TRIPOS>BOND
     1    16    15    1
     2    14    15    2
     3    14    13    1
     4    15    17    1
     5    13    12    2
     6     3     2    1
     7     3     4    2
     8    17    18    2
     9    12    18    1
    10    12    10    1
    11     2     1    2
    12     4     5    1
    13    10    11    1
    14    10     7    1
    15     1     7    1
    16     1     6    1
    17     5     6    2
    18     5    19    1
    19    20    19    2
    20     7     9    2
    21     7     8    2
    22    19    21   am
    23    21    22    1
    24    21    23    1
    25    23    24    2
    26    23    29    1
    27    24    25    1
    28    30    29    1
    29    29    28    2
    30    25    26    1
    31    25    27    2
    32    28    27    1
