@<TRIPOS>MOLECULE
33458_out_ligand_01.pdbqt
 33 35 0 0 0
SMALL
GASTEIGER

@<TRIPOS>ATOM
      1  C         19.8980  -22.3350  -10.5890 C.2     1  UNL1        0.0330
      2  C         19.4750  -21.4300  -11.5760 C.2     1  UNL1        0.0170
      3  C         18.1270  -21.0790  -11.6810 C.2     1  UNL1        0.0030
      4  C         17.1930  -21.6240  -10.8010 C.2     1  UNL1        0.0250
      5  C         17.6150  -22.5210   -9.8150 C.2     1  UNL1        0.0800
      6  C         18.9640  -22.8660   -9.6900 C.2     1  UNL1        0.0420
      7  C         21.3250  -22.7410  -10.4450 C.2     1  UNL1        0.2520
      8  N         22.2360  -22.0710  -11.2310 N.am    1  UNL1       -0.3480
      9  H         21.9030  -21.4950  -11.9910 H       1  UNL1        0.1630
     10  O         21.6300  -23.6520   -9.6860 O.2     1  UNL1       -0.2680
     11  C         23.6440  -22.4510  -11.2640 C.3     1  UNL1        0.1170
     12  C         24.5090  -21.4830  -10.4270 C.3     1  UNL1        0.0250
     13  C         25.9130  -21.3050  -10.9900 C.3     1  UNL1        0.0070
     14  C         24.0850  -22.5480  -12.7180 C.2     1  UNL1       -0.0350
     15  C         23.6750  -21.6120  -13.6750 C.2     1  UNL1        0.0100
     16  C         24.0770  -21.7330  -15.0070 C.2     1  UNL1        0.0080
     17  C         24.8910  -22.7980  -15.4180 C.2     1  UNL1       -0.0560
     18  C         25.3070  -22.8930  -16.8610 C.3     1  UNL1        0.0490
     19  C         25.2950  -23.7570  -14.4710 C.2     1  UNL1       -0.0560
     20  C         26.1620  -24.9240  -14.8610 C.3     1  UNL1        0.0490
     21  C         24.8880  -23.6220  -13.1340 C.2     1  UNL1        0.0160
     22  S         16.4300  -23.1900   -8.6740 S.O2    1  UNL1        0.2630
     23  O         15.6960  -22.1040   -8.0640 O.2     1  UNL1       -0.2000
     24  O         15.7330  -24.2630   -9.3560 O.2     1  UNL1       -0.2000
     25  N         17.4120  -23.9410   -7.5190 N.pl3   1  UNL1       -0.2810
     26  H         17.1820  -24.9310   -7.4450 H       1  UNL1        0.1790
     27  C         17.6590  -23.2420   -6.3070 C.2     1  UNL1        0.0430
     28  C         17.1810  -23.7710   -5.1100 C.2     1  UNL1        0.0300
     29  C         17.4360  -23.1100   -3.9090 C.2     1  UNL1        0.0030
     30  C         18.1770  -21.9280   -3.9090 C.2     1  UNL1        0.0070
     31  C         18.6760  -21.3990   -5.1060 C.2     1  UNL1       -0.0600
     32  C         19.4570  -20.1190   -5.1030 C.3     1  UNL1        0.0480
     33  C         18.4000  -22.0600   -6.3110 C.2     1  UNL1        0.0370
@<TRIPOS>BOND
     1    18    17    1
     2    17    16    2
     3    17    19    1
     4    16    15    1
     5    20    19    1
     6    19    21    2
     7    15    14    2
     8    21    14    1
     9    14    11    1
    10     9     8    1
    11     3     2    1
    12     3     4    2
    13     2     1    2
    14    11     8    1
    15    11    12    1
    16     8     7   am
    17    13    12    1
    18     4     5    1
    19     1     7    1
    20     1     6    1
    21     7    10    2
    22     5     6    2
    23     5    22    1
    24    24    22    2
    25    22    23    2
    26    22    25    1
    27    25    26    1
    28    25    27    1
    29    33    27    2
    30    33    31    1
    31    27    28    1
    32    28    29    2
    33    31    32    1
    34    31    30    2
    35    29    30    1
