@<TRIPOS>MOLECULE
33462_out_ligand_01.pdbqt
 33 35 0 0 0
SMALL
GASTEIGER

@<TRIPOS>ATOM
      1  C         20.1830  -22.7390  -10.0780 C.2     1  UNL1        0.0800
      2  C         18.9470  -22.1460  -10.3510 C.2     1  UNL1        0.0250
      3  C         18.8260  -21.2830  -11.4400 C.2     1  UNL1        0.0030
      4  C         19.9330  -21.0250  -12.2520 C.2     1  UNL1        0.0170
      5  C         21.1640  -21.6440  -11.9960 C.2     1  UNL1        0.0330
      6  C         21.2900  -22.5100  -10.9050 C.2     1  UNL1        0.0420
      7  C         22.3220  -21.3130  -12.8740 C.2     1  UNL1        0.2520
      8  O         22.1230  -20.8380  -13.9860 O.2     1  UNL1       -0.2680
      9  N         23.5720  -21.5780  -12.3630 N.am    1  UNL1       -0.3480
     10  H         23.6640  -22.1180  -11.5140 H       1  UNL1        0.1630
     11  C         24.7960  -21.3160  -13.1130 C.3     1  UNL1        0.1210
     12  C         25.0300  -22.5030  -14.0480 C.2     1  UNL1       -0.0290
     13  C         25.1630  -23.8020  -13.5140 C.2     1  UNL1        0.0100
     14  C         25.3580  -24.9100  -14.3390 C.2     1  UNL1        0.0010
     15  C         25.4140  -24.7440  -15.7170 C.2     1  UNL1        0.0010
     16  C         25.2650  -23.4730  -16.2690 C.2     1  UNL1        0.0070
     17  C         25.0630  -22.3470  -15.4530 C.2     1  UNL1       -0.0540
     18  C         24.8910  -21.0050  -16.1140 C.3     1  UNL1        0.0490
     19  C         25.9890  -21.0050  -12.1550 C.3     1  UNL1        0.0050
     20  C         26.4810  -19.5610  -12.3220 C.3     1  UNL1        0.0120
     21  C         25.6090  -21.2230  -10.6840 C.3     1  UNL1        0.0120
     22  S         20.3540  -23.8200   -8.6750 S.O2    1  UNL1        0.2630
     23  O         21.1680  -23.1350   -7.6930 O.2     1  UNL1       -0.2000
     24  O         20.7220  -25.1270   -9.1760 O.2     1  UNL1       -0.2000
     25  N         18.7680  -23.9630   -8.1060 N.pl3   1  UNL1       -0.2810
     26  H         18.0850  -23.8930   -8.8590 H       1  UNL1        0.1790
     27  C         18.4330  -23.3710   -6.8570 C.2     1  UNL1        0.0430
     28  C         17.7600  -24.1120   -5.8870 C.2     1  UNL1        0.0300
     29  C         17.5090  -23.5510   -4.6350 C.2     1  UNL1        0.0030
     30  C         17.9370  -22.2530   -4.3530 C.2     1  UNL1        0.0070
     31  C         18.6080  -21.5000   -5.3240 C.2     1  UNL1       -0.0600
     32  C         19.1180  -20.1260   -4.9970 C.3     1  UNL1        0.0480
     33  C         18.8590  -22.0710   -6.5780 C.2     1  UNL1        0.0370
@<TRIPOS>BOND
     1    16    15    2
     2    16    17    1
     3    18    17    1
     4    15    14    1
     5    17    12    2
     6    14    13    2
     7    12    13    1
     8    12    11    1
     9     8     7    2
    10    11     9    1
    11    11    19    1
    12     7     9   am
    13     7     5    1
    14     9    10    1
    15    20    19    1
    16     4     5    2
    17     4     3    1
    18    19    21    1
    19     5     6    1
    20     3     2    2
    21     6     1    2
    22     2     1    1
    23     1    22    1
    24    24    22    2
    25    26    25    1
    26    22    25    1
    27    22    23    2
    28    25    27    1
    29    27    33    2
    30    27    28    1
    31    33    31    1
    32    28    29    2
    33    31    32    1
    34    31    30    2
    35    29    30    1
