@<TRIPOS>MOLECULE
33465_out_ligand_01.pdbqt
 32 35 0 0 0
SMALL
GASTEIGER

@<TRIPOS>ATOM
      1  C         20.6790  -22.7210  -10.2010 C.2     1  UNL1        0.0800
      2  C         19.7550  -21.9370  -10.8980 C.2     1  UNL1        0.0250
      3  C         20.1490  -21.2820  -12.0640 C.2     1  UNL1        0.0030
      4  C         21.4570  -21.4220  -12.5380 C.2     1  UNL1        0.0170
      5  C         22.3740  -22.2260  -11.8480 C.2     1  UNL1        0.0330
      6  C         21.9850  -22.8780  -10.6730 C.2     1  UNL1        0.0420
      7  C         23.7780  -22.3870  -12.3090 C.2     1  UNL1        0.2520
      8  O         24.4740  -23.2730  -11.8300 O.2     1  UNL1       -0.2680
      9  N         24.1910  -21.5180  -13.2950 N.am    1  UNL1       -0.3480
     10  H         23.4800  -21.0160  -13.8080 H       1  UNL1        0.1630
     11  C         25.4690  -21.6870  -13.9800 C.3     1  UNL1        0.1180
     12  C         26.3560  -20.4560  -13.7470 C.3     1  UNL1        0.0300
     13  C         25.8950  -19.2680  -14.5840 C.3     1  UNL1        0.0070
     14  C         25.9770  -19.5940  -16.0730 C.3     1  UNL1        0.0390
     15  C         25.4050  -20.9440  -16.4250 C.2     1  UNL1       -0.0500
     16  C         25.1230  -21.2270  -17.7710 C.2     1  UNL1        0.0070
     17  C         25.2100  -21.9440  -15.4540 C.2     1  UNL1       -0.0290
     18  C         24.6340  -22.4770  -18.1500 C.2     1  UNL1        0.0010
     19  C         24.4310  -23.4640  -17.1900 C.2     1  UNL1        0.0010
     20  C         24.7180  -23.2000  -15.8520 C.2     1  UNL1        0.0100
     21  S         20.1960  -23.5560   -8.7090 S.O2    1  UNL1        0.2630
     22  O         20.4430  -22.6450   -7.6100 O.2     1  UNL1       -0.2000
     23  O         20.7780  -24.8810   -8.7240 O.2     1  UNL1       -0.2000
     24  N         18.5210  -23.6730   -8.8650 N.pl3   1  UNL1       -0.2810
     25  H         18.2480  -24.4120   -9.5110 H       1  UNL1        0.1790
     26  C         17.6960  -23.4510   -7.7270 C.2     1  UNL1        0.0420
     27  C         16.7640  -22.4140   -7.7630 C.2     1  UNL1        0.0300
     28  C         15.9280  -22.1870   -6.6660 C.2     1  UNL1        0.0090
     29  C         16.0130  -23.0030   -5.5290 C.2     1  UNL1       -0.0620
     30  C         15.1390  -22.7320   -4.3400 C.3     1  UNL1        0.0480
     31  C         16.9610  -24.0320   -5.4990 C.2     1  UNL1        0.0090
     32  C         17.7960  -24.2570   -6.5950 C.2     1  UNL1        0.0300
@<TRIPOS>BOND
     1    18    16    1
     2    18    19    2
     3    16    15    2
     4    19    20    1
     5    15    14    1
     6    15    17    1
     7    14    13    1
     8    20    17    2
     9    17    11    1
    10    13    12    1
    11    11    12    1
    12    11     9    1
    13    10     9    1
    14     9     7   am
    15     4     3    2
    16     4     5    1
    17     7     5    1
    18     7     8    2
    19     3     2    1
    20     5     6    2
    21     2     1    2
    22     6     1    1
    23     1    21    1
    24    25    24    1
    25    24    21    1
    26    24    26    1
    27    23    21    2
    28    21    22    2
    29    27    26    2
    30    27    28    1
    31    26    32    1
    32    28    29    2
    33    32    31    2
    34    29    31    1
    35    29    30    1
