@<TRIPOS>MOLECULE
33460_out_ligand_01.pdbqt
 31 33 0 0 0
SMALL
GASTEIGER

@<TRIPOS>ATOM
      1  C         20.8040  -22.1470  -10.3520 C.2     1  UNL1        0.0800
      2  C         20.8450  -21.2860  -11.4520 C.2     1  UNL1        0.0250
      3  C         19.6550  -20.7740  -11.9680 C.2     1  UNL1        0.0030
      4  C         18.4320  -21.1250  -11.3890 C.2     1  UNL1        0.0170
      5  C         18.3930  -21.9980  -10.2910 C.2     1  UNL1        0.0330
      6  C         19.5880  -22.4960   -9.7590 C.2     1  UNL1        0.0420
      7  C         17.1120  -22.4030   -9.6460 C.2     1  UNL1        0.2520
      8  O         16.0450  -22.1720  -10.2040 O.2     1  UNL1       -0.2680
      9  N         17.2070  -22.9910   -8.4060 N.am    1  UNL1       -0.3490
     10  H         18.0890  -22.9940   -7.9130 H       1  UNL1        0.1630
     11  C         16.0260  -23.3730   -7.6450 C.3     1  UNL1        0.1140
     12  C         15.5670  -24.7880   -8.0190 C.3     1  UNL1        0.0370
     13  C         16.3180  -23.1870   -6.1580 C.2     1  UNL1       -0.0300
     14  C         17.5330  -23.6420   -5.6070 C.2     1  UNL1        0.0100
     15  C         17.8310  -23.4570   -4.2570 C.2     1  UNL1        0.0010
     16  C         16.9280  -22.8020   -3.4300 C.2     1  UNL1        0.0010
     17  C         15.7300  -22.3220   -3.9550 C.2     1  UNL1        0.0070
     18  C         15.4160  -22.4940   -5.3150 C.2     1  UNL1       -0.0540
     19  C         14.1100  -21.9420   -5.8240 C.3     1  UNL1        0.0490
     20  S         22.3130  -22.7900   -9.6770 S.O2    1  UNL1        0.2630
     21  O         23.0460  -21.7090   -9.0540 O.2     1  UNL1       -0.2000
     22  O         21.9760  -23.9850   -8.9320 O.2     1  UNL1       -0.2000
     23  N         23.1400  -23.3130  -11.0570 N.pl3   1  UNL1       -0.2810
     24  H         23.0870  -24.3270  -11.1430 H       1  UNL1        0.1790
     25  C         24.3820  -22.6940  -11.3620 C.2     1  UNL1        0.0430
     26  C         25.5440  -23.1440  -10.7410 C.2     1  UNL1        0.0300
     27  C         26.7720  -22.5680  -11.0670 C.2     1  UNL1        0.0030
     28  C         26.8330  -21.5450  -12.0150 C.2     1  UNL1        0.0070
     29  C         25.6670  -21.0830  -12.6400 C.2     1  UNL1       -0.0600
     30  C         25.7390  -20.0190  -13.6940 C.3     1  UNL1        0.0480
     31  C         24.4400  -21.6770  -12.3160 C.2     1  UNL1        0.0370
@<TRIPOS>BOND
     1    30    29    1
     2    29    31    1
     3    29    28    2
     4    31    25    2
     5    28    27    1
     6     3     2    1
     7     3     4    2
     8     2     1    2
     9     4     5    1
    10    25    23    1
    11    25    26    1
    12    24    23    1
    13    27    26    2
    14    23    20    1
    15     1     6    1
    16     1    20    1
    17     5     6    2
    18     5     7    1
    19     8     7    2
    20    20    21    2
    21    20    22    2
    22     7     9   am
    23     9    10    1
    24     9    11    1
    25    12    11    1
    26    11    13    1
    27    13    14    2
    28    13    18    1
    29    19    18    1
    30    14    15    1
    31    18    17    2
    32    15    16    2
    33    17    16    1
