@<TRIPOS>MOLECULE
33486_out_ligand_01.pdbqt
 33 35 0 0 0
SMALL
GASTEIGER

@<TRIPOS>ATOM
      1  C         21.5450  -22.8050   -9.6220 C.2     1  UNL1        0.0330
      2  C         21.7870  -24.0720   -9.0710 C.2     1  UNL1        0.0170
      3  C         20.7190  -24.8770   -8.6640 C.2     1  UNL1        0.0030
      4  C         19.4080  -24.4210   -8.7970 C.2     1  UNL1        0.0250
      5  C         19.1730  -23.1490   -9.3290 C.2     1  UNL1        0.0800
      6  C         20.2320  -22.3390   -9.7460 C.2     1  UNL1        0.0420
      7  C         22.6530  -21.9120  -10.0500 C.2     1  UNL1        0.2520
      8  N         23.2610  -22.2260  -11.2440 N.am    1  UNL1       -0.3480
      9  H         22.8500  -22.9260  -11.8450 H       1  UNL1        0.1630
     10  O         22.9600  -20.9500   -9.3560 O.2     1  UNL1       -0.2680
     11  C         24.3080  -21.3960  -11.8240 C.3     1  UNL1        0.1170
     12  C         25.6150  -21.5030  -11.0110 C.3     1  UNL1        0.0250
     13  C         26.4930  -20.2620  -11.1280 C.3     1  UNL1        0.0070
     14  C         24.4640  -21.7790  -13.2880 C.2     1  UNL1       -0.0350
     15  C         24.3280  -20.8580  -14.3330 C.2     1  UNL1        0.0100
     16  C         24.5140  -21.2530  -15.6600 C.2     1  UNL1        0.0080
     17  C         24.8570  -22.5740  -15.9780 C.2     1  UNL1       -0.0560
     18  C         25.0480  -22.9610  -17.4190 C.3     1  UNL1        0.0490
     19  C         25.0180  -23.5100  -14.9390 C.2     1  UNL1       -0.0560
     20  C         25.3960  -24.9380  -15.2200 C.3     1  UNL1        0.0490
     21  C         24.8230  -23.1000  -13.6090 C.2     1  UNL1        0.0160
     22  S         17.5100  -22.5570   -9.5070 S.O2    1  UNL1        0.2630
     23  O         16.6020  -23.6800   -9.4220 O.2     1  UNL1       -0.2000
     24  O         17.4940  -21.6750  -10.6540 O.2     1  UNL1       -0.2000
     25  N         17.3200  -21.5730   -8.1480 N.pl3   1  UNL1       -0.2810
     26  H         16.8510  -20.7000   -8.3870 H       1  UNL1        0.1790
     27  C         16.9700  -22.1920   -6.9170 C.2     1  UNL1        0.0420
     28  C         15.6290  -22.4170   -6.6200 C.2     1  UNL1        0.0300
     29  C         15.2750  -22.9990   -5.4020 C.2     1  UNL1        0.0090
     30  C         16.2630  -23.3630   -4.4770 C.2     1  UNL1       -0.0620
     31  C         15.8810  -23.9570   -3.1530 C.3     1  UNL1        0.0480
     32  C         17.6070  -23.1110   -4.7790 C.2     1  UNL1        0.0090
     33  C         17.9610  -22.5300   -5.9990 C.2     1  UNL1        0.0300
@<TRIPOS>BOND
     1    18    17    1
     2    17    16    2
     3    17    19    1
     4    16    15    1
     5    20    19    1
     6    19    21    2
     7    15    14    2
     8    21    14    1
     9    14    11    1
    10     9     8    1
    11    11     8    1
    12    11    12    1
    13     8     7   am
    14    13    12    1
    15    24    22    2
    16     7     1    1
    17     7    10    2
    18     6     1    2
    19     6     5    1
    20     1     2    1
    21    22    23    2
    22    22     5    1
    23    22    25    1
    24     5     4    2
    25     2     3    2
    26     4     3    1
    27    26    25    1
    28    25    27    1
    29    27    28    2
    30    27    33    1
    31    28    29    1
    32    33    32    2
    33    29    30    2
    34    32    30    1
    35    30    31    1
