@<TRIPOS>MOLECULE
33485_out_ligand_01.pdbqt
 32 34 0 0 0
SMALL
GASTEIGER

@<TRIPOS>ATOM
      1  C         21.3060  -22.3840  -10.6660 C.2     1  UNL1        0.0800
      2  C         21.6110  -21.6240  -11.7990 C.2     1  UNL1        0.0250
      3  C         20.5790  -21.0090  -12.5070 C.2     1  UNL1        0.0030
      4  C         19.2570  -21.1480  -12.0770 C.2     1  UNL1        0.0170
      5  C         18.9560  -21.8840  -10.9230 C.2     1  UNL1        0.0330
      6  C         19.9870  -22.5030  -10.2110 C.2     1  UNL1        0.0420
      7  C         17.5280  -22.0210  -10.5190 C.2     1  UNL1        0.2520
      8  O         16.7170  -21.1640  -10.8520 O.2     1  UNL1       -0.2680
      9  N         17.2100  -23.1280   -9.7610 N.am    1  UNL1       -0.3490
     10  H         17.9600  -23.6300   -9.3060 H       1  UNL1        0.1630
     11  C         15.8880  -23.2990   -9.1770 C.3     1  UNL1        0.1140
     12  C         15.1540  -24.4350   -9.8930 C.3     1  UNL1        0.0370
     13  C         16.0240  -23.4850   -7.6750 C.2     1  UNL1       -0.0350
     14  C         16.9340  -24.3780   -7.0990 C.2     1  UNL1        0.0100
     15  C         17.0380  -24.4920   -5.7100 C.2     1  UNL1        0.0080
     16  C         16.2440  -23.7080   -4.8600 C.2     1  UNL1       -0.0560
     17  C         16.3890  -23.8580   -3.3700 C.3     1  UNL1        0.0490
     18  C         15.3420  -22.7860   -5.4220 C.2     1  UNL1       -0.0560
     19  C         14.4760  -21.9090   -4.5610 C.3     1  UNL1        0.0490
     20  C         15.2450  -22.6860   -6.8200 C.2     1  UNL1        0.0160
     21  S         22.6130  -23.1890   -9.7640 S.O2    1  UNL1        0.2630
     22  O         23.7760  -23.2290  -10.6250 O.2     1  UNL1       -0.2000
     23  O         22.0640  -24.3990   -9.1890 O.2     1  UNL1       -0.2000
     24  N         22.8930  -22.1370   -8.4700 N.pl3   1  UNL1       -0.2810
     25  H         23.7950  -22.3080   -8.0290 H       1  UNL1        0.1790
     26  C         21.8020  -21.7760   -7.6310 C.2     1  UNL1        0.0420
     27  C         21.9310  -20.6770   -6.7820 C.2     1  UNL1        0.0300
     28  C         20.8990  -20.3600   -5.8950 C.2     1  UNL1        0.0090
     29  C         19.7390  -21.1430   -5.8450 C.2     1  UNL1       -0.0620
     30  C         18.6220  -20.7870   -4.9080 C.3     1  UNL1        0.0480
     31  C         19.6110  -22.2280   -6.7190 C.2     1  UNL1        0.0090
     32  C         20.6420  -22.5470   -7.6050 C.2     1  UNL1        0.0300
@<TRIPOS>BOND
     1     3     4    2
     2     3     2    1
     3     4     5    1
     4     2     1    2
     5     5     7    1
     6     5     6    2
     7     8     7    2
     8     1     6    1
     9     1    21    1
    10    22    21    2
    11     7     9   am
    12    12    11    1
    13    21    23    2
    14    21    24    1
    15     9    10    1
    16     9    11    1
    17    11    13    1
    18    24    25    1
    19    24    26    1
    20    13    14    2
    21    13    20    1
    22    26    32    2
    23    26    27    1
    24    32    31    1
    25    14    15    1
    26    20    18    2
    27    27    28    2
    28    31    29    2
    29    28    29    1
    30    29    30    1
    31    15    16    2
    32    18    16    1
    33    18    19    1
    34    16    17    1
