@<TRIPOS>MOLECULE
33481_out_ligand_01.pdbqt
 32 34 0 0 0
SMALL
GASTEIGER

@<TRIPOS>ATOM
      1  C         21.5440  -22.4700  -10.1980 C.2     1  UNL1        0.0800
      2  C         20.9470  -21.8720  -11.3120 C.2     1  UNL1        0.0250
      3  C         19.5600  -21.7230  -11.3550 C.2     1  UNL1        0.0030
      4  C         18.7770  -22.1580  -10.2830 C.2     1  UNL1        0.0170
      5  C         19.3820  -22.7340   -9.1560 C.2     1  UNL1        0.0330
      6  C         20.7710  -22.8930   -9.1120 C.2     1  UNL1        0.0420
      7  C         18.5730  -23.2280   -8.0090 C.2     1  UNL1        0.2560
      8  O         18.6900  -24.4040   -7.6910 O.2     1  UNL1       -0.2670
      9  N         17.7790  -22.2680   -7.4040 N.am    1  UNL1       -0.3220
     10  H         17.9080  -21.3170   -7.7390 H       1  UNL1        0.1690
     11  C         16.8760  -22.4350   -6.3240 C.2     1  UNL1        0.0500
     12  C         15.6110  -23.0090   -6.5010 C.2     1  UNL1        0.0300
     13  C         14.7260  -23.1680   -5.4300 C.2     1  UNL1        0.0020
     14  C         15.0900  -22.7530   -4.1570 C.2     1  UNL1        0.0010
     15  C         16.3400  -22.1760   -3.9590 C.2     1  UNL1        0.0180
     16  C         17.2450  -22.0060   -5.0310 C.2     1  UNL1        0.0740
     17  C         18.5700  -21.3640   -4.7040 C.3     1  UNL1        0.4190
     18  F         18.9740  -21.6130   -3.4270 F       1  UNL1       -0.1660
     19  F         18.5370  -20.0070   -4.8260 F       1  UNL1       -0.1660
     20  F         19.6020  -21.7740   -5.5010 F       1  UNL1       -0.1660
     21  S         23.3110  -22.6380  -10.1340 S.O2    1  UNL1        0.2630
     22  O         23.6510  -23.5880   -9.0990 O.2     1  UNL1       -0.2000
     23  O         23.8670  -21.2990  -10.1200 O.2     1  UNL1       -0.2000
     24  N         23.6810  -23.2740  -11.6560 N.pl3   1  UNL1       -0.2810
     25  H         22.8750  -23.7680  -12.0390 H       1  UNL1        0.1790
     26  C         24.4220  -22.4590  -12.5550 C.2     1  UNL1        0.0420
     27  C         23.7500  -21.6760  -13.4900 C.2     1  UNL1        0.0300
     28  C         24.4740  -20.9120  -14.4070 C.2     1  UNL1        0.0090
     29  C         25.8740  -20.9200  -14.3880 C.2     1  UNL1       -0.0620
     30  C         26.6520  -20.1330  -15.4010 C.3     1  UNL1        0.0480
     31  C         26.5390  -21.7250  -13.4540 C.2     1  UNL1        0.0090
     32  C         25.8150  -22.4920  -12.5380 C.2     1  UNL1        0.0300
@<TRIPOS>BOND
     1    30    29    1
     2    28    29    2
     3    28    27    1
     4    29    31    1
     5    27    26    2
     6    31    32    2
     7    26    32    1
     8    26    24    1
     9    25    24    1
    10    24    21    1
    11     3     2    1
    12     3     4    2
    13     2     1    2
    14     4     5    1
    15     1    21    1
    16     1     6    1
    17    21    23    2
    18    21    22    2
    19     5     6    2
    20     5     7    1
    21     7     8    2
    22     7     9   am
    23    10     9    1
    24     9    11    1
    25    12    11    2
    26    12    13    1
    27    11    16    1
    28    20    17    1
    29    13    14    2
    30    16    17    1
    31    16    15    2
    32    19    17    1
    33    17    18    1
    34    14    15    1
