@<TRIPOS>MOLECULE
33488_out_ligand_01.pdbqt
 31 33 0 0 0
SMALL
GASTEIGER

@<TRIPOS>ATOM
      1  C         20.8920  -21.9590  -10.0770 C.2     1  UNL1        0.0800
      2  C         20.9720  -21.2910  -11.3070 C.2     1  UNL1        0.0250
      3  C         19.8030  -20.9620  -11.9940 C.2     1  UNL1        0.0030
      4  C         18.5560  -21.3110  -11.4620 C.2     1  UNL1        0.0170
      5  C         18.4830  -22.0010  -10.2420 C.2     1  UNL1        0.0330
      6  C         19.6520  -22.3270   -9.5480 C.2     1  UNL1        0.0420
      7  C         17.1790  -22.3900   -9.6480 C.2     1  UNL1        0.2520
      8  O         16.1360  -22.1030  -10.2230 O.2     1  UNL1       -0.2680
      9  N         17.2450  -23.0260   -8.4310 N.am    1  UNL1       -0.3490
     10  H         18.1310  -23.0700   -7.9420 H       1  UNL1        0.1630
     11  C         16.0500  -23.3520   -7.6630 C.3     1  UNL1        0.1140
     12  C         15.5590  -24.7580   -8.0340 C.3     1  UNL1        0.0370
     13  C         16.3440  -23.1510   -6.1760 C.2     1  UNL1       -0.0300
     14  C         17.5730  -23.5740   -5.6240 C.2     1  UNL1        0.0100
     15  C         17.8770  -23.3620   -4.2760 C.2     1  UNL1        0.0010
     16  C         16.9600  -22.7220   -3.4500 C.2     1  UNL1        0.0010
     17  C         15.7420  -22.2870   -3.9710 C.2     1  UNL1        0.0070
     18  C         15.4260  -22.4770   -5.3310 C.2     1  UNL1       -0.0540
     19  C         14.1060  -21.9480   -5.8430 C.3     1  UNL1        0.0490
     20  S         22.3830  -22.4310   -9.2280 S.O2    1  UNL1        0.2630
     21  O         22.5600  -23.8540   -9.4290 O.2     1  UNL1       -0.2000
     22  O         22.3300  -21.8750   -7.8940 O.2     1  UNL1       -0.2000
     23  N         23.5990  -21.6910  -10.1180 N.pl3   1  UNL1       -0.2810
     24  H         23.9830  -20.8710   -9.6550 H       1  UNL1        0.1790
     25  C         24.4410  -22.4240  -11.0010 C.2     1  UNL1        0.0420
     26  C         23.9630  -23.0070  -12.1730 C.2     1  UNL1        0.0300
     27  C         24.8320  -23.7160  -13.0100 C.2     1  UNL1        0.0090
     28  C         26.1950  -23.8240  -12.6970 C.2     1  UNL1       -0.0620
     29  C         27.1200  -24.5660  -13.6170 C.3     1  UNL1        0.0480
     30  C         26.6780  -23.2020  -11.5410 C.2     1  UNL1        0.0090
     31  C         25.8070  -22.5050  -10.6970 C.2     1  UNL1        0.0300
@<TRIPOS>BOND
     1    29    28    1
     2    27    28    2
     3    27    26    1
     4    28    30    1
     5    26    25    2
     6     3     4    2
     7     3     2    1
     8    30    31    2
     9     4     5    1
    10     2     1    2
    11    25    31    1
    12    25    23    1
    13     5     7    1
    14     5     6    2
    15     8     7    2
    16    23    24    1
    17    23    20    1
    18     1     6    1
    19     1    20    1
    20     7     9   am
    21    21    20    2
    22    20    22    2
    23     9    10    1
    24     9    11    1
    25    12    11    1
    26    11    13    1
    27    13    14    2
    28    13    18    1
    29    19    18    1
    30    14    15    1
    31    18    17    2
    32    15    16    2
    33    17    16    1
