@<TRIPOS>MOLECULE
33496_out_ligand_01.pdbqt
 30 32 0 0 0
SMALL
GASTEIGER

@<TRIPOS>ATOM
      1  C         21.0430  -22.1510  -10.4110 C.2     1  UNL1        0.0800
      2  C         20.7790  -21.3160  -11.5010 C.2     1  UNL1        0.0250
      3  C         19.4580  -21.0090  -11.8260 C.2     1  UNL1        0.0030
      4  C         18.4100  -21.5270  -11.0600 C.2     1  UNL1        0.0170
      5  C         18.6810  -22.3440   -9.9520 C.2     1  UNL1        0.0330
      6  C         20.0040  -22.6570   -9.6260 C.2     1  UNL1        0.0420
      7  S         22.7200  -22.5780   -9.9990 S.O2    1  UNL1        0.2630
      8  O         23.4430  -21.3540   -9.7240 O.2     1  UNL1       -0.2000
      9  O         22.6610  -23.6470   -9.0250 O.2     1  UNL1       -0.2000
     10  N         23.2970  -23.2640  -11.4300 N.pl3   1  UNL1       -0.2810
     11  H         22.5610  -23.7550  -11.9380 H       1  UNL1        0.1790
     12  C         24.2630  -22.5520  -12.1950 C.2     1  UNL1        0.0420
     13  C         23.8260  -21.6910  -13.2030 C.2     1  UNL1        0.0300
     14  C         24.7540  -20.9480  -13.9360 C.2     1  UNL1        0.0090
     15  C         26.1240  -21.0540  -13.6630 C.2     1  UNL1       -0.0620
     16  C         27.1210  -20.2800  -14.4730 C.3     1  UNL1        0.0480
     17  C         26.5530  -21.9350  -12.6630 C.2     1  UNL1        0.0090
     18  C         25.6250  -22.6770  -11.9280 C.2     1  UNL1        0.0300
     19  C         17.5940  -22.9340   -9.1260 C.2     1  UNL1        0.2510
     20  O         16.4240  -22.7430   -9.4400 O.2     1  UNL1       -0.2680
     21  N         17.9930  -23.6920   -8.0490 N.am    1  UNL1       -0.3530
     22  H         18.9570  -23.9900   -7.9920 H       1  UNL1        0.1630
     23  C         17.0410  -24.4400   -7.2550 C.3     1  UNL1        0.1610
     24  C         16.7100  -23.6970   -5.9860 C.2     1  UNL1       -0.0400
     25  C         15.4160  -23.7620   -5.4510 C.2     1  UNL1        0.0090
     26  C         15.1110  -23.1010   -4.2620 C.2     1  UNL1        0.0010
     27  C         16.0930  -22.3680   -3.5970 C.2     1  UNL1        0.0070
     28  C         17.3900  -22.2860   -4.1160 C.2     1  UNL1       -0.0610
     29  C         18.4550  -21.5310   -3.3760 C.3     1  UNL1        0.0480
     30  C         17.6950  -22.9650   -5.3040 C.2     1  UNL1        0.0150
@<TRIPOS>BOND
     1    16    15    1
     2    14    15    2
     3    14    13    1
     4    15    17    1
     5    13    12    2
     6    17    18    2
     7    12    18    1
     8    12    10    1
     9    11    10    1
    10     3     2    1
    11     3     4    2
    12     2     1    2
    13    10     7    1
    14     4     5    1
    15     1     7    1
    16     1     6    1
    17     7     8    2
    18     7     9    2
    19     5     6    2
    20     5    19    1
    21    20    19    2
    22    19    21   am
    23    21    22    1
    24    21    23    1
    25    23    24    1
    26    24    25    2
    27    24    30    1
    28    25    26    1
    29    30    28    2
    30    26    27    2
    31    28    27    1
    32    28    29    1
