@<TRIPOS>MOLECULE
33492_out_ligand_01.pdbqt
 32 34 0 0 0
SMALL
GASTEIGER

@<TRIPOS>ATOM
      1  C         20.7490  -21.8670  -10.3290 C.2     1  UNL1        0.0800
      2  C         20.6800  -21.1080  -11.5020 C.2     1  UNL1        0.0250
      3  C         19.4350  -20.8070  -12.0530 C.2     1  UNL1        0.0030
      4  C         18.2680  -21.2490  -11.4240 C.2     1  UNL1        0.0170
      5  C         18.3410  -21.9760  -10.2290 C.2     1  UNL1        0.0330
      6  C         19.5860  -22.2920   -9.6770 C.2     1  UNL1        0.0420
      7  C         17.0770  -22.4270   -9.5910 C.2     1  UNL1        0.2520
      8  O         16.0050  -22.1750  -10.1270 O.2     1  UNL1       -0.2680
      9  N         17.2160  -23.0980   -8.3980 N.am    1  UNL1       -0.3490
     10  H         18.1080  -23.0520   -7.9220 H       1  UNL1        0.1630
     11  C         16.0670  -23.4680   -7.5820 C.3     1  UNL1        0.1140
     12  C         15.7950  -24.9700   -7.7140 C.3     1  UNL1        0.0370
     13  C         16.3010  -23.0200   -6.1420 C.2     1  UNL1       -0.0290
     14  C         17.4410  -22.2500   -5.8230 C.2     1  UNL1        0.0160
     15  C         17.6890  -21.8030   -4.5190 C.2     1  UNL1       -0.0610
     16  C         18.8930  -20.9600   -4.2150 C.3     1  UNL1        0.0480
     17  C         16.7660  -22.1000   -3.5170 C.2     1  UNL1        0.0070
     18  C         15.6250  -22.8470   -3.8100 C.2     1  UNL1        0.0080
     19  C         15.3760  -23.3100   -5.1130 C.2     1  UNL1       -0.0540
     20  C         14.1140  -24.0950   -5.3610 C.3     1  UNL1        0.0490
     21  S         22.3330  -22.2780   -9.6310 S.O2    1  UNL1        0.2630
     22  O         23.1190  -21.0670   -9.5490 O.2     1  UNL1       -0.2000
     23  O         22.0790  -23.0860   -8.4560 O.2     1  UNL1       -0.2000
     24  N         22.9990  -23.3160  -10.7830 N.pl3   1  UNL1       -0.2810
     25  H         22.3080  -23.9450  -11.1870 H       1  UNL1        0.1790
     26  C         24.0370  -22.8390  -11.6300 C.2     1  UNL1        0.0420
     27  C         23.6960  -22.1880  -12.8160 C.2     1  UNL1        0.0300
     28  C         24.6960  -21.6740  -13.6430 C.2     1  UNL1        0.0090
     29  C         26.0450  -21.8050  -13.2900 C.2     1  UNL1       -0.0620
     30  C         27.1210  -21.2830  -14.1950 C.3     1  UNL1        0.0480
     31  C         26.3780  -22.4780  -12.1080 C.2     1  UNL1        0.0090
     32  C         25.3770  -22.9880  -11.2790 C.2     1  UNL1        0.0300
@<TRIPOS>BOND
     1    30    29    1
     2    28    29    2
     3    28    27    1
     4    29    31    1
     5    27    26    2
     6    31    32    2
     7     3     2    1
     8     3     4    2
     9    26    32    1
    10    26    24    1
    11     2     1    2
    12     4     5    1
    13    25    24    1
    14    24    21    1
    15     1     6    1
    16     1    21    1
    17     5     6    2
    18     5     7    1
    19     8     7    2
    20    21    22    2
    21    21    23    2
    22     7     9   am
    23     9    10    1
    24     9    11    1
    25    12    11    1
    26    11    13    1
    27    13    14    2
    28    13    19    1
    29    14    15    1
    30    20    19    1
    31    19    18    2
    32    15    16    1
    33    15    17    2
    34    18    17    1
