@<TRIPOS>MOLECULE
334_out_ligand_01.pdbqt
 33 36 0 0 0
SMALL
GASTEIGER

@<TRIPOS>ATOM
      1  C         18.0660  -22.9250   -9.5320 C.2     1  UNL1        0.0790
      2  C         19.2780  -23.5600   -9.2430 C.2     1  UNL1        0.0260
      3  C         20.4230  -23.2160   -9.9610 C.2     1  UNL1        0.0180
      4  C         20.3390  -22.2580  -10.9790 C.2     1  UNL1        0.0320
      5  C         19.1280  -21.6180  -11.2620 C.2     1  UNL1        0.0180
      6  C         17.9810  -21.9610  -10.5440 C.2     1  UNL1        0.0260
      7  C         21.5540  -21.8460  -11.7140 C.2     1  UNL1        0.2530
      8  O         21.3970  -21.1050  -12.6810 O.2     1  UNL1       -0.2670
      9  N         22.7960  -22.2910  -11.2690 N.am    1  UNL1       -0.3480
     10  C         22.9910  -23.2790  -10.2160 C.3     1  UNL1        0.1530
     11  C         23.9900  -21.6310  -11.7910 C.3     1  UNL1        0.1640
     12  C         24.3950  -22.1870  -13.1370 C.2     1  UNL1       -0.0370
     13  C         24.9220  -23.4830  -13.2500 C.2     1  UNL1        0.0120
     14  C         25.3170  -23.9830  -14.4950 C.2     1  UNL1        0.0400
     15  C         25.1950  -23.1890  -15.6330 C.2     1  UNL1        0.1020
     16  C         24.6510  -21.9040  -15.5360 C.2     1  UNL1        0.1020
     17  O         25.6250  -23.7370  -16.8160 O.2     1  UNL1       -0.3460
     18  C         24.2640  -21.4030  -14.2940 C.2     1  UNL1        0.0480
     19  O         24.4750  -21.0780  -16.6170 O.2     1  UNL1       -0.3460
     20  C         24.5670  -21.8060  -17.8470 C.3     1  UNL1        0.2020
     21  C         25.7690  -22.7360  -17.8320 C.3     1  UNL1        0.2020
     22  S         16.6160  -23.3600   -8.6020 S.O2    1  UNL1        0.2630
     23  O         16.9870  -24.4630   -7.7380 O.2     1  UNL1       -0.2000
     24  O         15.4940  -23.4690   -9.5090 O.2     1  UNL1       -0.2000
     25  N         16.4090  -22.0220   -7.5890 N.pl3   1  UNL1       -0.2800
     26  H         16.9250  -21.2150   -7.9360 H       1  UNL1        0.1790
     27  C         16.3940  -22.2360   -6.1800 C.2     1  UNL1        0.0480
     28  C         15.1900  -22.6060   -5.5730 C.2     1  UNL1        0.0300
     29  C         15.1390  -22.8490   -4.2010 C.2     1  UNL1        0.0020
     30  C         16.2950  -22.7290   -3.4330 C.2     1  UNL1        0.0010
     31  C         17.5010  -22.3660   -4.0370 C.2     1  UNL1        0.0090
     32  C         17.5670  -22.1180   -5.4180 C.2     1  UNL1       -0.0350
     33  C         18.8820  -21.7340   -6.0360 C.3     1  UNL1        0.0500
@<TRIPOS>BOND
     1    20    21    1
     2    20    19    1
     3    21    17    1
     4    17    15    1
     5    19    16    1
     6    15    16    2
     7    15    14    1
     8    16    18    1
     9    14    13    2
    10    18    12    2
    11    13    12    1
    12    12    11    1
    13     8     7    2
    14    11     9    1
    15     7     9   am
    16     7     4    1
    17     9    10    1
    18     5     4    2
    19     5     6    1
    20     4     3    1
    21     6     1    2
    22     3     2    2
    23     1     2    1
    24     1    22    1
    25    24    22    2
    26    22    23    2
    27    22    25    1
    28    26    25    1
    29    25    27    1
    30    27    28    2
    31    27    32    1
    32    33    32    1
    33    28    29    1
    34    32    31    2
    35    29    30    2
    36    31    30    1
