@<TRIPOS>MOLECULE
33508_out_ligand_01.pdbqt
 29 31 0 0 0
SMALL
GASTEIGER

@<TRIPOS>ATOM
      1  C         19.8220  -22.4690  -10.4610 C.2     1  UNL1        0.0330
      2  C         19.3130  -21.6290  -11.4620 C.2     1  UNL1        0.0170
      3  C         17.9580  -21.2870  -11.4680 C.2     1  UNL1        0.0030
      4  C         17.1110  -21.7690  -10.4700 C.2     1  UNL1        0.0250
      5  C         17.6300  -22.5820   -9.4560 C.2     1  UNL1        0.0750
      6  C         18.9800  -22.9470   -9.4540 C.2     1  UNL1        0.0410
      7  S         16.5490  -23.1930   -8.1830 S.O2    1  UNL1        0.2460
      8  O         15.8670  -22.0500   -7.6120 O.2     1  UNL1       -0.2060
      9  O         15.8070  -24.3090   -8.7280 O.2     1  UNL1       -0.2060
     10  N         17.6170  -23.7490   -6.9950 N.pl3   1  UNL1       -0.1780
     11  H         17.3760  -24.6990   -6.7080 H       1  UNL1        0.1460
     12  C         17.9640  -22.8580   -5.9320 C.2     1  UNL1        0.0610
     13  C         18.8400  -21.7940   -6.1420 C.2     1  UNL1        0.0270
     14  C         19.1100  -20.9040   -5.1000 C.2     1  UNL1        0.0020
     15  C         18.5070  -21.0750   -3.8510 C.2     1  UNL1        0.0030
     16  C         17.6350  -22.1410   -3.6360 C.2     1  UNL1        0.0440
     17  C         17.3690  -23.0230   -4.6780 C.2     1  UNL1        0.1380
     18  F         16.5130  -24.0380   -4.4770 F       1  UNL1       -0.2040
     19  C         21.2640  -22.8340  -10.4150 C.2     1  UNL1        0.2560
     20  N         22.0680  -22.1120  -11.2770 N.am    1  UNL1       -0.3230
     21  H         21.6050  -21.4890  -11.9240 H       1  UNL1        0.1690
     22  O         21.6020  -23.7360   -9.6580 O.2     1  UNL1       -0.2670
     23  C         23.4680  -22.2090  -11.4230 C.2     1  UNL1        0.0350
     24  C         24.3840  -21.5000  -10.6470 C.2     1  UNL1        0.0290
     25  C         25.7570  -21.6520  -10.8560 C.2     1  UNL1        0.0030
     26  C         26.2270  -22.5110  -11.8480 C.2     1  UNL1        0.0070
     27  C         25.3270  -23.2180  -12.6500 C.2     1  UNL1       -0.0600
     28  C         25.8250  -24.1690  -13.6970 C.3     1  UNL1        0.0480
     29  C         23.9490  -23.0680  -12.4230 C.2     1  UNL1        0.0360
@<TRIPOS>BOND
     1    28    27    1
     2    27    29    1
     3    27    26    2
     4    29    23    2
     5    21    20    1
     6    26    25    1
     7     3     2    1
     8     3     4    2
     9     2     1    2
    10    23    20    1
    11    23    24    1
    12    20    19   am
    13    25    24    2
    14     4     5    1
    15     1    19    1
    16     1     6    1
    17    19    22    2
    18     5     6    2
    19     5     7    1
    20     9     7    2
    21     7     8    2
    22     7    10    1
    23    10    11    1
    24    10    12    1
    25    13    12    2
    26    13    14    1
    27    12    17    1
    28    14    15    2
    29    17    18    1
    30    17    16    2
    31    15    16    1
