@<TRIPOS>MOLECULE
33505_out_ligand_01.pdbqt
 31 33 0 0 0
SMALL
GASTEIGER

@<TRIPOS>ATOM
      1  C         20.9820  -22.1740   -9.9820 C.2     1  UNL1        0.0800
      2  C         20.8430  -21.6890  -11.2860 C.2     1  UNL1        0.0250
      3  C         19.5680  -21.4700  -11.8070 C.2     1  UNL1        0.0030
      4  C         18.4380  -21.7440  -11.0310 C.2     1  UNL1        0.0170
      5  C         18.5840  -22.2530   -9.7330 C.2     1  UNL1        0.0330
      6  C         19.8600  -22.4680   -9.2030 C.2     1  UNL1        0.0420
      7  C         17.4050  -22.5280   -8.8670 C.2     1  UNL1        0.2560
      8  O         16.3170  -22.6450   -9.4170 O.2     1  UNL1       -0.2670
      9  N         17.6880  -22.5890   -7.5160 N.am    1  UNL1       -0.3220
     10  H         18.6240  -22.3220   -7.2550 H       1  UNL1        0.1690
     11  C         16.7970  -22.8590   -6.4460 C.2     1  UNL1        0.0410
     12  C         15.7310  -23.7600   -6.5930 C.2     1  UNL1        0.0300
     13  C         14.8360  -24.0020   -5.5510 C.2     1  UNL1        0.0020
     14  C         14.9890  -23.3440   -4.3420 C.2     1  UNL1        0.0010
     15  C         16.0470  -22.4530   -4.1690 C.2     1  UNL1        0.0100
     16  C         16.9820  -22.2060   -5.1980 C.2     1  UNL1       -0.0280
     17  C         18.1280  -21.2250   -4.9480 C.3     1  UNL1        0.0130
     18  C         19.3550  -21.4160   -5.8520 C.3     1  UNL1        0.0150
     19  C         18.5530  -21.2700   -3.4780 C.3     1  UNL1        0.0150
     20  S         22.6010  -22.4300   -9.2920 S.O2    1  UNL1        0.2630
     21  O         22.6490  -21.7000   -8.0430 O.2     1  UNL1       -0.2000
     22  O         22.8930  -23.8460   -9.3430 O.2     1  UNL1       -0.2000
     23  N         23.6080  -21.6070  -10.3690 N.pl3   1  UNL1       -0.2810
     24  H         23.1420  -20.8030  -10.7880 H       1  UNL1        0.1790
     25  C         24.5020  -22.3510  -11.1880 C.2     1  UNL1        0.0420
     26  C         24.0250  -22.9140  -12.3710 C.2     1  UNL1        0.0300
     27  C         24.8740  -23.6830  -13.1710 C.2     1  UNL1        0.0090
     28  C         26.2100  -23.8830  -12.8000 C.2     1  UNL1       -0.0620
     29  C         27.1120  -24.7350  -13.6410 C.3     1  UNL1        0.0480
     30  C         26.6750  -23.3220  -11.6050 C.2     1  UNL1        0.0090
     31  C         25.8260  -22.5550  -10.8040 C.2     1  UNL1        0.0300
@<TRIPOS>BOND
     1    29    28    1
     2    27    28    2
     3    27    26    1
     4    28    30    1
     5    26    25    2
     6     3     2    1
     7     3     4    2
     8    30    31    2
     9     2     1    2
    10    25    31    1
    11    25    23    1
    12     4     5    1
    13    24    23    1
    14    23    20    1
    15     1    20    1
    16     1     6    1
    17     5     6    2
    18     5     7    1
    19     8     7    2
    20    22    20    2
    21    20    21    2
    22     7     9   am
    23     9    10    1
    24     9    11    1
    25    12    11    2
    26    12    13    1
    27    11    16    1
    28    18    17    1
    29    13    14    2
    30    16    17    1
    31    16    15    2
    32    17    19    1
    33    14    15    1
