@<TRIPOS>MOLECULE
33509_out_ligand_01.pdbqt
 29 31 0 0 0
SMALL
GASTEIGER

@<TRIPOS>ATOM
      1  C         19.3900  -22.3560  -10.4400 C.2     1  UNL1        0.0330
      2  C         18.7380  -21.5610  -11.3930 C.2     1  UNL1        0.0170
      3  C         17.3680  -21.3060  -11.2750 C.2     1  UNL1        0.0030
      4  C         16.6450  -21.8520  -10.2160 C.2     1  UNL1        0.0250
      5  C         17.2930  -22.6700   -9.2850 C.2     1  UNL1        0.0750
      6  C         18.6650  -22.9210   -9.3840 C.2     1  UNL1        0.0410
      7  S         16.3790  -23.3750   -7.9320 S.O2    1  UNL1        0.2460
      8  O         15.7150  -24.5670   -8.4170 O.2     1  UNL1       -0.2060
      9  O         15.6310  -22.3010   -7.3150 O.2     1  UNL1       -0.2060
     10  N         17.5880  -23.8170   -6.8370 N.pl3   1  UNL1       -0.1780
     11  H         17.4660  -24.7860   -6.5330 H       1  UNL1        0.1460
     12  C         17.9350  -22.8930   -5.8030 C.2     1  UNL1        0.0610
     13  C         18.7730  -21.8080   -6.0550 C.2     1  UNL1        0.0270
     14  C         19.0620  -20.9000   -5.0320 C.2     1  UNL1        0.0020
     15  C         18.5140  -21.0750   -3.7580 C.2     1  UNL1        0.0030
     16  C         17.6770  -22.1610   -3.5030 C.2     1  UNL1        0.0440
     17  C         17.3950  -23.0600   -4.5250 C.2     1  UNL1        0.1380
     18  F         16.5830  -24.1000   -4.2800 F       1  UNL1       -0.2040
     19  C         20.8450  -22.6560  -10.5380 C.2     1  UNL1        0.2560
     20  N         21.5790  -21.7290  -11.2550 N.am    1  UNL1       -0.3230
     21  H         21.0990  -20.8890  -11.5490 H       1  UNL1        0.1690
     22  O         21.2640  -23.6550   -9.9670 O.2     1  UNL1       -0.2670
     23  C         22.9580  -21.7730  -11.5480 C.2     1  UNL1        0.0350
     24  C         23.3230  -21.8850  -12.8960 C.2     1  UNL1        0.0300
     25  C         24.6700  -21.9430  -13.2710 C.2     1  UNL1        0.0090
     26  C         25.6760  -21.9020  -12.3020 C.2     1  UNL1       -0.0620
     27  C         27.1210  -21.9260  -12.7000 C.3     1  UNL1        0.0480
     28  C         25.3120  -21.7780  -10.9570 C.2     1  UNL1        0.0090
     29  C         23.9640  -21.7210  -10.5840 C.2     1  UNL1        0.0300
@<TRIPOS>BOND
     1    25    24    1
     2    25    26    2
     3    24    23    2
     4    27    26    1
     5    26    28    1
     6    21    20    1
     7    23    20    1
     8    23    29    1
     9     2     3    1
    10     2     1    2
    11     3     4    2
    12    20    19   am
    13    28    29    2
    14    19     1    1
    15    19    22    2
    16     1     6    1
    17     4     5    1
    18     6     5    2
    19     5     7    1
    20     8     7    2
    21     7     9    2
    22     7    10    1
    23    10    11    1
    24    10    12    1
    25    13    12    2
    26    13    14    1
    27    12    17    1
    28    14    15    2
    29    17    18    1
    30    17    16    2
    31    15    16    1
