@<TRIPOS>MOLECULE
33502_out_ligand_01.pdbqt
 32 35 0 0 0
SMALL
GASTEIGER

@<TRIPOS>ATOM
      1  C         17.1920  -22.4790   -9.9520 C.2     1  UNL1        0.0800
      2  C         16.6480  -21.3980  -10.6510 C.2     1  UNL1        0.0250
      3  C         17.4610  -20.6470  -11.4990 C.2     1  UNL1        0.0030
      4  C         18.8140  -20.9700  -11.6400 C.2     1  UNL1        0.0170
      5  C         19.3610  -22.0400  -10.9170 C.2     1  UNL1        0.0330
      6  C         18.5480  -22.8010  -10.0710 C.2     1  UNL1        0.0420
      7  C         20.7880  -22.4330  -11.0620 C.2     1  UNL1        0.2560
      8  O         21.2510  -23.2100  -10.2360 O.2     1  UNL1       -0.2670
      9  N         21.4480  -21.8390  -12.1210 N.am    1  UNL1       -0.3230
     10  H         20.9480  -21.1240  -12.6330 H       1  UNL1        0.1690
     11  C         22.7840  -22.0510  -12.5210 C.2     1  UNL1        0.0370
     12  C         23.6930  -22.8480  -11.8220 C.2     1  UNL1        0.0320
     13  C         25.0000  -23.0200  -12.2930 C.2     1  UNL1        0.0420
     14  C         25.4040  -22.3980  -13.4690 C.2     1  UNL1        0.1020
     15  C         24.5120  -21.5790  -14.1620 C.2     1  UNL1        0.1040
     16  O         26.6920  -22.6280  -13.8810 O.2     1  UNL1       -0.3460
     17  C         23.2050  -21.4190  -13.7010 C.2     1  UNL1        0.0690
     18  O         24.8450  -20.9060  -15.3100 O.2     1  UNL1       -0.3460
     19  C         26.2660  -20.8610  -15.4920 C.3     1  UNL1        0.2020
     20  C         26.8830  -22.2290  -15.2430 C.3     1  UNL1        0.2020
     21  S         16.1640  -23.4650   -8.8880 S.O2    1  UNL1        0.2630
     22  O         15.5740  -24.5200   -9.6830 O.2     1  UNL1       -0.2000
     23  O         15.3400  -22.5500   -8.1270 O.2     1  UNL1       -0.2000
     24  N         17.2720  -24.1320   -7.8010 N.pl3   1  UNL1       -0.2810
     25  H         17.1380  -25.1350   -7.6880 H       1  UNL1        0.1790
     26  C         17.6520  -23.3830   -6.6510 C.2     1  UNL1        0.0420
     27  C         17.0580  -23.6790   -5.4250 C.2     1  UNL1        0.0300
     28  C         17.3890  -22.9330   -4.2910 C.2     1  UNL1        0.0090
     29  C         18.3080  -21.8810   -4.3770 C.2     1  UNL1       -0.0620
     30  C         18.6900  -21.1010   -3.1530 C.3     1  UNL1        0.0480
     31  C         18.9130  -21.6040   -5.6090 C.2     1  UNL1        0.0090
     32  C         18.5820  -22.3490   -6.7430 C.2     1  UNL1        0.0300
@<TRIPOS>BOND
     1    19    18    1
     2    19    20    1
     3    18    15    1
     4    20    16    1
     5    15    17    1
     6    15    14    2
     7    16    14    1
     8    17    11    2
     9    14    13    1
    10    10     9    1
    11    11     9    1
    12    11    12    1
    13    13    12    2
    14     9     7   am
    15     4     3    2
    16     4     5    1
    17     3     2    1
    18     7     5    1
    19     7     8    2
    20     5     6    2
    21     2     1    2
    22     6     1    1
    23     1    21    1
    24    22    21    2
    25    21    23    2
    26    21    24    1
    27    24    25    1
    28    24    26    1
    29    32    26    2
    30    32    31    1
    31    26    27    1
    32    31    29    2
    33    27    28    2
    34    29    28    1
    35    29    30    1
