@<TRIPOS>MOLECULE
33513_out_ligand_01.pdbqt
 29 31 0 0 0
SMALL
GASTEIGER

@<TRIPOS>ATOM
      1  C         19.3530  -22.2010  -10.7070 C.2     1  UNL1        0.0330
      2  C         18.6460  -21.3530  -11.5720 C.2     1  UNL1        0.0170
      3  C         17.2910  -21.0950  -11.3480 C.2     1  UNL1        0.0030
      4  C         16.6340  -21.6930  -10.2730 C.2     1  UNL1        0.0250
      5  C         17.3360  -22.5630   -9.4320 C.2     1  UNL1        0.0750
      6  C         18.6950  -22.8160   -9.6370 C.2     1  UNL1        0.0410
      7  S         16.5080  -23.3300   -8.0580 S.O2    1  UNL1        0.2460
      8  O         15.8830  -24.5450   -8.5380 O.2     1  UNL1       -0.2060
      9  O         15.7350  -22.3020   -7.3960 O.2     1  UNL1       -0.2060
     10  N         17.7780  -23.7300   -7.0170 N.pl3   1  UNL1       -0.1780
     11  H         17.7310  -24.7140   -6.7460 H       1  UNL1        0.1460
     12  C         18.0990  -22.8210   -5.9600 C.2     1  UNL1        0.0610
     13  C         18.9180  -21.7160   -6.1810 C.2     1  UNL1        0.0270
     14  C         19.1800  -20.8260   -5.1360 C.2     1  UNL1        0.0020
     15  C         18.6240  -21.0380   -3.8710 C.2     1  UNL1        0.0030
     16  C         17.8050  -22.1430   -3.6470 C.2     1  UNL1        0.0440
     17  C         17.5480  -23.0260   -4.6910 C.2     1  UNL1        0.1380
     18  F         16.7530  -24.0850   -4.4760 F       1  UNL1       -0.2040
     19  C         20.7960  -22.5020  -10.9180 C.2     1  UNL1        0.2560
     20  O         21.3560  -23.2220  -10.1010 O.2     1  UNL1       -0.2670
     21  N         21.3600  -21.8930  -12.0230 N.am    1  UNL1       -0.3230
     22  H         20.7890  -21.2210  -12.5180 H       1  UNL1        0.1690
     23  C         22.6850  -22.0280  -12.4880 C.2     1  UNL1        0.0350
     24  C         23.0290  -21.3270  -13.6530 C.2     1  UNL1        0.0310
     25  C         24.3200  -21.4120  -14.1830 C.2     1  UNL1        0.0210
     26  C         25.2740  -22.2030  -13.5510 C.2     1  UNL1        0.0110
     27 BR         27.0200  -22.3220  -14.2640 Br      1  UNL1       -0.0510
     28  C         24.9470  -22.9080  -12.3960 C.2     1  UNL1        0.0210
     29  C         23.6540  -22.8210  -11.8670 C.2     1  UNL1        0.0310
@<TRIPOS>BOND
     1    27    26    1
     2    25    24    1
     3    25    26    2
     4    24    23    2
     5    26    28    1
     6    22    21    1
     7    23    21    1
     8    23    29    1
     9    28    29    2
    10    21    19   am
    11     2     3    1
    12     2     1    2
    13     3     4    2
    14    19     1    1
    15    19    20    2
    16     1     6    1
    17     4     5    1
    18     6     5    2
    19     5     7    1
    20     8     7    2
    21     7     9    2
    22     7    10    1
    23    10    11    1
    24    10    12    1
    25    13    12    2
    26    13    14    1
    27    12    17    1
    28    14    15    2
    29    17    18    1
    30    17    16    2
    31    15    16    1
