@<TRIPOS>MOLECULE
33510_out_ligand_01.pdbqt
 30 32 0 0 0
SMALL
GASTEIGER

@<TRIPOS>ATOM
      1  C         19.2280  -22.7050  -10.0960 C.2     1  UNL1        0.0330
      2  C         18.6240  -21.8660  -11.0450 C.2     1  UNL1        0.0170
      3  C         17.2660  -21.5530  -10.9390 C.2     1  UNL1        0.0030
      4  C         16.5110  -22.0620   -9.8830 C.2     1  UNL1        0.0250
      5  C         17.1260  -22.8730   -8.9230 C.2     1  UNL1        0.0750
      6  C         18.4800  -23.2050   -9.0260 C.2     1  UNL1        0.0410
      7  C         20.6740  -23.0530  -10.1730 C.2     1  UNL1        0.2560
      8  N         21.4260  -22.2250  -10.9870 N.am    1  UNL1       -0.3230
      9  H         20.9240  -21.5410  -11.5370 H       1  UNL1        0.1690
     10  O         21.0600  -24.0330   -9.5500 O.2     1  UNL1       -0.2670
     11  C         22.8170  -22.2840  -11.2180 C.2     1  UNL1        0.0350
     12  C         23.6330  -21.4870  -10.4090 C.2     1  UNL1        0.0300
     13  C         25.0210  -21.4930  -10.5710 C.2     1  UNL1        0.0090
     14  C         25.6250  -22.2990  -11.5440 C.2     1  UNL1       -0.0560
     15  C         27.1210  -22.2810  -11.6950 C.3     1  UNL1        0.0490
     16  C         24.8130  -23.1090  -12.3610 C.2     1  UNL1       -0.0540
     17  C         23.4160  -23.0920  -12.1860 C.2     1  UNL1        0.0370
     18  C         25.4060  -23.9960  -13.4230 C.3     1  UNL1        0.0490
     19  S         16.1740  -23.5270   -7.5700 S.O2    1  UNL1        0.2460
     20  O         15.5820  -24.7670   -8.0230 O.2     1  UNL1       -0.2060
     21  O         15.3560  -22.4550   -7.0450 O.2     1  UNL1       -0.2060
     22  N         17.3540  -23.9370   -6.4300 N.pl3   1  UNL1       -0.1780
     23  H         18.1350  -24.4230   -6.8760 H       1  UNL1        0.1460
     24  C         17.7220  -22.9580   -5.4560 C.2     1  UNL1        0.0610
     25  C         18.5600  -21.8930   -5.7830 C.2     1  UNL1        0.0270
     26  C         18.9330  -20.9730   -4.7980 C.2     1  UNL1        0.0020
     27  C         18.4710  -21.1180   -3.4870 C.2     1  UNL1        0.0030
     28  C         17.6330  -22.1820   -3.1570 C.2     1  UNL1        0.0440
     29  C         17.2650  -23.0920   -4.1420 C.2     1  UNL1        0.1380
     30  F         16.4640  -24.1200   -3.8220 F       1  UNL1       -0.2040
@<TRIPOS>BOND
     1    18    16    1
     2    16    17    1
     3    16    14    2
     4    17    11    2
     5    15    14    1
     6    14    13    1
     7     9     8    1
     8    11     8    1
     9    11    12    1
    10     2     3    1
    11     2     1    2
    12     8     7   am
    13     3     4    2
    14    13    12    2
    15     7     1    1
    16     7    10    2
    17     1     6    1
    18     4     5    1
    19     6     5    2
    20     5    19    1
    21    20    19    2
    22    19    21    2
    23    19    22    1
    24    23    22    1
    25    22    24    1
    26    25    24    2
    27    25    26    1
    28    24    29    1
    29    26    27    2
    30    29    30    1
    31    29    28    2
    32    27    28    1
