@<TRIPOS>MOLECULE
33516_out_ligand_01.pdbqt
 31 34 0 0 0
SMALL
GASTEIGER

@<TRIPOS>ATOM
      1  C         19.4400  -22.3100  -10.4430 C.2     1  UNL1        0.0330
      2  C         18.8080  -21.5240  -11.4180 C.2     1  UNL1        0.0170
      3  C         17.4350  -21.2720  -11.3390 C.2     1  UNL1        0.0030
      4  C         16.6870  -21.8060  -10.2890 C.2     1  UNL1        0.0250
      5  C         17.3200  -22.5950   -9.3230 C.2     1  UNL1        0.0800
      6  C         18.6880  -22.8680   -9.4040 C.2     1  UNL1        0.0420
      7  C         20.9020  -22.6010  -10.4960 C.2     1  UNL1        0.2560
      8  O         21.3210  -23.5580   -9.8590 O.2     1  UNL1       -0.2670
      9  N         21.6470  -21.7090  -11.2440 N.am    1  UNL1       -0.3230
     10  H         21.1700  -20.8910  -11.5960 H       1  UNL1        0.1690
     11  C         23.0350  -21.7570  -11.5000 C.2     1  UNL1        0.0370
     12  C         24.0200  -21.6490  -10.4990 C.2     1  UNL1        0.0320
     13  C         25.3840  -21.7090  -10.8160 C.2     1  UNL1        0.0420
     14  C         25.7310  -21.8820  -12.1360 C.2     1  UNL1        0.1050
     15  C         24.7790  -21.9930  -13.1190 C.2     1  UNL1        0.1070
     16  O         26.9960  -21.9640  -12.6260 O.2     1  UNL1       -0.3230
     17  C         23.4290  -21.9360  -12.8350 C.2     1  UNL1        0.0690
     18  O         25.3230  -22.1600  -14.3540 O.2     1  UNL1       -0.3230
     19  C         26.7300  -22.1380  -14.0330 C.3     1  UNL1        0.3520
     20  S         16.3720  -23.2920   -7.9880 S.O2    1  UNL1        0.2630
     21  O         15.7780  -24.5180   -8.4730 O.2     1  UNL1       -0.2000
     22  O         15.5610  -22.2380   -7.4170 O.2     1  UNL1       -0.2000
     23  N         17.5610  -23.7400   -6.8700 N.pl3   1  UNL1       -0.2780
     24  H         18.3530  -24.1830   -7.3400 H       1  UNL1        0.1790
     25  C         17.8940  -22.8170   -5.8310 C.2     1  UNL1        0.0810
     26  C         18.7470  -21.7410   -6.0730 C.2     1  UNL1        0.0330
     27  C         19.0840  -20.8750   -5.0290 C.2     1  UNL1        0.0020
     28  C         18.5720  -21.0830   -3.7450 C.2     1  UNL1        0.0030
     29  C         17.7200  -22.1600   -3.5020 C.2     1  UNL1        0.0440
     30  C         17.3890  -23.0180   -4.5440 C.2     1  UNL1        0.1430
     31  F         16.5810  -24.0620   -4.3030 F       1  UNL1       -0.2040
@<TRIPOS>BOND
     1    18    19    1
     2    18    15    1
     3    19    16    1
     4    15    17    1
     5    15    14    2
     6    17    11    2
     7    16    14    1
     8    14    13    1
     9    10     9    1
    10    11     9    1
    11    11    12    1
    12     2     3    1
    13     2     1    2
    14     3     4    2
    15     9     7   am
    16    13    12    2
    17     7     1    1
    18     7     8    2
    19     1     6    1
    20     4     5    1
    21     6     5    2
    22     5    20    1
    23    21    20    2
    24    20    22    2
    25    20    23    1
    26    24    23    1
    27    23    25    1
    28    26    25    2
    29    26    27    1
    30    25    30    1
    31    27    28    2
    32    30    31    1
    33    30    29    2
    34    28    29    1
