@<TRIPOS>MOLECULE
33512_out_ligand_01.pdbqt
 29 31 0 0 0
SMALL
GASTEIGER

@<TRIPOS>ATOM
      1  C         19.7740  -22.4250  -10.4740 C.2     1  UNL1        0.0330
      2  C         19.2430  -21.6110  -11.4850 C.2     1  UNL1        0.0170
      3  C         17.8870  -21.2720  -11.4720 C.2     1  UNL1        0.0030
      4  C         17.0560  -21.7540  -10.4600 C.2     1  UNL1        0.0250
      5  C         17.5850  -22.5910   -9.4720 C.2     1  UNL1        0.0750
      6  C         18.9420  -22.9240   -9.4670 C.2     1  UNL1        0.0410
      7  S         16.5340  -23.2110   -8.1780 S.O2    1  UNL1        0.2460
      8  O         15.8130  -24.3520   -8.7000 O.2     1  UNL1       -0.2060
      9  O         15.8330  -22.0770   -7.6160 O.2     1  UNL1       -0.2060
     10  N         17.6330  -23.7350   -7.0050 N.pl3   1  UNL1       -0.1780
     11  H         17.4290  -24.6960   -6.7200 H       1  UNL1        0.1460
     12  C         17.9620  -22.8400   -5.9400 C.2     1  UNL1        0.0610
     13  C         18.8420  -21.7780   -6.1340 C.2     1  UNL1        0.0270
     14  C         19.1150  -20.8990   -5.0830 C.2     1  UNL1        0.0020
     15  C         18.5070  -21.0790   -3.8370 C.2     1  UNL1        0.0030
     16  C         17.6260  -22.1420   -3.6390 C.2     1  UNL1        0.0440
     17  C         17.3600  -23.0130   -4.6890 C.2     1  UNL1        0.1380
     18  F         16.5080  -24.0310   -4.5000 F       1  UNL1       -0.2040
     19  C         21.2120  -22.8110  -10.4610 C.2     1  UNL1        0.2560
     20  O         21.5500  -23.7370   -9.7350 O.2     1  UNL1       -0.2670
     21  N         22.0280  -22.0370  -11.2650 N.am    1  UNL1       -0.3230
     22  H         21.6100  -21.2220  -11.6940 H       1  UNL1        0.1690
     23  C         23.4140  -22.1980  -11.4810 C.2     1  UNL1        0.0360
     24  C         24.2770  -21.4730  -10.6470 C.2     1  UNL1        0.0290
     25  C         25.6630  -21.5680  -10.7960 C.2     1  UNL1        0.0040
     26  C         26.2010  -22.3880  -11.7840 C.2     1  UNL1        0.0190
     27  C         25.3470  -23.1060  -12.6170 C.2     1  UNL1        0.0130
     28 BR         26.0800  -24.2160  -13.9630 Br      1  UNL1       -0.0510
     29  C         23.9600  -23.0150  -12.4730 C.2     1  UNL1        0.0480
@<TRIPOS>BOND
     1    28    27    1
     2    27    29    1
     3    27    26    2
     4    29    23    2
     5    26    25    1
     6    22    21    1
     7     2     3    1
     8     2     1    2
     9    23    21    1
    10    23    24    1
    11     3     4    2
    12    21    19   am
    13    25    24    2
    14     1    19    1
    15     1     6    1
    16    19    20    2
    17     4     5    1
    18     5     6    2
    19     5     7    1
    20     8     7    2
    21     7     9    2
    22     7    10    1
    23    10    11    1
    24    10    12    1
    25    13    12    2
    26    13    14    1
    27    12    17    1
    28    14    15    2
    29    17    18    1
    30    17    16    2
    31    15    16    1
