@<TRIPOS>MOLECULE
33517_out_ligand_01.pdbqt
 31 33 0 0 0
SMALL
GASTEIGER

@<TRIPOS>ATOM
      1  N         26.8620  -23.6960  -15.9530 N.1     1  UNL1       -0.1970
      2  C         26.7120  -22.9220  -15.1010 C.1     1  UNL1        0.0630
      3  C         26.5530  -21.9450  -14.0130 C.3     1  UNL1        0.1620
      4  C         25.1510  -21.9110  -13.4560 C.2     1  UNL1       -0.0450
      5  C         24.0940  -21.3840  -14.2090 C.2     1  UNL1        0.0100
      6  C         22.7990  -21.3410  -13.6820 C.2     1  UNL1        0.0300
      7  C         22.5320  -21.8220  -12.3940 C.2     1  UNL1        0.0350
      8  C         23.5840  -22.3470  -11.6440 C.2     1  UNL1        0.0300
      9  C         24.8830  -22.3880  -12.1660 C.2     1  UNL1        0.0100
     10  N         21.1980  -21.7450  -11.9400 N.am    1  UNL1       -0.3230
     11  C         20.6230  -22.4640  -10.9080 C.2     1  UNL1        0.2560
     12  O         21.1810  -23.2590  -10.1630 O.2     1  UNL1       -0.2670
     13  H         20.6310  -21.0350  -12.3810 H       1  UNL1        0.1690
     14  C         19.1760  -22.1860  -10.6780 C.2     1  UNL1        0.0330
     15  C         18.4430  -21.3350  -11.5180 C.2     1  UNL1        0.0170
     16  C         17.0870  -21.0990  -11.2720 C.2     1  UNL1        0.0030
     17  C         16.4560  -21.7130  -10.1900 C.2     1  UNL1        0.0250
     18  C         17.1880  -22.5680   -9.3600 C.2     1  UNL1        0.0800
     19  C         18.5390  -22.8240   -9.6070 C.2     1  UNL1        0.0420
     20  S         16.3880  -23.3700   -7.9870 S.O2    1  UNL1        0.2630
     21  O         15.5310  -22.3990   -7.3410 O.2     1  UNL1       -0.2000
     22  O         15.8660  -24.6310   -8.4680 O.2     1  UNL1       -0.2000
     23  N         17.6780  -23.7420   -6.9590 N.pl3   1  UNL1       -0.2780
     24  H         18.4730  -24.1060   -7.4880 H       1  UNL1        0.1790
     25  C         17.9990  -22.8190   -5.9150 C.2     1  UNL1        0.0810
     26  C         18.8490  -21.7390   -6.1460 C.2     1  UNL1        0.0330
     27  C         19.1740  -20.8740   -5.0960 C.2     1  UNL1        0.0020
     28  C         18.6510  -21.0880   -3.8180 C.2     1  UNL1        0.0030
     29  C         17.8030  -22.1690   -3.5840 C.2     1  UNL1        0.0440
     30  C         17.4840  -23.0260   -4.6320 C.2     1  UNL1        0.1430
     31  F         16.6790  -24.0750   -4.4010 F       1  UNL1       -0.2040
@<TRIPOS>BOND
     1     1     2    3
     2     2     3    1
     3     5     6    1
     4     5     4    2
     5     3     4    1
     6     6     7    2
     7     4     9    1
     8     7    10    1
     9     7     8    1
    10    13    10    1
    11     9     8    2
    12    10    11   am
    13    15    16    1
    14    15    14    2
    15    16    17    2
    16    11    14    1
    17    11    12    2
    18    14    19    1
    19    17    18    1
    20    19    18    2
    21    18    20    1
    22    22    20    2
    23    20    21    2
    24    20    23    1
    25    24    23    1
    26    23    25    1
    27    26    25    2
    28    26    27    1
    29    25    30    1
    30    27    28    2
    31    30    31    1
    32    30    29    2
    33    28    29    1
