@<TRIPOS>MOLECULE
33511_out_ligand_01.pdbqt
 29 31 0 0 0
SMALL
GASTEIGER

@<TRIPOS>ATOM
      1  C         19.8710  -22.4040  -10.4970 C.2     1  UNL1        0.0330
      2  C         19.3590  -21.6040  -11.5300 C.2     1  UNL1        0.0170
      3  C         18.0050  -21.2570  -11.5420 C.2     1  UNL1        0.0030
      4  C         17.1570  -21.7170  -10.5360 C.2     1  UNL1        0.0250
      5  C         17.6660  -22.5400   -9.5260 C.2     1  UNL1        0.0750
      6  C         19.0200  -22.8810   -9.4950 C.2     1  UNL1        0.0410
      7  S         16.5930  -23.1330   -8.2370 S.O2    1  UNL1        0.2460
      8  O         15.9180  -21.9810   -7.6790 O.2     1  UNL1       -0.2060
      9  O         15.8430  -24.2530   -8.7650 O.2     1  UNL1       -0.2060
     10  N         17.6710  -23.6880   -7.0600 N.pl3   1  UNL1       -0.1780
     11  H         17.4560  -24.6520   -6.7960 H       1  UNL1        0.1460
     12  C         17.9930  -22.8150   -5.9730 C.2     1  UNL1        0.0610
     13  C         18.8590  -21.7380   -6.1450 C.2     1  UNL1        0.0270
     14  C         19.1250  -20.8820   -5.0720 C.2     1  UNL1        0.0020
     15  C         18.5250  -21.1010   -3.8300 C.2     1  UNL1        0.0030
     16  C         17.6570  -22.1800   -3.6550 C.2     1  UNL1        0.0440
     17  C         17.3990  -23.0280   -4.7260 C.2     1  UNL1        0.1380
     18  F         16.5580  -24.0590   -4.5590 F       1  UNL1       -0.2040
     19  C         21.3060  -22.7980  -10.4570 C.2     1  UNL1        0.2560
     20  O         21.6320  -23.6990   -9.6940 O.2     1  UNL1       -0.2670
     21  N         22.1350  -22.0610  -11.2800 N.am    1  UNL1       -0.3230
     22  H         21.7260  -21.2590  -11.7430 H       1  UNL1        0.1690
     23  C         23.5220  -22.2380  -11.4750 C.2     1  UNL1        0.0360
     24  C         24.3810  -21.4680  -10.6770 C.2     1  UNL1        0.0290
     25  C         25.7680  -21.5760  -10.8080 C.2     1  UNL1        0.0040
     26  C         26.3100  -22.4530  -11.7430 C.2     1  UNL1        0.0240
     27  C         25.4610  -23.2180  -12.5400 C.2     1  UNL1        0.0360
     28 CL         26.1350  -24.2980  -13.7000 Cl      1  UNL1       -0.0840
     29  C         24.0730  -23.1140  -12.4120 C.2     1  UNL1        0.0530
@<TRIPOS>BOND
     1    28    27    1
     2    27    29    1
     3    27    26    2
     4    29    23    2
     5    26    25    1
     6    22    21    1
     7     3     2    1
     8     3     4    2
     9     2     1    2
    10    23    21    1
    11    23    24    1
    12    21    19   am
    13    25    24    2
    14     4     5    1
    15     1    19    1
    16     1     6    1
    17    19    20    2
    18     5     6    2
    19     5     7    1
    20     9     7    2
    21     7     8    2
    22     7    10    1
    23    10    11    1
    24    10    12    1
    25    13    12    2
    26    13    14    1
    27    12    17    1
    28    14    15    2
    29    17    18    1
    30    17    16    2
    31    15    16    1
