@<TRIPOS>MOLECULE
33518_out_ligand_01.pdbqt
 29 31 0 0 0
SMALL
GASTEIGER

@<TRIPOS>ATOM
      1  C         19.7070  -22.4720  -10.4690 C.2     1  UNL1        0.0330
      2  C         19.1760  -21.6310  -11.4590 C.2     1  UNL1        0.0170
      3  C         17.8200  -21.2950  -11.4390 C.2     1  UNL1        0.0030
      4  C         16.9930  -21.7830  -10.4290 C.2     1  UNL1        0.0250
      5  C         17.5340  -22.5960   -9.4270 C.2     1  UNL1        0.0750
      6  C         18.8850  -22.9510   -9.4450 C.2     1  UNL1        0.0410
      7  S         16.4880  -23.2240   -8.1320 S.O2    1  UNL1        0.2460
      8  O         15.8540  -24.4210   -8.6370 O.2     1  UNL1       -0.2060
      9  O         15.7040  -22.1210   -7.6190 O.2     1  UNL1       -0.2060
     10  N         17.5930  -23.7200   -6.9510 N.pl3   1  UNL1       -0.1780
     11  H         18.4000  -24.1770   -7.3790 H       1  UNL1        0.1460
     12  C         17.8980  -22.8130   -5.8870 C.2     1  UNL1        0.0610
     13  C         18.7770  -21.7490   -6.0770 C.2     1  UNL1        0.0270
     14  C         19.0850  -20.9040   -5.0070 C.2     1  UNL1        0.0020
     15  C         18.5150  -21.1210   -3.7490 C.2     1  UNL1        0.0030
     16  C         17.6340  -22.1850   -3.5580 C.2     1  UNL1        0.0440
     17  C         17.3320  -23.0220   -4.6270 C.2     1  UNL1        0.1380
     18  F         16.4920  -24.0500   -4.4390 F       1  UNL1       -0.2040
     19  C         21.1480  -22.8470  -10.4550 C.2     1  UNL1        0.2560
     20  O         21.5140  -23.6880   -9.6440 O.2     1  UNL1       -0.2670
     21  N         21.9240  -22.2090  -11.4050 N.am    1  UNL1       -0.3230
     22  H         21.4390  -21.6390  -12.0870 H       1  UNL1        0.1690
     23  C         23.3160  -22.3370  -11.5970 C.2     1  UNL1        0.0370
     24  C         23.9070  -23.3180  -12.4000 C.2     1  UNL1        0.0290
     25  C         25.2990  -23.3860  -12.5370 C.2     1  UNL1        0.0050
     26  C         26.1120  -22.4750  -11.8680 C.2     1  UNL1        0.0420
     27  C         25.5240  -21.5060  -11.0690 C.2     1  UNL1        0.1180
     28  F         26.3010  -20.6280  -10.4200 F       1  UNL1       -0.2060
     29  C         24.1410  -21.4290  -10.9260 C.2     1  UNL1        0.0710
@<TRIPOS>BOND
     1    25    24    1
     2    25    26    2
     3    24    23    2
     4    22    21    1
     5    26    27    1
     6    23    21    1
     7    23    29    1
     8     2     3    1
     9     2     1    2
    10     3     4    2
    11    21    19   am
    12    27    29    2
    13    27    28    1
    14     1    19    1
    15     1     6    1
    16    19    20    2
    17     4     5    1
    18     6     5    2
    19     5     7    1
    20     8     7    2
    21     7     9    2
    22     7    10    1
    23    11    10    1
    24    10    12    1
    25    13    12    2
    26    13    14    1
    27    12    17    1
    28    14    15    2
    29    17    18    1
    30    17    16    2
    31    15    16    1
