@<TRIPOS>MOLECULE
33525_out_ligand_01.pdbqt
 32 34 0 0 0
SMALL
GASTEIGER

@<TRIPOS>ATOM
      1  C         17.5880  -22.4090  -10.0270 C.2     1  UNL1        0.0750
      2  C         17.1780  -21.4300  -10.9380 C.2     1  UNL1        0.0250
      3  C         18.1180  -20.8300  -11.7740 C.2     1  UNL1        0.0030
      4  C         19.4630  -21.2040  -11.6970 C.2     1  UNL1        0.0170
      5  C         19.8730  -22.1780  -10.7740 C.2     1  UNL1        0.0330
      6  C         18.9280  -22.7980   -9.9470 C.2     1  UNL1        0.0410
      7  C         21.2980  -22.6070  -10.6660 C.2     1  UNL1        0.2560
      8  O         21.5630  -23.5400   -9.9190 O.2     1  UNL1       -0.2670
      9  N         22.1930  -21.8560  -11.4080 N.am    1  UNL1       -0.3230
     10  H         21.8320  -21.0300  -11.8650 H       1  UNL1        0.1690
     11  C         23.5840  -22.0620  -11.5290 C.2     1  UNL1        0.0350
     12  C         24.5370  -21.4750  -10.6970 C.2     1  UNL1        0.0290
     13  C         25.8980  -21.7400  -10.8750 C.2     1  UNL1        0.0030
     14  C         26.3200  -22.5960  -11.8900 C.2     1  UNL1        0.0160
     15  C         25.3830  -23.1930  -12.7420 C.2     1  UNL1        0.0500
     16  C         24.0160  -22.9250  -12.5450 C.2     1  UNL1        0.0450
     17  C         25.8230  -24.1410  -13.8300 C.3     1  UNL1        0.4170
     18  F         26.1150  -23.5040  -14.9990 F       1  UNL1       -0.1660
     19  F         24.8620  -25.0560  -14.1360 F       1  UNL1       -0.1660
     20  F         26.9360  -24.8560  -13.5090 F       1  UNL1       -0.1660
     21  S         16.3690  -23.1890   -8.9940 S.O2    1  UNL1        0.2450
     22  O         15.6700  -24.1750   -9.7900 O.2     1  UNL1       -0.2060
     23  O         15.6780  -22.1360   -8.2830 O.2     1  UNL1       -0.2060
     24  N         17.3870  -24.0550   -7.9310 N.pl3   1  UNL1       -0.1810
     25  H         16.9050  -24.9290   -7.7120 H       1  UNL1        0.1460
     26  C         17.6940  -23.3470   -6.7220 C.2     1  UNL1        0.0220
     27  C         18.6660  -22.3490   -6.7390 C.2     1  UNL1        0.0250
     28  C         18.9400  -21.6240   -5.5760 C.2     1  UNL1        0.0080
     29  C         18.2420  -21.8920   -4.3920 C.2     1  UNL1       -0.0620
     30  C         18.5070  -21.0890   -3.1530 C.3     1  UNL1        0.0480
     31  C         17.2420  -22.8750   -4.3960 C.2     1  UNL1        0.0080
     32  C         16.9670  -23.5990   -5.5580 C.2     1  UNL1        0.0250
@<TRIPOS>BOND
     1    18    17    1
     2    19    17    1
     3    17    20    1
     4    17    15    1
     5    15    16    1
     6    15    14    2
     7    16    11    2
     8    14    13    1
     9    10     9    1
    10     3     4    2
    11     3     2    1
    12     4     5    1
    13    11     9    1
    14    11    12    1
    15     9     7   am
    16     2     1    2
    17    13    12    2
    18     5     7    1
    19     5     6    2
    20     7     8    2
    21     1     6    1
    22     1    21    1
    23    22    21    2
    24    21    23    2
    25    21    24    1
    26    24    25    1
    27    24    26    1
    28    27    26    2
    29    27    28    1
    30    26    32    1
    31    28    29    2
    32    32    31    2
    33    31    29    1
    34    29    30    1
