@<TRIPOS>MOLECULE
33520_out_ligand_01.pdbqt
 30 32 0 0 0
SMALL
GASTEIGER

@<TRIPOS>ATOM
      1  C         19.4460  -22.2950  -10.4610 C.2     1  UNL1        0.0330
      2  C         18.8020  -21.5140  -11.4330 C.2     1  UNL1        0.0170
      3  C         17.4310  -21.2630  -11.3340 C.2     1  UNL1        0.0030
      4  C         16.6960  -21.8010  -10.2780 C.2     1  UNL1        0.0250
      5  C         17.3370  -22.6040   -9.3280 C.2     1  UNL1        0.0750
      6  C         18.7130  -22.8440   -9.4050 C.2     1  UNL1        0.0410
      7  C         20.8990  -22.5980  -10.5470 C.2     1  UNL1        0.2560
      8  O         21.3310  -23.5430   -9.9010 O.2     1  UNL1       -0.2670
      9  N         21.6250  -21.7340  -11.3480 N.am    1  UNL1       -0.3230
     10  H         21.1330  -20.9250  -11.7080 H       1  UNL1        0.1690
     11  C         23.0030  -21.8020  -11.6440 C.2     1  UNL1        0.0360
     12  C         23.8930  -21.6050  -10.5780 C.2     1  UNL1        0.0320
     13  C         25.2730  -21.6490  -10.7850 C.2     1  UNL1        0.0460
     14  C         25.7690  -21.8880  -12.0610 C.2     1  UNL1        0.1380
     15  F         27.0980  -21.9250  -12.2390 F       1  UNL1       -0.2040
     16  C         24.8990  -22.0810  -13.1290 C.2     1  UNL1        0.0740
     17 CL         25.5120  -22.3710  -14.7130 Cl      1  UNL1       -0.0810
     18  C         23.5160  -22.0380  -12.9230 C.2     1  UNL1        0.0560
     19  S         16.3980  -23.2900   -7.9800 S.O2    1  UNL1        0.2460
     20  O         15.5760  -22.2330   -7.4310 O.2     1  UNL1       -0.2060
     21  O         15.8080  -24.5250   -8.4540 O.2     1  UNL1       -0.2060
     22  N         17.5840  -23.7290   -6.8590 N.pl3   1  UNL1       -0.1780
     23  H         18.3920  -24.1430   -7.3260 H       1  UNL1        0.1460
     24  C         17.8900  -22.8100   -5.8060 C.2     1  UNL1        0.0610
     25  C         18.7260  -21.7180   -6.0280 C.2     1  UNL1        0.0270
     26  C         19.0600  -20.8740   -4.9650 C.2     1  UNL1        0.0020
     27  C         18.5580  -21.1200   -3.6840 C.2     1  UNL1        0.0030
     28  C         17.7170  -22.2100   -3.4620 C.2     1  UNL1        0.0440
     29  C         17.3910  -23.0480   -4.5230 C.2     1  UNL1        0.1380
     30  F         16.5990  -24.1080   -4.3050 F       1  UNL1       -0.2040
@<TRIPOS>BOND
     1    17    16    1
     2    16    18    1
     3    16    14    2
     4    18    11    2
     5    15    14    1
     6    14    13    1
     7    10     9    1
     8    11     9    1
     9    11    12    1
    10     2     3    1
    11     2     1    2
    12     9     7   am
    13     3     4    2
    14    13    12    2
    15     7     1    1
    16     7     8    2
    17     1     6    1
    18     4     5    1
    19     6     5    2
    20     5    19    1
    21    21    19    2
    22    19    20    2
    23    19    22    1
    24    23    22    1
    25    22    24    1
    26    25    24    2
    27    25    26    1
    28    24    29    1
    29    26    27    2
    30    29    30    1
    31    29    28    2
    32    27    28    1
