@<TRIPOS>MOLECULE
33521_out_ligand_01.pdbqt
 32 35 0 0 0
SMALL
GASTEIGER

@<TRIPOS>ATOM
      1  C         21.3750  -21.9930  -10.6820 C.2     1  UNL1        0.0800
      2  C         21.2330  -21.2810  -11.8780 C.2     1  UNL1        0.0250
      3  C         19.9610  -20.9110  -12.3160 C.2     1  UNL1        0.0030
      4  C         18.8360  -21.2630  -11.5670 C.2     1  UNL1        0.0170
      5  C         18.9820  -21.9990  -10.3820 C.2     1  UNL1        0.0330
      6  C         20.2540  -22.3660   -9.9350 C.2     1  UNL1        0.0420
      7  C         17.8010  -22.3650   -9.5550 C.2     1  UNL1        0.2560
      8  O         16.7110  -22.4100  -10.1080 O.2     1  UNL1       -0.2670
      9  N         18.0890  -22.5910   -8.2220 N.am    1  UNL1       -0.3220
     10  H         19.0290  -22.3740   -7.9340 H       1  UNL1        0.1690
     11  C         17.2020  -23.0090   -7.1920 C.2     1  UNL1        0.0460
     12  C         16.1470  -23.8890   -7.4610 C.2     1  UNL1        0.0300
     13  C         15.2880  -24.3110   -6.4500 C.2     1  UNL1        0.0030
     14  C         15.4710  -23.8590   -5.1500 C.2     1  UNL1        0.0120
     15  C         16.5150  -22.9810   -4.8370 C.2     1  UNL1       -0.0240
     16  C         16.6700  -22.5460   -3.5100 C.2     1  UNL1        0.0120
     17  C         17.4040  -22.5340   -5.8540 C.2     1  UNL1        0.0010
     18  C         17.6920  -21.6700   -3.1530 C.2     1  UNL1        0.0010
     19  C         18.5710  -21.2160   -4.1220 C.2     1  UNL1        0.0010
     20  C         18.4300  -21.6390   -5.4480 C.2     1  UNL1        0.0140
     21  S         22.9930  -22.4820  -10.1380 S.O2    1  UNL1        0.2630
     22  O         23.7930  -21.2950   -9.9380 O.2     1  UNL1       -0.2000
     23  O         22.8130  -23.4400   -9.0650 O.2     1  UNL1       -0.2000
     24  N         23.5800  -23.3680  -11.4520 N.pl3   1  UNL1       -0.2810
     25  H         23.8370  -24.3100  -11.1590 H       1  UNL1        0.1790
     26  C         24.4610  -22.7120  -12.3540 C.2     1  UNL1        0.0420
     27  C         23.9580  -21.8090  -13.2890 C.2     1  UNL1        0.0300
     28  C         24.8220  -21.2030  -14.2030 C.2     1  UNL1        0.0090
     29  C         26.1880  -21.5090  -14.2000 C.2     1  UNL1       -0.0620
     30  C         27.1210  -20.8450  -15.1690 C.3     1  UNL1        0.0480
     31  C         26.6830  -22.4120  -13.2490 C.2     1  UNL1        0.0090
     32  C         25.8210  -23.0150  -12.3310 C.2     1  UNL1        0.0300
@<TRIPOS>BOND
     1    30    29    1
     2    28    29    2
     3    28    27    1
     4    29    31    1
     5    27    26    2
     6    31    32    2
     7    26    32    1
     8    26    24    1
     9     3     2    1
    10     3     4    2
    11     2     1    2
    12     4     5    1
    13    24    25    1
    14    24    21    1
    15     1    21    1
    16     1     6    1
    17     5     6    2
    18     5     7    1
    19    21    22    2
    20    21    23    2
    21     8     7    2
    22     7     9   am
    23     9    10    1
    24     9    11    1
    25    12    11    2
    26    12    13    1
    27    11    17    1
    28    13    14    2
    29    17    20    1
    30    17    15    2
    31    20    19    2
    32    14    15    1
    33    15    16    1
    34    19    18    1
    35    16    18    2
