@<TRIPOS>MOLECULE
33536_out_ligand_01.pdbqt
 32 34 0 0 0
SMALL
GASTEIGER

@<TRIPOS>ATOM
      1  C         18.3020  -21.9940  -10.2680 C.2     1  UNL1        0.0330
      2  C         18.2430  -21.1890  -11.4150 C.2     1  UNL1        0.0170
      3  C         19.4190  -20.7480  -12.0280 C.2     1  UNL1        0.0030
      4  C         20.6600  -21.1090  -11.5030 C.2     1  UNL1        0.0250
      5  C         20.7160  -21.9090  -10.3580 C.2     1  UNL1        0.0800
      6  C         19.5460  -22.3380   -9.7250 C.2     1  UNL1        0.0420
      7  C         17.0750  -22.4890   -9.5840 C.2     1  UNL1        0.2520
      8  N         17.2330  -22.9490   -8.2970 N.am    1  UNL1       -0.3490
      9  H         18.1040  -22.7910   -7.8100 H       1  UNL1        0.1630
     10  O         15.9930  -22.4370  -10.1580 O.2     1  UNL1       -0.2680
     11  C         16.1010  -23.3890   -7.4960 C.3     1  UNL1        0.1140
     12  C         15.8410  -24.8880   -7.6890 C.3     1  UNL1        0.0370
     13  C         16.3390  -22.9820   -6.0440 C.2     1  UNL1       -0.0290
     14  C         15.4120  -23.3130   -5.0280 C.2     1  UNL1       -0.0540
     15  C         15.6610  -22.9090   -3.7070 C.2     1  UNL1        0.0080
     16  C         14.1650  -24.1090   -5.3120 C.3     1  UNL1        0.0490
     17  C         16.7930  -22.1600   -3.3850 C.2     1  UNL1        0.0070
     18  C         17.6940  -21.7870   -4.3810 C.2     1  UNL1       -0.0610
     19  C         18.9250  -21.0010   -4.0390 C.3     1  UNL1        0.0480
     20  C         17.4640  -22.2050   -5.6980 C.2     1  UNL1        0.0160
     21  S         22.2910  -22.3730   -9.6760 S.O2    1  UNL1        0.2630
     22  O         23.0550  -21.1650   -9.4510 O.2     1  UNL1       -0.2000
     23  O         22.0390  -23.3120   -8.6030 O.2     1  UNL1       -0.2000
     24  N         23.0060  -23.2530  -10.9300 N.pl3   1  UNL1       -0.2780
     25  H         22.3110  -23.5130  -11.6330 H       1  UNL1        0.1790
     26  C         24.2630  -22.8030  -11.4420 C.2     1  UNL1        0.0810
     27  C         25.4490  -23.0360  -10.7460 C.2     1  UNL1        0.0330
     28  C         26.6570  -22.5500  -11.2530 C.2     1  UNL1        0.0020
     29  C         26.6820  -21.8320  -12.4520 C.2     1  UNL1        0.0030
     30  C         25.4980  -21.5970  -13.1480 C.2     1  UNL1        0.0440
     31  C         24.2980  -22.0840  -12.6390 C.2     1  UNL1        0.1430
     32  F         23.1580  -21.8470  -13.3070 F       1  UNL1       -0.2040
@<TRIPOS>BOND
     1    32    31    1
     2    30    31    1
     3    30    29    2
     4    31    26    2
     5    29    28    1
     6     3     4    2
     7     3     2    1
     8    25    24    1
     9     4     5    1
    10    26    24    1
    11    26    27    1
    12     2     1    2
    13    28    27    2
    14    24    21    1
    15     5     6    2
    16     5    21    1
    17     1     6    1
    18     1     7    1
    19    10     7    2
    20    21    22    2
    21    21    23    2
    22     7     8   am
    23     8     9    1
    24     8    11    1
    25    12    11    1
    26    11    13    1
    27    13    20    2
    28    13    14    1
    29    20    18    1
    30    16    14    1
    31    14    15    2
    32    18    19    1
    33    18    17    2
    34    15    17    1
