@<TRIPOS>MOLECULE
33539_out_ligand_01.pdbqt
 30 32 0 0 0
SMALL
GASTEIGER

@<TRIPOS>ATOM
      1  C         19.4090  -22.0090  -10.9330 C.2     1  UNL1        0.0330
      2  C         18.8050  -21.0210  -11.7240 C.2     1  UNL1        0.0170
      3  C         17.4470  -20.7280  -11.5670 C.2     1  UNL1        0.0030
      4  C         16.6890  -21.4150  -10.6190 C.2     1  UNL1        0.0250
      5  C         17.2940  -22.4000   -9.8330 C.2     1  UNL1        0.0800
      6  C         18.6450  -22.7180  -10.0000 C.2     1  UNL1        0.0420
      7  C         20.8520  -22.3540  -11.0780 C.2     1  UNL1        0.2560
      8  N         21.5240  -21.6320  -12.0460 N.am    1  UNL1       -0.3230
      9  H         21.0240  -20.8740  -12.4900 H       1  UNL1        0.1690
     10  O         21.3180  -23.1990  -10.3260 O.2     1  UNL1       -0.2670
     11  C         22.8760  -21.7670  -12.4300 C.2     1  UNL1        0.0350
     12  C         23.1830  -21.5430  -13.7740 C.2     1  UNL1        0.0300
     13  C         24.4970  -21.6610  -14.2350 C.2     1  UNL1        0.0090
     14  C         25.5350  -22.0100  -13.3610 C.2     1  UNL1       -0.0560
     15  C         26.9380  -22.1270  -13.8880 C.3     1  UNL1        0.0490
     16  C         25.2360  -22.2420  -12.0050 C.2     1  UNL1       -0.0540
     17  C         23.9070  -22.1190  -11.5560 C.2     1  UNL1        0.0370
     18  C         26.3080  -22.6220  -11.0200 C.3     1  UNL1        0.0490
     19  S         16.3190  -23.2870   -8.6380 S.O2    1  UNL1        0.2630
     20  O         15.5120  -22.3140   -7.9320 O.2     1  UNL1       -0.2000
     21  O         15.7170  -24.4250   -9.2970 O.2     1  UNL1       -0.2000
     22  N         17.4750  -23.8210   -7.5310 N.pl3   1  UNL1       -0.2810
     23  H         17.4600  -24.8320   -7.4140 H       1  UNL1        0.1790
     24  C         17.8330  -23.0120   -6.4200 C.2     1  UNL1        0.0420
     25  C         18.7640  -21.9770   -6.5420 C.2     1  UNL1        0.0330
     26  C         19.0730  -21.1840   -5.4340 C.2     1  UNL1        0.0440
     27  C         18.4570  -21.4380   -4.2150 C.2     1  UNL1        0.1160
     28  F         18.7530  -20.6790   -3.1530 F       1  UNL1       -0.2060
     29  C         17.5380  -22.4720   -4.0800 C.2     1  UNL1        0.0440
     30  C         17.2260  -23.2660   -5.1870 C.2     1  UNL1        0.0330
@<TRIPOS>BOND
     1    13    12    1
     2    13    14    2
     3    15    14    1
     4    12    11    2
     5    14    16    1
     6     9     8    1
     7    11     8    1
     8    11    17    1
     9     8     7   am
    10    16    17    2
    11    16    18    1
    12     2     3    1
    13     2     1    2
    14     3     4    2
    15     7     1    1
    16     7    10    2
    17     1     6    1
    18     4     5    1
    19     6     5    2
    20     5    19    1
    21    21    19    2
    22    19    20    2
    23    19    22    1
    24    22    23    1
    25    22    24    1
    26    25    24    2
    27    25    26    1
    28    24    30    1
    29    26    27    2
    30    30    29    2
    31    27    29    1
    32    27    28    1
