@<TRIPOS>MOLECULE
33537_out_ligand_01.pdbqt
 29 31 0 0 0
SMALL
GASTEIGER

@<TRIPOS>ATOM
      1  C         19.8080  -22.2460  -10.7100 C.2     1  UNL1        0.0330
      2  C         19.3660  -21.3540  -11.6980 C.2     1  UNL1        0.0170
      3  C         18.0160  -20.9990  -11.7670 C.2     1  UNL1        0.0030
      4  C         17.1020  -21.5430  -10.8640 C.2     1  UNL1        0.0250
      5  C         17.5450  -22.4490   -9.8970 C.2     1  UNL1        0.0800
      6  C         18.8960  -22.7950   -9.8050 C.2     1  UNL1        0.0420
      7  S         16.3910  -23.1830   -8.7620 S.O2    1  UNL1        0.2630
      8  O         15.7060  -24.2560   -9.4480 O.2     1  UNL1       -0.2000
      9  O         15.6600  -22.0990   -8.1390 O.2     1  UNL1       -0.2000
     10  N         17.3960  -23.8340   -7.5690 N.pl3   1  UNL1       -0.2810
     11  H         17.2170  -24.8260   -7.4220 H       1  UNL1        0.1790
     12  C         17.7380  -23.0430   -6.4380 C.2     1  UNL1        0.0420
     13  C         17.0470  -23.2460   -5.2400 C.2     1  UNL1        0.0330
     14  C         17.3410  -22.4560   -4.1270 C.2     1  UNL1        0.0440
     15  C         18.3210  -21.4750   -4.2210 C.2     1  UNL1        0.1160
     16  F         18.6010  -20.7160   -3.1530 F       1  UNL1       -0.2060
     17  C         19.0160  -21.2690   -5.4080 C.2     1  UNL1        0.0440
     18  C         18.7230  -22.0570   -6.5220 C.2     1  UNL1        0.0330
     19  C         21.2290  -22.6780  -10.6270 C.2     1  UNL1        0.2560
     20  N         22.1120  -21.9130  -11.3640 N.am    1  UNL1       -0.3230
     21  H         21.7450  -21.0790  -11.8030 H       1  UNL1        0.1690
     22  O         21.4890  -23.6350   -9.9090 O.2     1  UNL1       -0.2670
     23  C         23.5020  -22.1100  -11.5050 C.2     1  UNL1        0.0350
     24  C         24.4620  -21.4940  -10.7020 C.2     1  UNL1        0.0290
     25  C         25.8210  -21.7550  -10.8990 C.2     1  UNL1        0.0030
     26  C         26.2330  -22.6300  -11.9020 C.2     1  UNL1        0.0070
     27  C         25.2880  -23.2490  -12.7250 C.2     1  UNL1       -0.0600
     28  C         25.7220  -24.2190  -13.7830 C.3     1  UNL1        0.0480
     29  C         23.9250  -22.9930  -12.5100 C.2     1  UNL1        0.0360
@<TRIPOS>BOND
     1    28    27    1
     2    27    29    1
     3    27    26    2
     4    29    23    2
     5    26    25    1
     6    21    20    1
     7     3     2    1
     8     3     4    2
     9     2     1    2
    10    23    20    1
    11    23    24    1
    12    20    19   am
    13    25    24    2
    14     4     5    1
    15     1    19    1
    16     1     6    1
    17    19    22    2
    18     5     6    2
    19     5     7    1
    20     8     7    2
    21     7     9    2
    22     7    10    1
    23    10    11    1
    24    10    12    1
    25    18    12    2
    26    18    17    1
    27    12    13    1
    28    17    15    2
    29    13    14    2
    30    15    14    1
    31    15    16    1
