@<TRIPOS>MOLECULE
33555_out_ligand_01.pdbqt
 31 33 0 0 0
SMALL
GASTEIGER

@<TRIPOS>ATOM
      1  C         19.7700  -22.4170  -10.4900 C.2     1  UNL1        0.0330
      2  C         19.2220  -21.6100  -11.4980 C.2     1  UNL1        0.0170
      3  C         17.8620  -21.2860  -11.4820 C.2     1  UNL1        0.0030
      4  C         17.0430  -21.7640  -10.4600 C.2     1  UNL1        0.0250
      5  C         17.5920  -22.5640   -9.4520 C.2     1  UNL1        0.0750
      6  C         18.9540  -22.8790   -9.4500 C.2     1  UNL1        0.0410
      7  C         21.2120  -22.7880  -10.4720 C.2     1  UNL1        0.2520
      8  N         22.0370  -22.0850  -11.3210 N.am    1  UNL1       -0.3490
      9  H         21.6430  -21.4570  -12.0070 H       1  UNL1        0.1630
     10  O         21.6010  -23.7030   -9.7550 O.2     1  UNL1       -0.2680
     11  C         23.4550  -22.3880  -11.4380 C.3     1  UNL1        0.1140
     12  C         24.2660  -21.6180  -10.3870 C.3     1  UNL1        0.0370
     13  C         23.8950  -22.1330  -12.8770 C.2     1  UNL1       -0.0300
     14  C         23.2150  -21.1910  -13.6750 C.2     1  UNL1        0.0100
     15  C         23.5840  -20.9630  -15.0000 C.2     1  UNL1        0.0010
     16  C         24.6330  -21.6800  -15.5620 C.2     1  UNL1        0.0010
     17  C         25.3080  -22.6320  -14.8010 C.2     1  UNL1        0.0070
     18  C         24.9450  -22.8790  -13.4660 C.2     1  UNL1       -0.0540
     19  C         25.7070  -23.9280  -12.6980 C.3     1  UNL1        0.0490
     20  S         16.5450  -23.1460   -8.1410 S.O2    1  UNL1        0.2460
     21  O         15.8490  -24.3110   -8.6440 O.2     1  UNL1       -0.2060
     22  O         15.8270  -22.0230   -7.5810 O.2     1  UNL1       -0.2060
     23  N         17.6780  -23.7260   -7.0160 N.pl3   1  UNL1       -0.1780
     24  H         17.3870  -24.6640   -6.7300 H       1  UNL1        0.1460
     25  C         18.0040  -22.8460   -5.9340 C.2     1  UNL1        0.0610
     26  C         18.8680  -21.7720   -6.1370 C.2     1  UNL1        0.0270
     27  C         19.1230  -20.8810   -5.0910 C.2     1  UNL1        0.0020
     28  C         18.5080  -21.0600   -3.8480 C.2     1  UNL1        0.0030
     29  C         17.6390  -22.1310   -3.6460 C.2     1  UNL1        0.0440
     30  C         17.3890  -23.0150   -4.6910 C.2     1  UNL1        0.1380
     31  F         16.5580  -24.0490   -4.4930 F       1  UNL1       -0.2040
@<TRIPOS>BOND
     1    16    15    2
     2    16    17    1
     3    15    14    1
     4    17    18    2
     5    14    13    2
     6    18    13    1
     7    18    19    1
     8    13    11    1
     9     9     8    1
    10     2     3    1
    11     2     1    2
    12     3     4    2
    13    11     8    1
    14    11    12    1
    15     8     7   am
    16     1     7    1
    17     1     6    1
    18     7    10    2
    19     4     5    1
    20     5     6    2
    21     5    20    1
    22    21    20    2
    23    20    22    2
    24    20    23    1
    25    23    24    1
    26    23    25    1
    27    26    25    2
    28    26    27    1
    29    25    30    1
    30    27    28    2
    31    30    31    1
    32    30    29    2
    33    28    29    1
