@<TRIPOS>MOLECULE
33556_out_ligand_01.pdbqt
 32 35 0 0 0
SMALL
GASTEIGER

@<TRIPOS>ATOM
      1  C         19.1380  -22.1660  -10.6760 C.2     1  UNL1        0.0330
      2  C         18.3980  -21.2850  -11.4800 C.2     1  UNL1        0.0170
      3  C         17.0450  -21.0600  -11.2130 C.2     1  UNL1        0.0030
      4  C         16.4250  -21.7070  -10.1450 C.2     1  UNL1        0.0250
      5  C         17.1680  -22.5790   -9.3420 C.2     1  UNL1        0.0800
      6  C         18.5260  -22.7990   -9.5880 C.2     1  UNL1        0.0420
      7  C         20.5840  -22.4320  -10.9280 C.2     1  UNL1        0.2560
      8  O         21.1800  -23.1560  -10.1410 O.2     1  UNL1       -0.2670
      9  N         21.0930  -21.8520  -12.0750 N.am    1  UNL1       -0.3230
     10  H         20.4340  -21.3990  -12.6930 H       1  UNL1        0.1690
     11  C         22.4250  -21.9020  -12.5400 C.2     1  UNL1        0.0370
     12  C         22.7120  -21.2050  -13.7240 C.2     1  UNL1        0.0320
     13  C         24.0040  -21.2030  -14.2570 C.2     1  UNL1        0.0420
     14  C         25.0210  -21.8950  -13.6080 C.2     1  UNL1        0.1020
     15  C         24.7520  -22.5640  -12.4110 C.2     1  UNL1        0.1040
     16  O         26.2590  -21.8680  -14.1960 O.2     1  UNL1       -0.3460
     17  C         23.4570  -22.5790  -11.8860 C.2     1  UNL1        0.0690
     18  O         25.7140  -23.2350  -11.6980 O.2     1  UNL1       -0.3460
     19  C         27.0320  -22.8710  -12.1240 C.3     1  UNL1        0.2020
     20  C         27.1210  -22.8680  -13.6400 C.3     1  UNL1        0.2020
     21  S         16.3900  -23.3990   -7.9680 S.O2    1  UNL1        0.2630
     22  O         15.5980  -22.4130   -7.2660 O.2     1  UNL1       -0.2000
     23  O         15.8000  -24.6280   -8.4580 O.2     1  UNL1       -0.2000
     24  N         17.6950  -23.7760   -6.9620 N.pl3   1  UNL1       -0.2780
     25  H         17.6720  -24.7620   -6.6890 H       1  UNL1        0.1790
     26  C         18.0390  -22.8550   -5.9240 C.2     1  UNL1        0.0810
     27  C         18.8760  -21.7700   -6.1760 C.2     1  UNL1        0.0330
     28  C         19.1660  -20.8640   -5.1510 C.2     1  UNL1        0.0020
     29  C         18.6200  -21.0410   -3.8770 C.2     1  UNL1        0.0030
     30  C         17.7810  -22.1250   -3.6230 C.2     1  UNL1        0.0440
     31  C         17.4960  -23.0230   -4.6480 C.2     1  UNL1        0.1430
     32  F         16.6770  -24.0580   -4.4040 F       1  UNL1       -0.2040
@<TRIPOS>BOND
     1    13    12    1
     2    13    14    2
     3    16    20    1
     4    16    14    1
     5    12    11    2
     6    20    19    1
     7    14    15    1
     8    10     9    1
     9    11     9    1
    10    11    17    1
    11    15    17    2
    12    15    18    1
    13    19    18    1
    14     9     7   am
    15     2     3    1
    16     2     1    2
    17     3     4    2
    18     7     1    1
    19     7     8    2
    20     1     6    1
    21     4     5    1
    22     6     5    2
    23     5    21    1
    24    23    21    2
    25    21    22    2
    26    21    24    1
    27    24    25    1
    28    24    26    1
    29    27    26    2
    30    27    28    1
    31    26    31    1
    32    28    29    2
    33    31    32    1
    34    31    30    2
    35    29    30    1
