@<TRIPOS>MOLECULE
33551_out_ligand_01.pdbqt
 29 31 0 0 0
SMALL
GASTEIGER

@<TRIPOS>ATOM
      1  C         19.0530  -22.5300  -10.3750 C.2     1  UNL1        0.0330
      2  C         18.3610  -21.6540  -11.2250 C.2     1  UNL1        0.0170
      3  C         17.0090  -21.3810  -10.9990 C.2     1  UNL1        0.0030
      4  C         16.3480  -21.9650   -9.9190 C.2     1  UNL1        0.0250
      5  C         17.0500  -22.8130   -9.0560 C.2     1  UNL1        0.0750
      6  C         18.3970  -23.1110   -9.2860 C.2     1  UNL1        0.0410
      7  S         16.2060  -23.5550   -7.6770 S.O2    1  UNL1        0.2460
      8  O         15.4400  -22.5120   -7.0290 O.2     1  UNL1       -0.2060
      9  O         15.5710  -24.7680   -8.1440 O.2     1  UNL1       -0.2060
     10  N         17.4630  -23.9480   -6.6150 N.pl3   1  UNL1       -0.1780
     11  H         17.3330  -24.8840   -6.2290 H       1  UNL1        0.1460
     12  C         17.8890  -22.9550   -5.6780 C.2     1  UNL1        0.0610
     13  C         18.7100  -21.8990   -6.0720 C.2     1  UNL1        0.0270
     14  C         19.0570  -20.9100   -5.1480 C.2     1  UNL1        0.0020
     15  C         18.5880  -20.9760   -3.8340 C.2     1  UNL1        0.0030
     16  C         17.7710  -22.0330   -3.4360 C.2     1  UNL1        0.0440
     17  C         17.4270  -23.0130   -4.3600 C.2     1  UNL1        0.1380
     18  F         16.6240  -24.0210   -3.9830 F       1  UNL1       -0.2040
     19  C         20.4970  -22.8310  -10.5770 C.2     1  UNL1        0.2560
     20  O         20.9100  -23.9320  -10.2320 O.2     1  UNL1       -0.2670
     21  N         21.2220  -21.8170  -11.1700 N.am    1  UNL1       -0.3220
     22  H         20.7100  -21.0070  -11.5030 H       1  UNL1        0.1690
     23  C         22.6060  -21.7920  -11.4620 C.2     1  UNL1        0.0520
     24  C         23.1130  -21.8370  -12.7640 C.2     1  UNL1        0.0310
     25  C         24.4930  -21.8120  -12.9950 C.2     1  UNL1        0.0020
     26  C         25.3850  -21.7420  -11.9270 C.2     1  UNL1        0.0020
     27  C         24.8990  -21.7010  -10.6230 C.2     1  UNL1        0.0210
     28  C         23.5200  -21.7260  -10.3930 C.2     1  UNL1        0.0370
     29 BR         22.9250  -21.6710   -8.5850 Br      1  UNL1       -0.0490
@<TRIPOS>BOND
     1    25    24    1
     2    25    26    2
     3    24    23    2
     4    26    27    1
     5    22    21    1
     6    23    21    1
     7    23    28    1
     8     2     3    1
     9     2     1    2
    10    21    19   am
    11     3     4    2
    12    27    28    2
    13    19     1    1
    14    19    20    2
    15    28    29    1
    16     1     6    1
    17     4     5    1
    18     6     5    2
    19     5     7    1
    20     9     7    2
    21     7     8    2
    22     7    10    1
    23    10    11    1
    24    10    12    1
    25    13    12    2
    26    13    14    1
    27    12    17    1
    28    14    15    2
    29    17    18    1
    30    17    16    2
    31    15    16    1
