@<TRIPOS>MOLECULE
33553_out_ligand_01.pdbqt
 30 32 0 0 0
SMALL
GASTEIGER

@<TRIPOS>ATOM
      1  C         20.4000  -21.9200   -7.0870 C.2     1  UNL1        0.0330
      2  C         20.3010  -20.9430   -6.0850 C.2     1  UNL1        0.0170
      3  C         19.0970  -20.7590   -5.4000 C.2     1  UNL1        0.0030
      4  C         17.9930  -21.5570   -5.6990 C.2     1  UNL1        0.0250
      5  C         18.1040  -22.5490   -6.6780 C.2     1  UNL1        0.0750
      6  C         19.2970  -22.7260   -7.3850 C.2     1  UNL1        0.0410
      7  C         21.6680  -22.1550   -7.8280 C.2     1  UNL1        0.2510
      8  N         21.6870  -23.2510   -8.6630 N.am    1  UNL1       -0.3530
      9  H         20.9620  -23.9470   -8.5640 H       1  UNL1        0.1630
     10  O         22.6210  -21.4050   -7.6550 O.2     1  UNL1       -0.2680
     11  C         22.9100  -23.6830   -9.3040 C.3     1  UNL1        0.1610
     12  C         23.0780  -23.0070  -10.6400 C.2     1  UNL1       -0.0410
     13  C         24.3390  -22.9050  -11.2410 C.2     1  UNL1        0.0090
     14  C         24.4880  -22.2560  -12.4690 C.2     1  UNL1        0.0070
     15  C         23.3820  -21.6980  -13.1190 C.2     1  UNL1       -0.0620
     16  C         23.5480  -20.9710  -14.4200 C.3     1  UNL1        0.0480
     17  C         22.1250  -21.7800  -12.5080 C.2     1  UNL1        0.0070
     18  C         21.9730  -22.4300  -11.2820 C.2     1  UNL1        0.0090
     19  S         16.6940  -23.5660   -7.0600 S.O2    1  UNL1        0.2460
     20  O         16.8150  -24.7800   -6.2790 O.2     1  UNL1       -0.2060
     21  O         15.5100  -22.7390   -6.9750 O.2     1  UNL1       -0.2060
     22  N         16.9580  -24.0120   -8.6700 N.pl3   1  UNL1       -0.1780
     23  H         17.5970  -24.8070   -8.7260 H       1  UNL1        0.1460
     24  C         17.1860  -22.9750   -9.6280 C.2     1  UNL1        0.0610
     25  C         16.3010  -21.9060   -9.7560 C.2     1  UNL1        0.0270
     26  C         16.5840  -20.8780  -10.6590 C.2     1  UNL1        0.0020
     27  C         17.7460  -20.9170  -11.4330 C.2     1  UNL1        0.0030
     28  C         18.6300  -21.9880  -11.3110 C.2     1  UNL1        0.0440
     29  C         18.3440  -23.0070  -10.4100 C.2     1  UNL1        0.1380
     30  F         19.2050  -24.0300  -10.2780 F       1  UNL1       -0.2040
@<TRIPOS>BOND
     1    16    15    1
     2    15    17    2
     3    15    14    1
     4    17    18    1
     5    14    13    2
     6    27    28    2
     7    27    26    1
     8    28    29    1
     9    18    12    2
    10    13    12    1
    11    26    25    2
    12    12    11    1
    13    29    30    1
    14    29    24    2
    15    25    24    1
    16    24    22    1
    17    11     8    1
    18    23    22    1
    19    22    19    1
    20     8     9    1
    21     8     7   am
    22     7    10    2
    23     7     1    1
    24     6     1    2
    25     6     5    1
    26     1     2    1
    27    19    21    2
    28    19     5    1
    29    19    20    2
    30     5     4    2
    31     2     3    2
    32     4     3    1
