@<TRIPOS>MOLECULE
33550_out_ligand_01.pdbqt
 32 34 0 0 0
SMALL
GASTEIGER

@<TRIPOS>ATOM
      1  C         19.3560  -22.5850  -10.2210 C.2     1  UNL1        0.0330
      2  C         18.7440  -21.7320  -11.1490 C.2     1  UNL1        0.0170
      3  C         17.3800  -21.4430  -11.0560 C.2     1  UNL1        0.0030
      4  C         16.6230  -21.9920  -10.0230 C.2     1  UNL1        0.0250
      5  C         17.2410  -22.8190   -9.0800 C.2     1  UNL1        0.0800
      6  C         18.6040  -23.1240   -9.1710 C.2     1  UNL1        0.0420
      7  C         20.8150  -22.8580  -10.3600 C.2     1  UNL1        0.2560
      8  O         21.2470  -23.9090   -9.9050 O.2     1  UNL1       -0.2670
      9  N         21.5420  -21.8550  -10.9760 N.am    1  UNL1       -0.3230
     10  H         21.0550  -20.9940  -11.1870 H       1  UNL1        0.1690
     11  C         22.9220  -21.8600  -11.2720 C.2     1  UNL1        0.0350
     12  C         23.9190  -21.5390  -10.3510 C.2     1  UNL1        0.0290
     13  C         25.2670  -21.5730  -10.7220 C.2     1  UNL1        0.0030
     14  C         25.6300  -21.9300  -12.0180 C.2     1  UNL1        0.0160
     15  C         24.6470  -22.2540  -12.9610 C.2     1  UNL1        0.0500
     16  C         23.2950  -22.2230  -12.5730 C.2     1  UNL1        0.0450
     17  C         25.0370  -22.6640  -14.3580 C.3     1  UNL1        0.4170
     18  F         26.2010  -22.0930  -14.7770 F       1  UNL1       -0.1660
     19  F         25.2170  -24.0100  -14.4700 F       1  UNL1       -0.1660
     20  F         24.1040  -22.3330  -15.2940 F       1  UNL1       -0.1660
     21  S         16.2720  -23.4980   -7.7530 S.O2    1  UNL1        0.2630
     22  O         15.4730  -22.4070   -7.2410 O.2     1  UNL1       -0.2000
     23  O         15.6640  -24.7240   -8.2220 O.2     1  UNL1       -0.2000
     24  N         17.4130  -23.8460   -6.5840 N.pl3   1  UNL1       -0.2780
     25  H         18.0900  -24.5510   -6.8850 H       1  UNL1        0.1790
     26  C         17.8660  -22.9110   -5.6030 C.2     1  UNL1        0.0810
     27  C         18.6610  -21.8010   -5.8870 C.2     1  UNL1        0.0330
     28  C         18.9960  -20.8950   -4.8730 C.2     1  UNL1        0.0020
     29  C         18.5210  -21.0790   -3.5740 C.2     1  UNL1        0.0030
     30  C         17.7020  -22.1670   -3.2860 C.2     1  UNL1        0.0440
     31  C         17.3760  -23.0630   -4.3000 C.2     1  UNL1        0.1430
     32  F         16.5720  -24.1000   -4.0140 F       1  UNL1       -0.2040
@<TRIPOS>BOND
     1    20    17    1
     2    18    17    1
     3    19    17    1
     4    17    15    1
     5    15    16    1
     6    15    14    2
     7    16    11    2
     8    14    13    1
     9    11     9    1
    10    11    12    1
    11    10     9    1
    12     2     3    1
    13     2     1    2
    14     3     4    2
    15     9     7   am
    16    13    12    2
    17     7     1    1
    18     7     8    2
    19     1     6    1
    20     4     5    1
    21     6     5    2
    22     5    21    1
    23    23    21    2
    24    21    22    2
    25    21    24    1
    26    25    24    1
    27    24    26    1
    28    27    26    2
    29    27    28    1
    30    26    31    1
    31    28    29    2
    32    31    32    1
    33    31    30    2
    34    29    30    1
