@<TRIPOS>MOLECULE
33557_out_ligand_01.pdbqt
 31 33 0 0 0
SMALL
GASTEIGER

@<TRIPOS>ATOM
      1  C         19.8330  -22.4500  -10.3880 C.2     1  UNL1        0.0330
      2  C         19.3220  -21.6500  -11.4200 C.2     1  UNL1        0.0170
      3  C         17.9660  -21.3130  -11.4400 C.2     1  UNL1        0.0030
      4  C         17.1160  -21.7790  -10.4360 C.2     1  UNL1        0.0250
      5  C         17.6280  -22.5910   -9.4210 C.2     1  UNL1        0.0750
      6  C         18.9820  -22.9310   -9.3880 C.2     1  UNL1        0.0410
      7  C         21.2680  -22.8380  -10.3460 C.2     1  UNL1        0.2560
      8  O         21.6020  -23.7290   -9.5740 O.2     1  UNL1       -0.2670
      9  N         22.0940  -22.1060  -11.1790 N.am    1  UNL1       -0.3230
     10  H         21.6820  -21.3040  -11.6370 H       1  UNL1        0.1690
     11  C         23.4800  -22.2830  -11.3750 C.2     1  UNL1        0.0370
     12  C         24.3340  -21.3890  -10.7110 C.2     1  UNL1        0.0290
     13  C         25.7220  -21.4850  -10.8450 C.2     1  UNL1        0.0050
     14  C         26.2760  -22.4760  -11.6510 C.2     1  UNL1        0.0360
     15  C         25.4270  -23.3650  -12.3230 C.2     1  UNL1        0.1050
     16  C         24.0330  -23.2740  -12.1900 C.2     1  UNL1        0.0650
     17  N         26.0100  -24.4020  -13.1820 N.pl3   1  UNL1       -0.1160
     18  O         25.3480  -24.7720  -14.1630 O.2     1  UNL1       -0.5320
     19  O         27.1200  -24.8550  -12.8750 O.2     1  UNL1       -0.5320
     20  S         16.5570  -23.1940   -8.1390 S.O2    1  UNL1        0.2460
     21  O         15.8720  -22.0390   -7.5990 O.2     1  UNL1       -0.2060
     22  O         15.8250  -24.3320   -8.6490 O.2     1  UNL1       -0.2060
     23  N         17.6560  -23.7040   -6.9550 N.pl3   1  UNL1       -0.1780
     24  H         18.4850  -24.0860   -7.4170 H       1  UNL1        0.1460
     25  C         17.9210  -22.7870   -5.8910 C.2     1  UNL1        0.0610
     26  C         18.8180  -21.7350   -6.0750 C.2     1  UNL1        0.0270
     27  C         19.1140  -20.8840   -5.0070 C.2     1  UNL1        0.0020
     28  C         18.5260  -21.0900   -3.7560 C.2     1  UNL1        0.0030
     29  C         17.6370  -22.1490   -3.5690 C.2     1  UNL1        0.0440
     30  C         17.3440  -22.9930   -4.6350 C.2     1  UNL1        0.1380
     31  F         16.4860  -24.0070   -4.4530 F       1  UNL1       -0.2040
@<TRIPOS>BOND
     1    18    17    2
     2    17    19    2
     3    17    15    1
     4    15    16    1
     5    15    14    2
     6    16    11    2
     7    14    13    1
     8    10     9    1
     9     3     2    1
    10     3     4    2
    11     2     1    2
    12    11     9    1
    13    11    12    1
    14     9     7   am
    15    13    12    2
    16     4     5    1
    17     1     7    1
    18     1     6    1
    19     7     8    2
    20     5     6    2
    21     5    20    1
    22    22    20    2
    23    20    21    2
    24    20    23    1
    25    24    23    1
    26    23    25    1
    27    26    25    2
    28    26    27    1
    29    25    30    1
    30    27    28    2
    31    30    31    1
    32    30    29    2
    33    28    29    1
