@<TRIPOS>MOLECULE
33558_out_ligand_01.pdbqt
 32 34 0 0 0
SMALL
GASTEIGER

@<TRIPOS>ATOM
      1  C         19.1370  -22.1970  -10.6390 C.2     1  UNL1        0.0330
      2  C         18.3960  -21.3370  -11.4620 C.2     1  UNL1        0.0170
      3  C         17.0420  -21.1090  -11.2000 C.2     1  UNL1        0.0030
      4  C         16.4220  -21.7440  -10.1250 C.2     1  UNL1        0.0250
      5  C         17.1610  -22.6180   -9.3210 C.2     1  UNL1        0.0750
      6  C         18.5160  -22.8490   -9.5680 C.2     1  UNL1        0.0410
      7  C         20.5760  -22.4740  -10.8990 C.2     1  UNL1        0.2560
      8  O         21.1640  -23.2230  -10.1300 O.2     1  UNL1       -0.2670
      9  N         21.1030  -21.8110  -11.9910 N.am    1  UNL1       -0.3230
     10  H         20.5100  -21.1260  -12.4430 H       1  UNL1        0.1690
     11  C         22.4160  -21.9080  -12.4960 C.2     1  UNL1        0.0350
     12  C         23.4380  -22.6320  -11.8790 C.2     1  UNL1        0.0300
     13  C         24.7170  -22.6860  -12.4480 C.2     1  UNL1        0.0180
     14  C         24.9940  -22.0240  -13.6520 C.2     1  UNL1        0.0480
     15  C         23.9690  -21.2930  -14.2670 C.2     1  UNL1        0.0180
     16  C         22.6930  -21.2410  -13.6960 C.2     1  UNL1        0.0300
     17  C         26.3790  -22.0630  -14.2520 C.3     1  UNL1        0.4170
     18  F         27.1210  -20.9620  -13.9450 F       1  UNL1       -0.1660
     19  F         27.1020  -23.1320  -13.8190 F       1  UNL1       -0.1660
     20  F         26.3750  -22.1390  -15.6120 F       1  UNL1       -0.1660
     21  S         16.3830  -23.4380   -7.9500 S.O2    1  UNL1        0.2460
     22  O         15.8010  -24.6730   -8.4260 O.2     1  UNL1       -0.2060
     23  O         15.5860  -22.4400   -7.2710 O.2     1  UNL1       -0.2060
     24  N         17.6980  -23.7790   -6.9380 N.pl3   1  UNL1       -0.1780
     25  H         18.5010  -24.0370   -7.5170 H       1  UNL1        0.1460
     26  C         17.9740  -22.8290   -5.9050 C.2     1  UNL1        0.0610
     27  C         18.8200  -21.7480   -6.1500 C.2     1  UNL1        0.0270
     28  C         19.1310  -20.8640   -5.1120 C.2     1  UNL1        0.0020
     29  C         18.6070  -21.0660   -3.8330 C.2     1  UNL1        0.0030
     30  C         17.7690  -22.1530   -3.5860 C.2     1  UNL1        0.0440
     31  C         17.4610  -23.0290   -4.6210 C.2     1  UNL1        0.1380
     32  F         16.6510  -24.0710   -4.3810 F       1  UNL1       -0.2040
@<TRIPOS>BOND
     1    20    17    1
     2    15    16    1
     3    15    14    2
     4    17    18    1
     5    17    19    1
     6    17    14    1
     7    16    11    2
     8    14    13    1
     9    11     9    1
    10    11    12    1
    11    13    12    2
    12    10     9    1
    13     9     7   am
    14     2     3    1
    15     2     1    2
    16     3     4    2
    17     7     1    1
    18     7     8    2
    19     1     6    1
    20     4     5    1
    21     6     5    2
    22     5    21    1
    23    22    21    2
    24    21    23    2
    25    21    24    1
    26    25    24    1
    27    24    26    1
    28    27    26    2
    29    27    28    1
    30    26    31    1
    31    28    29    2
    32    31    32    1
    33    31    30    2
    34    29    30    1
