@<TRIPOS>MOLECULE
33569_out_ligand_01.pdbqt
 32 35 0 0 0
SMALL
GASTEIGER

@<TRIPOS>ATOM
      1  C         19.1840  -22.3050  -10.5740 C.2     1  UNL1        0.0330
      2  C         18.5880  -21.3190  -11.3720 C.2     1  UNL1        0.0170
      3  C         17.2240  -21.0420  -11.2440 C.2     1  UNL1        0.0030
      4  C         16.4560  -21.7350  -10.3070 C.2     1  UNL1        0.0250
      5  C         17.0620  -22.7000   -9.4970 C.2     1  UNL1        0.0800
      6  C         18.4200  -22.9990   -9.6310 C.2     1  UNL1        0.0420
      7  C         20.6390  -22.6030  -10.6550 C.2     1  UNL1        0.2560
      8  O         21.0580  -23.5680  -10.0280 O.2     1  UNL1       -0.2670
      9  N         21.3620  -21.7540  -11.4720 N.am    1  UNL1       -0.3230
     10  H         20.8380  -21.0820  -12.0160 H       1  UNL1        0.1690
     11  C         22.7530  -21.7730  -11.7070 C.2     1  UNL1        0.0370
     12  C         23.7160  -21.7620  -10.6940 C.2     1  UNL1        0.0320
     13  C         25.0800  -21.7840  -11.0090 C.2     1  UNL1        0.0420
     14  C         25.4880  -21.8150  -12.3380 C.2     1  UNL1        0.1020
     15  C         24.5340  -21.7940  -13.3570 C.2     1  UNL1        0.1040
     16  O         26.8380  -21.8570  -12.5720 O.2     1  UNL1       -0.3460
     17  C         23.1740  -21.7870  -13.0440 C.2     1  UNL1        0.0690
     18  O         24.8580  -21.7870  -14.6900 O.2     1  UNL1       -0.3460
     19  C         26.2380  -21.4590  -14.8900 C.3     1  UNL1        0.2020
     20  C         27.1210  -22.2330  -13.9240 C.3     1  UNL1        0.2020
     21  S         16.1080  -23.5660   -8.2710 S.O2    1  UNL1        0.2630
     22  O         15.2400  -22.6090   -7.6180 O.2     1  UNL1       -0.2000
     23  O         15.5760  -24.7520   -8.9070 O.2     1  UNL1       -0.2000
     24  N         17.2840  -24.0910   -7.1790 N.pl3   1  UNL1       -0.2810
     25  H         17.9950  -24.6650   -7.6310 H       1  UNL1        0.1790
     26  C         17.6950  -23.2250   -6.1280 C.2     1  UNL1        0.0420
     27  C         17.2640  -23.4320   -4.8150 C.2     1  UNL1        0.0330
     28  C         17.6520  -22.5500   -3.8070 C.2     1  UNL1        0.0440
     29  C         18.4690  -21.4690   -4.1200 C.2     1  UNL1        0.1160
     30  F         18.8390  -20.6190   -3.1530 F       1  UNL1       -0.2060
     31  C         18.9070  -21.2550   -5.4230 C.2     1  UNL1        0.0440
     32  C         18.5200  -22.1380   -6.4320 C.2     1  UNL1        0.0330
@<TRIPOS>BOND
     1    19    18    1
     2    19    20    1
     3    18    15    1
     4    20    16    1
     5    15    17    1
     6    15    14    2
     7    17    11    2
     8    16    14    1
     9    14    13    1
    10    10     9    1
    11    11     9    1
    12    11    12    1
    13     9     7   am
    14     2     3    1
    15     2     1    2
    16     3     4    2
    17    13    12    2
    18     7     1    1
    19     7     8    2
    20     1     6    1
    21     4     5    1
    22     6     5    2
    23     5    21    1
    24    23    21    2
    25    21    22    2
    26    21    24    1
    27    25    24    1
    28    24    26    1
    29    32    26    2
    30    32    31    1
    31    26    27    1
    32    31    29    2
    33    27    28    2
    34    29    28    1
    35    29    30    1
