@<TRIPOS>MOLECULE
33564_out_ligand_01.pdbqt
 30 32 0 0 0
SMALL
GASTEIGER

@<TRIPOS>ATOM
      1  C         19.6210  -22.3530  -10.7000 C.2     1  UNL1        0.0330
      2  C         19.1590  -21.3690  -11.5860 C.2     1  UNL1        0.0170
      3  C         17.8100  -21.0030  -11.5850 C.2     1  UNL1        0.0030
      4  C         16.9240  -21.6040  -10.6910 C.2     1  UNL1        0.0250
      5  C         17.3960  -22.5610   -9.7870 C.2     1  UNL1        0.0800
      6  C         18.7380  -22.9500   -9.7940 C.2     1  UNL1        0.0420
      7  C         21.0540  -22.7580  -10.6680 C.2     1  UNL1        0.2560
      8  N         21.8660  -22.0660  -11.5470 N.am    1  UNL1       -0.3220
      9  H         21.3940  -21.4560  -12.1980 H       1  UNL1        0.1690
     10  O         21.3710  -23.6640   -9.9090 O.2     1  UNL1       -0.2670
     11  C         23.2700  -22.1820  -11.7110 C.2     1  UNL1        0.0410
     12  C         24.0910  -22.6730  -10.6900 C.2     1  UNL1        0.0300
     13  C         25.4690  -22.7720  -10.8640 C.2     1  UNL1        0.0030
     14  C         26.0500  -22.3770  -12.0630 C.2     1  UNL1        0.0070
     15  C         25.2610  -21.8750  -13.1080 C.2     1  UNL1       -0.0540
     16  C         25.9530  -21.4650  -14.3820 C.3     1  UNL1        0.0490
     17  C         23.8560  -21.7720  -12.9400 C.2     1  UNL1       -0.0290
     18  C         22.9900  -21.2370  -14.0540 C.3     1  UNL1        0.0510
     19  S         16.2620  -23.3320   -8.6530 S.O2    1  UNL1        0.2630
     20  O         15.4860  -22.2760   -8.0380 O.2     1  UNL1       -0.2000
     21  O         15.6180  -24.4290   -9.3400 O.2     1  UNL1       -0.2000
     22  N         17.2760  -23.9270   -7.4440 N.pl3   1  UNL1       -0.2810
     23  H         17.1290  -24.9200   -7.2700 H       1  UNL1        0.1790
     24  C         17.6550  -23.0980   -6.3550 C.2     1  UNL1        0.0420
     25  C         17.0220  -23.2820   -5.1220 C.2     1  UNL1        0.0330
     26  C         17.3590  -22.4680   -4.0390 C.2     1  UNL1        0.0440
     27  C         18.3270  -21.4830   -4.1960 C.2     1  UNL1        0.1160
     28  F         18.6520  -20.7070   -3.1540 F       1  UNL1       -0.2060
     29  C         18.9660  -21.2970   -5.4150 C.2     1  UNL1        0.0440
     30  C         18.6320  -22.1120   -6.4990 C.2     1  UNL1        0.0330
@<TRIPOS>BOND
     1    16    15    1
     2    18    17    1
     3    15    17    1
     4    15    14    2
     5    17    11    2
     6     9     8    1
     7    14    13    1
     8    11     8    1
     9    11    12    1
    10     2     3    1
    11     2     1    2
    12     3     4    2
    13     8     7   am
    14    13    12    2
    15     1     7    1
    16     1     6    1
    17     4     5    1
    18     7    10    2
    19     6     5    2
    20     5    19    1
    21    21    19    2
    22    19    20    2
    23    19    22    1
    24    22    23    1
    25    22    24    1
    26    30    24    2
    27    30    29    1
    28    24    25    1
    29    29    27    2
    30    25    26    2
    31    27    26    1
    32    27    28    1
