@<TRIPOS>MOLECULE
33560_out_ligand_01.pdbqt
 30 32 0 0 0
SMALL
GASTEIGER

@<TRIPOS>ATOM
      1  C         19.4430  -22.3380  -10.4570 C.2     1  UNL1        0.0330
      2  C         18.8160  -21.5230  -11.4120 C.2     1  UNL1        0.0170
      3  C         17.4440  -21.2720  -11.3270 C.2     1  UNL1        0.0030
      4  C         16.6960  -21.8190  -10.2850 C.2     1  UNL1        0.0250
      5  C         17.3320  -22.6050   -9.3180 C.2     1  UNL1        0.0750
      6  C         18.7000  -22.8760   -9.4010 C.2     1  UNL1        0.0410
      7  C         20.9030  -22.6230  -10.5130 C.2     1  UNL1        0.2560
      8  O         21.3290  -23.5690   -9.8640 O.2     1  UNL1       -0.2670
      9  N         21.6280  -21.7860  -11.3410 N.am    1  UNL1       -0.3230
     10  H         21.1020  -21.1370  -11.9110 H       1  UNL1        0.1690
     11  C         23.0240  -21.7990  -11.5550 C.2     1  UNL1        0.0380
     12  C         23.9720  -21.6280  -10.5400 C.2     1  UNL1        0.0320
     13  C         25.3410  -21.6480  -10.8320 C.2     1  UNL1        0.0480
     14  C         25.7630  -21.8360  -12.1410 C.2     1  UNL1        0.1540
     15  F         27.0740  -21.8520  -12.4180 F       1  UNL1       -0.2030
     16  C         24.8300  -22.0030  -13.1540 C.2     1  UNL1        0.1570
     17  F         25.2320  -22.1820  -14.4200 F       1  UNL1       -0.2030
     18  C         23.4660  -21.9860  -12.8710 C.2     1  UNL1        0.0750
     19  S         16.3880  -23.3090   -7.9850 S.O2    1  UNL1        0.2460
     20  O         15.5680  -22.2590   -7.4190 O.2     1  UNL1       -0.2060
     21  O         15.7980  -24.5350   -8.4790 O.2     1  UNL1       -0.2060
     22  N         17.5740  -23.7560   -6.8660 N.pl3   1  UNL1       -0.1780
     23  H         18.3740  -24.1840   -7.3360 H       1  UNL1        0.1460
     24  C         17.8990  -22.8350   -5.8220 C.2     1  UNL1        0.0610
     25  C         18.7420  -21.7490   -6.0550 C.2     1  UNL1        0.0270
     26  C         19.0720  -20.8870   -5.0050 C.2     1  UNL1        0.0020
     27  C         18.5610  -21.1100   -3.7230 C.2     1  UNL1        0.0030
     28  C         17.7170  -22.1950   -3.4880 C.2     1  UNL1        0.0440
     29  C         17.3930  -23.0480   -4.5370 C.2     1  UNL1        0.1380
     30  F         16.5870  -24.0960   -4.3070 F       1  UNL1       -0.2040
@<TRIPOS>BOND
     1    17    16    1
     2    16    18    1
     3    16    14    2
     4    18    11    2
     5    15    14    1
     6    14    13    1
     7    10     9    1
     8    11     9    1
     9    11    12    1
    10     2     3    1
    11     2     1    2
    12     9     7   am
    13     3     4    2
    14    13    12    2
    15     7     1    1
    16     7     8    2
    17     1     6    1
    18     4     5    1
    19     6     5    2
    20     5    19    1
    21    21    19    2
    22    19    20    2
    23    19    22    1
    24    23    22    1
    25    22    24    1
    26    25    24    2
    27    25    26    1
    28    24    29    1
    29    26    27    2
    30    29    30    1
    31    29    28    2
    32    27    28    1
