@<TRIPOS>MOLECULE
33562_out_ligand_01.pdbqt
 32 35 0 0 0
SMALL
GASTEIGER

@<TRIPOS>ATOM
      1  C         21.0700  -22.3150  -10.8860 C.2     1  UNL1        0.0330
      2  C         20.7880  -21.3800  -11.8930 C.2     1  UNL1        0.0170
      3  C         19.4860  -20.9010  -12.0650 C.2     1  UNL1        0.0030
      4  C         18.4600  -21.3520  -11.2350 C.2     1  UNL1        0.0250
      5  C         18.7450  -22.2800  -10.2290 C.2     1  UNL1        0.0800
      6  C         20.0480  -22.7490  -10.0360 C.2     1  UNL1        0.0420
      7  C         22.4390  -22.8580  -10.6730 C.2     1  UNL1        0.2520
      8  O         22.6420  -23.6790   -9.7870 O.2     1  UNL1       -0.2680
      9  N         23.4140  -22.4170  -11.5380 N.am    1  UNL1       -0.3480
     10  H         23.1750  -21.8350  -12.3280 H       1  UNL1        0.1630
     11  C         24.7890  -22.8920  -11.4560 C.3     1  UNL1        0.1180
     12  C         25.6460  -21.9450  -10.6000 C.3     1  UNL1        0.0300
     13  C         25.9650  -20.6590  -11.3570 C.3     1  UNL1        0.0070
     14  C         26.7780  -20.9650  -12.6130 C.3     1  UNL1        0.0390
     15  C         26.2310  -22.1170  -13.4180 C.2     1  UNL1       -0.0500
     16  C         26.6820  -22.2970  -14.7350 C.2     1  UNL1        0.0070
     17  C         25.3360  -23.0510  -12.8620 C.2     1  UNL1       -0.0290
     18  C         26.2380  -23.3760  -15.4990 C.2     1  UNL1        0.0010
     19  C         25.3440  -24.2930  -14.9560 C.2     1  UNL1        0.0010
     20  C         24.8950  -24.1310  -13.6470 C.2     1  UNL1        0.0100
     21  S         17.4460  -22.8640   -9.1650 S.O2    1  UNL1        0.2630
     22  O         16.7290  -23.9080   -9.8660 O.2     1  UNL1       -0.2000
     23  O         16.7600  -21.7030   -8.6420 O.2     1  UNL1       -0.2000
     24  N         18.2920  -23.5520   -7.8720 N.pl3   1  UNL1       -0.2780
     25  H         18.0530  -24.5400   -7.7660 H       1  UNL1        0.1790
     26  C         18.3930  -22.8070   -6.6550 C.2     1  UNL1        0.0810
     27  C         19.2520  -21.7140   -6.5510 C.2     1  UNL1        0.0330
     28  C         19.3020  -20.9810   -5.3620 C.2     1  UNL1        0.0020
     29  C         18.4930  -21.3370   -4.2790 C.2     1  UNL1        0.0030
     30  C         17.6310  -22.4290   -4.3810 C.2     1  UNL1        0.0440
     31  C         17.5870  -23.1550   -5.5670 C.2     1  UNL1        0.1430
     32  F         16.7480  -24.1960   -5.6680 F       1  UNL1       -0.2040
@<TRIPOS>BOND
     1    18    19    2
     2    18    16    1
     3    19    20    1
     4    16    15    2
     5    20    17    2
     6    15    17    1
     7    15    14    1
     8    17    11    1
     9    14    13    1
    10    10     9    1
    11     3     2    1
    12     3     4    2
    13     2     1    2
    14     9    11    1
    15     9     7   am
    16    11    12    1
    17    13    12    1
    18     4     5    1
    19     1     7    1
    20     1     6    1
    21     7     8    2
    22     5     6    2
    23     5    21    1
    24    22    21    2
    25    21    23    2
    26    21    24    1
    27    24    25    1
    28    24    26    1
    29    26    27    2
    30    26    31    1
    31    27    28    1
    32    32    31    1
    33    31    30    2
    34    28    29    2
    35    30    29    1
