@<TRIPOS>MOLECULE
33567_out_ligand_01.pdbqt
 32 35 0 0 0
SMALL
GASTEIGER

@<TRIPOS>ATOM
      1  C         18.9250  -21.8580  -10.3320 C.2     1  UNL1        0.0340
      2  C         18.9190  -21.0670  -11.4860 C.2     1  UNL1        0.0170
      3  C         20.0510  -21.0220  -12.3020 C.2     1  UNL1        0.0030
      4  C         21.1820  -21.7700  -11.9690 C.2     1  UNL1        0.0300
      5  C         21.1900  -22.5470  -10.8110 C.2     1  UNL1        0.0430
      6  C         20.0700  -22.5830   -9.9820 C.2     1  UNL1        0.0470
      7  C         17.7370  -21.9730   -9.4490 C.2     1  UNL1        0.2520
      8  O         16.6190  -21.7670   -9.9040 O.2     1  UNL1       -0.2680
      9  N         17.9950  -22.2580   -8.1310 N.am    1  UNL1       -0.3480
     10  H         18.9440  -22.3590   -7.7990 H       1  UNL1        0.1630
     11  C         16.9310  -22.3820   -7.1440 C.3     1  UNL1        0.1180
     12  C         16.2330  -23.7380   -7.3330 C.3     1  UNL1        0.0300
     13  C         15.3540  -24.0760   -6.1380 C.3     1  UNL1        0.0070
     14  C         16.2090  -24.2090   -4.8830 C.3     1  UNL1        0.0390
     15  C         17.1250  -23.0290   -4.6770 C.2     1  UNL1       -0.0500
     16  C         17.6560  -22.7990   -3.3970 C.2     1  UNL1        0.0070
     17  C         17.4810  -22.1770   -5.7410 C.2     1  UNL1       -0.0290
     18  C         18.4980  -21.7140   -3.1590 C.2     1  UNL1        0.0010
     19  C         18.8190  -20.8440   -4.1960 C.2     1  UNL1        0.0010
     20  C         18.3100  -21.0700   -5.4740 C.2     1  UNL1        0.0100
     21  N         22.2990  -23.3850  -10.5070 N.pl3   1  UNL1       -0.2810
     22  H         22.5260  -24.1290  -11.1670 H       1  UNL1        0.1790
     23  S         23.6950  -22.6710   -9.8670 S.O2    1  UNL1        0.2630
     24  O         23.3510  -21.3930   -9.2840 O.2     1  UNL1       -0.2000
     25  O         24.3610  -23.6980   -9.0950 O.2     1  UNL1       -0.2000
     26  C         24.6870  -22.3660  -11.3160 C.2     1  UNL1        0.0800
     27  C         24.5440  -23.1930  -12.4350 C.2     1  UNL1        0.0270
     28  C         25.3020  -22.9350  -13.5800 C.2     1  UNL1        0.0250
     29  C         26.2000  -21.8660  -13.5930 C.2     1  UNL1        0.0340
     30 CL         27.1210  -21.5420  -15.0100 Cl      1  UNL1       -0.0840
     31  C         26.3580  -21.0560  -12.4670 C.2     1  UNL1        0.0250
     32  C         25.6050  -21.3090  -11.3200 C.2     1  UNL1        0.0270
@<TRIPOS>BOND
     1    30    29    1
     2    29    28    2
     3    29    31    1
     4    28    27    1
     5    31    32    2
     6    27    26    2
     7     3     4    2
     8     3     2    1
     9     4     5    1
    10     2     1    2
    11    32    26    1
    12    26    23    1
    13    22    21    1
    14     5    21    1
    15     5     6    2
    16    21    23    1
    17     1     6    1
    18     1     7    1
    19     8     7    2
    20    23    24    2
    21    23    25    2
    22     7     9   am
    23     9    10    1
    24     9    11    1
    25    12    11    1
    26    12    13    1
    27    11    17    1
    28    13    14    1
    29    17    20    1
    30    17    15    2
    31    20    19    2
    32    14    15    1
    33    15    16    1
    34    19    18    1
    35    16    18    2
