@<TRIPOS>MOLECULE
33579_out_ligand_01.pdbqt
 33 35 0 0 0
SMALL
GASTEIGER

@<TRIPOS>ATOM
      1  C         19.0950  -22.5100   -6.7090 C.2     1  UNL1        0.0330
      2  C         19.6360  -21.3060   -6.2330 C.2     1  UNL1        0.0170
      3  C         19.1900  -20.7640   -5.0240 C.2     1  UNL1        0.0030
      4  C         18.1960  -21.4130   -4.2910 C.2     1  UNL1        0.0250
      5  C         17.6450  -22.6020   -4.7800 C.2     1  UNL1        0.0800
      6  C         18.0910  -23.1570   -5.9830 C.2     1  UNL1        0.0420
      7  C         19.5310  -23.1090   -7.9970 C.2     1  UNL1        0.2520
      8  N         19.5580  -22.2630   -9.0810 N.am    1  UNL1       -0.3480
      9  H         19.4430  -21.2690   -8.9420 H       1  UNL1        0.1630
     10  O         19.8590  -24.2890   -8.0370 O.2     1  UNL1       -0.2680
     11  C         20.0330  -22.6920  -10.3900 C.3     1  UNL1        0.1170
     12  C         19.1270  -22.1560  -11.5170 C.3     1  UNL1        0.0250
     13  C         18.7730  -20.6830  -11.3510 C.3     1  UNL1        0.0070
     14  C         21.4860  -22.2640  -10.5350 C.2     1  UNL1       -0.0350
     15  C         22.3160  -22.0290   -9.4330 C.2     1  UNL1        0.0100
     16  C         23.6540  -21.6700   -9.6120 C.2     1  UNL1        0.0080
     17  C         24.2030  -21.5500  -10.8970 C.2     1  UNL1       -0.0560
     18  C         25.6470  -21.1590  -11.0490 C.3     1  UNL1        0.0490
     19  C         23.3870  -21.7970  -12.0160 C.2     1  UNL1       -0.0560
     20  C         23.9240  -21.6930  -13.4180 C.3     1  UNL1        0.0490
     21  C         22.0420  -22.1570  -11.8220 C.2     1  UNL1        0.0160
     22  S         16.3790  -23.4360   -3.8610 S.O2    1  UNL1        0.2630
     23  O         15.5870  -22.4520   -3.1540 O.2     1  UNL1       -0.2000
     24  O         17.0150  -24.5280   -3.1530 O.2     1  UNL1       -0.2000
     25  N         15.4410  -24.1390   -5.0770 N.pl3   1  UNL1       -0.2810
     26  H         14.4910  -24.3190   -4.7480 H       1  UNL1        0.1790
     27  C         15.6020  -23.6620   -6.4040 C.2     1  UNL1        0.0420
     28  C         15.3800  -22.3120   -6.6800 C.2     1  UNL1        0.0330
     29  C         15.5030  -21.8440   -7.9890 C.2     1  UNL1        0.0440
     30  C         15.8370  -22.7340   -9.0060 C.2     1  UNL1        0.1160
     31  F         15.9510  -22.2840  -10.2620 F       1  UNL1       -0.2060
     32  C         16.0500  -24.0810   -8.7380 C.2     1  UNL1        0.0440
     33  C         15.9290  -24.5510   -7.4300 C.2     1  UNL1        0.0330
@<TRIPOS>BOND
     1    20    19    1
     2    19    21    1
     3    19    17    2
     4    21    14    2
     5    12    13    1
     6    12    11    1
     7    18    17    1
     8    17    16    1
     9    14    11    1
    10    14    15    1
    11    11     8    1
    12    31    30    1
    13    16    15    2
    14     8     9    1
    15     8     7   am
    16    30    32    2
    17    30    29    1
    18    32    33    1
    19    10     7    2
    20     7     1    1
    21    29    28    2
    22    33    27    2
    23     1     2    2
    24     1     6    1
    25    28    27    1
    26    27    25    1
    27     2     3    1
    28     6     5    2
    29    25    26    1
    30    25    22    1
    31     3     4    2
    32     5     4    1
    33     5    22    1
    34    22    23    2
    35    22    24    2
