@<TRIPOS>MOLECULE
33578_out_ligand_01.pdbqt
 32 34 0 0 0
SMALL
GASTEIGER

@<TRIPOS>ATOM
      1  C         18.3430  -21.9290  -10.3000 C.2     1  UNL1        0.0330
      2  C         18.3090  -21.1590  -11.4720 C.2     1  UNL1        0.0170
      3  C         19.4990  -20.7510  -12.0820 C.2     1  UNL1        0.0030
      4  C         20.7290  -21.1050  -11.5270 C.2     1  UNL1        0.0250
      5  C         20.7600  -21.8620  -10.3520 C.2     1  UNL1        0.0800
      6  C         19.5760  -22.2660   -9.7270 C.2     1  UNL1        0.0420
      7  C         17.1020  -22.3940   -9.6200 C.2     1  UNL1        0.2520
      8  N         17.2580  -22.9490   -8.3700 N.am    1  UNL1       -0.3490
      9  H         18.1510  -22.9070   -7.9010 H       1  UNL1        0.1630
     10  O         16.0130  -22.2360  -10.1580 O.2     1  UNL1       -0.2680
     11  C         16.1170  -23.3800   -7.5750 C.3     1  UNL1        0.1140
     12  C         15.8420  -24.8750   -7.7820 C.3     1  UNL1        0.0370
     13  C         16.3490  -22.9770   -6.1210 C.2     1  UNL1       -0.0290
     14  C         15.4130  -23.3100   -5.1140 C.2     1  UNL1       -0.0540
     15  C         15.6440  -22.8980   -3.7920 C.2     1  UNL1        0.0080
     16  C         14.1670  -24.1030   -5.4100 C.3     1  UNL1        0.0490
     17  C         16.7720  -22.1510   -3.4580 C.2     1  UNL1        0.0070
     18  C         17.6990  -21.8020   -4.4390 C.2     1  UNL1       -0.0610
     19  C         18.8930  -20.9610   -4.0930 C.3     1  UNL1        0.0480
     20  C         17.4710  -22.2010   -5.7630 C.2     1  UNL1        0.0160
     21  S         22.3160  -22.3120   -9.6280 S.O2    1  UNL1        0.2630
     22  O         22.0320  -23.1470   -8.4810 O.2     1  UNL1       -0.2000
     23  O         23.1360  -21.1260   -9.5060 O.2     1  UNL1       -0.2000
     24  N         22.9830  -23.3340  -10.8010 N.pl3   1  UNL1       -0.2810
     25  H         23.0750  -24.2830  -10.4350 H       1  UNL1        0.1790
     26  C         24.0420  -22.8300  -11.5990 C.2     1  UNL1        0.0420
     27  C         23.7570  -22.1600  -12.7920 C.2     1  UNL1        0.0330
     28  C         24.8030  -21.6930  -13.5900 C.2     1  UNL1        0.0440
     29  C         26.1180  -21.9050  -13.1910 C.2     1  UNL1        0.1160
     30  F         27.1200  -21.4550  -13.9560 F       1  UNL1       -0.2060
     31  C         26.4090  -22.5790  -12.0090 C.2     1  UNL1        0.0440
     32  C         25.3650  -23.0500  -11.2120 C.2     1  UNL1        0.0330
@<TRIPOS>BOND
     1    30    29    1
     2    28    29    2
     3    28    27    1
     4    29    31    1
     5    27    26    2
     6     3     4    2
     7     3     2    1
     8    31    32    2
     9    26    32    1
    10    26    24    1
    11     4     5    1
    12     2     1    2
    13    24    25    1
    14    24    21    1
    15     5     6    2
    16     5    21    1
    17     1     6    1
    18     1     7    1
    19    10     7    2
    20    21    23    2
    21    21    22    2
    22     7     8   am
    23     8     9    1
    24     8    11    1
    25    12    11    1
    26    11    13    1
    27    13    20    2
    28    13    14    1
    29    20    18    1
    30    16    14    1
    31    14    15    2
    32    18    19    1
    33    18    17    2
    34    15    17    1
