@<TRIPOS>MOLECULE
33585_out_ligand_01.pdbqt
 32 34 0 0 0
SMALL
GASTEIGER

@<TRIPOS>ATOM
      1  C         20.1360  -22.1880  -10.5920 C.2     1  UNL1        0.0320
      2  C         20.7350  -21.7790  -11.7900 C.2     1  UNL1        0.0190
      3  C         22.0640  -22.1200  -12.0540 C.2     1  UNL1        0.0250
      4  C         22.7950  -22.8500  -11.1160 C.2     1  UNL1        0.0220
      5  C         22.2030  -23.2610   -9.9210 C.2     1  UNL1        0.0250
      6  C         20.8760  -22.9150   -9.6530 C.2     1  UNL1        0.0190
      7  C         18.7250  -21.8430  -10.2760 C.2     1  UNL1        0.2520
      8  N         18.1820  -22.5090   -9.1990 N.am    1  UNL1       -0.3490
      9  H         18.7540  -23.1850   -8.7150 H       1  UNL1        0.1630
     10  O         18.1500  -20.9970  -10.9490 O.2     1  UNL1       -0.2680
     11  C         16.7700  -22.4960   -8.8380 C.3     1  UNL1        0.1140
     12  C         15.8640  -23.2890   -9.7850 C.3     1  UNL1        0.0370
     13  C         16.5990  -22.8160   -7.3580 C.2     1  UNL1       -0.0300
     14  C         15.5400  -22.2380   -6.6340 C.2     1  UNL1        0.0100
     15  C         15.3420  -22.5180   -5.2800 C.2     1  UNL1        0.0070
     16  C         16.1820  -23.4090   -4.6150 C.2     1  UNL1       -0.0610
     17  C         15.9910  -23.6860   -3.1530 C.3     1  UNL1        0.0480
     18  C         17.2350  -23.9980   -5.3210 C.2     1  UNL1        0.0140
     19  C         17.4480  -23.7260   -6.6860 C.2     1  UNL1       -0.0530
     20  C         18.5960  -24.4130   -7.3770 C.3     1  UNL1        0.0490
     21  N         24.1390  -23.2380  -11.4290 N.pl3   1  UNL1       -0.1810
     22  H         24.2200  -23.4700  -12.4220 H       1  UNL1        0.1460
     23  S         25.2950  -22.0210  -11.1160 S.O2    1  UNL1        0.2450
     24  O         26.5540  -22.6140  -10.7230 O.2     1  UNL1       -0.2060
     25  O         24.6260  -21.0210  -10.3120 O.2     1  UNL1       -0.2060
     26  C         25.5130  -21.3580  -12.7520 C.2     1  UNL1        0.0740
     27  C         25.2570  -22.1530  -13.8740 C.2     1  UNL1        0.0260
     28  C         25.4220  -21.6090  -15.1500 C.2     1  UNL1        0.0250
     29  C         25.8340  -20.2820  -15.2940 C.2     1  UNL1        0.0340
     30 CL         26.0380  -19.6190  -16.8680 Cl      1  UNL1       -0.0840
     31  C         26.0760  -19.4880  -14.1720 C.2     1  UNL1        0.0250
     32  C         25.9140  -20.0250  -12.8930 C.2     1  UNL1        0.0260
@<TRIPOS>BOND
     1    30    29    1
     2    29    28    2
     3    29    31    1
     4    28    27    1
     5    31    32    2
     6    27    26    2
     7    32    26    1
     8    26    23    1
     9    22    21    1
    10     3     2    1
    11     3     4    2
    12     2     1    2
    13    21     4    1
    14    21    23    1
    15     4     5    1
    16    23    24    2
    17    23    25    2
    18    10     7    2
    19     1     7    1
    20     1     6    1
    21     7     8   am
    22     5     6    2
    23    12    11    1
    24     8    11    1
    25     8     9    1
    26    11    13    1
    27    20    19    1
    28    13    19    2
    29    13    14    1
    30    19    18    1
    31    14    15    2
    32    18    16    2
    33    15    16    1
    34    16    17    1
