@<TRIPOS>MOLECULE
33583_out_ligand_01.pdbqt
 32 34 0 0 0
SMALL
GASTEIGER

@<TRIPOS>ATOM
      1  C         19.6040  -22.8300   -9.1080 C.2     1  UNL1        0.0320
      2  C         20.6190  -23.5660   -8.4820 C.2     1  UNL1        0.0190
      3  C         21.8510  -23.7450   -9.1170 C.2     1  UNL1        0.0250
      4  C         22.0760  -23.1650  -10.3660 C.2     1  UNL1        0.0220
      5  C         21.0700  -22.4270  -10.9920 C.2     1  UNL1        0.0250
      6  C         19.8370  -22.2500  -10.3620 C.2     1  UNL1        0.0190
      7  C         18.2960  -22.6800   -8.4110 C.2     1  UNL1        0.2560
      8  N         18.2460  -23.2690   -7.1570 N.am    1  UNL1       -0.3220
      9  H         19.1520  -23.3870   -6.7320 H       1  UNL1        0.1690
     10  O         17.4230  -22.0100   -8.9480 O.2     1  UNL1       -0.2670
     11  C         17.1360  -23.2250   -6.2740 C.2     1  UNL1        0.0470
     12  C         17.2860  -22.5410   -5.0310 C.2     1  UNL1       -0.0270
     13  C         16.1620  -22.4340   -4.1860 C.2     1  UNL1        0.0100
     14  C         14.9440  -23.0140   -4.5210 C.2     1  UNL1        0.0010
     15  C         14.8250  -23.7370   -5.6990 C.2     1  UNL1        0.0090
     16  C         15.9170  -23.8800   -6.5730 C.2     1  UNL1       -0.0350
     17  C         15.7020  -24.7750   -7.7650 C.3     1  UNL1        0.0500
     18  C         18.5900  -21.8520   -4.6250 C.3     1  UNL1        0.0130
     19  C         18.6700  -21.4130   -3.1530 C.3     1  UNL1        0.0150
     20  C         18.8630  -20.6520   -5.5350 C.3     1  UNL1        0.0150
     21  N         23.3130  -23.3940  -11.0540 N.pl3   1  UNL1       -0.1810
     22  H         23.1740  -23.3750  -12.0670 H       1  UNL1        0.1460
     23  S         24.5220  -22.2440  -10.6880 S.O2    1  UNL1        0.2450
     24  O         25.7360  -22.9130  -10.2770 O.2     1  UNL1       -0.2060
     25  O         23.8880  -21.2250   -9.8780 O.2     1  UNL1       -0.2060
     26  C         24.8220  -21.5600  -12.3010 C.2     1  UNL1        0.0740
     27  C         23.9320  -21.8650  -13.3380 C.2     1  UNL1        0.0260
     28  C         24.1580  -21.3410  -14.6130 C.2     1  UNL1        0.0250
     29  C         25.2680  -20.5250  -14.8410 C.2     1  UNL1        0.0340
     30 CL         25.5460  -19.8860  -16.4140 Cl      1  UNL1       -0.0840
     31  C         26.1560  -20.2260  -13.8040 C.2     1  UNL1        0.0250
     32  C         25.9360  -20.7460  -12.5260 C.2     1  UNL1        0.0260
@<TRIPOS>BOND
     1    30    29    1
     2    29    28    2
     3    29    31    1
     4    28    27    1
     5    31    32    2
     6    27    26    2
     7    32    26    1
     8    26    23    1
     9    22    21    1
    10    21    23    1
    11    21     4    1
    12     5     4    2
    13     5     6    1
    14    23    24    2
    15    23    25    2
    16     4     3    1
    17     6     1    2
    18     3     2    2
    19     1     2    1
    20     1     7    1
    21    10     7    2
    22     7     8   am
    23    17    16    1
    24     8     9    1
    25     8    11    1
    26    16    11    2
    27    16    15    1
    28    11    12    1
    29    15    14    2
    30    20    18    1
    31    12    18    1
    32    12    13    2
    33    18    19    1
    34    14    13    1
