@<TRIPOS>MOLECULE
33599_out_ligand_01.pdbqt
 33 35 0 0 0
SMALL
GASTEIGER

@<TRIPOS>ATOM
      1  C         20.7980  -22.8070  -10.6030 C.2     1  UNL1        0.0330
      2  C         20.4340  -21.7990  -11.5080 C.2     1  UNL1        0.0170
      3  C         21.3730  -21.3020  -12.4130 C.2     1  UNL1        0.0030
      4  C         22.6750  -21.8040  -12.4130 C.2     1  UNL1        0.0240
      5  C         23.0400  -22.8010  -11.5080 C.2     1  UNL1        0.0230
      6  C         22.1120  -23.2910  -10.5900 C.2     1  UNL1        0.0410
      7  C         19.8310  -23.3720   -9.6190 C.2     1  UNL1        0.2520
      8  N         18.6510  -22.6790   -9.4540 N.am    1  UNL1       -0.3480
      9  H         18.4310  -21.9500  -10.1100 H       1  UNL1        0.1630
     10  O         20.0920  -24.4190   -9.0390 O.2     1  UNL1       -0.2680
     11  C         17.5990  -23.1510   -8.5640 C.3     1  UNL1        0.1210
     12  C         17.7890  -22.7000   -7.1080 C.2     1  UNL1       -0.0290
     13  C         18.8170  -21.7480   -6.8980 C.2     1  UNL1        0.0100
     14  C         19.1240  -21.2430   -5.6340 C.2     1  UNL1        0.0070
     15  C         18.3980  -21.6570   -4.5240 C.2     1  UNL1       -0.0610
     16  C         18.7370  -21.1510   -3.1540 C.3     1  UNL1        0.0480
     17  C         17.3810  -22.5990   -4.7050 C.2     1  UNL1        0.0140
     18  C         17.0620  -23.1340   -5.9760 C.2     1  UNL1       -0.0530
     19  C         15.8990  -24.0860   -6.0030 C.3     1  UNL1        0.0490
     20  C         16.1690  -22.9560   -9.1610 C.3     1  UNL1        0.0050
     21  C         16.1530  -21.9570  -10.3240 C.3     1  UNL1        0.0120
     22  C         15.4650  -24.2430   -9.5870 C.3     1  UNL1        0.0120
     23  N         24.3980  -23.2620  -11.4820 N.pl3   1  UNL1       -0.1810
     24  H         24.5150  -23.9980  -10.7820 H       1  UNL1        0.1460
     25  S         25.5330  -22.0440  -11.0830 S.O2    1  UNL1        0.2450
     26  O         24.8890  -20.9860  -10.3330 O.2     1  UNL1       -0.2060
     27  O         26.7100  -22.7320  -10.5950 O.2     1  UNL1       -0.2060
     28  C         25.9030  -21.4000  -12.6980 C.2     1  UNL1        0.0740
     29  C         26.0610  -22.2930  -13.7640 C.2     1  UNL1        0.0250
     30  C         26.3150  -21.7970  -15.0440 C.2     1  UNL1        0.0020
     31  C         26.4070  -20.4190  -15.2530 C.2     1  UNL1        0.0000
     32  C         26.2470  -19.5330  -14.1850 C.2     1  UNL1        0.0020
     33  C         25.9910  -20.0200  -12.9010 C.2     1  UNL1        0.0250
@<TRIPOS>BOND
     1    31    30    2
     2    31    32    1
     3    30    29    1
     4    32    33    2
     5    29    28    2
     6    33    28    1
     7    28    25    1
     8     3     4    2
     9     3     2    1
    10     4     5    1
    11     2     1    2
    12     5    23    1
    13     5     6    2
    14    23    25    1
    15    23    24    1
    16    25    27    2
    17    25    26    2
    18     1     6    1
    19     1     7    1
    20    21    20    1
    21     9     8    1
    22     7     8   am
    23     7    10    2
    24    22    20    1
    25     8    11    1
    26    20    11    1
    27    11    12    1
    28    12    13    2
    29    12    18    1
    30    13    14    1
    31    19    18    1
    32    18    17    2
    33    14    15    2
    34    17    15    1
    35    15    16    1
