@<TRIPOS>MOLECULE
33595_out_ligand_01.pdbqt
 32 34 0 0 0
SMALL
GASTEIGER

@<TRIPOS>ATOM
      1  C         21.7970  -22.8390  -10.8330 C.2     1  UNL1        0.0280
      2  C         21.4810  -23.6290   -9.7210 C.2     1  UNL1        0.0260
      3  C         20.2000  -23.5850   -9.1680 C.2     1  UNL1        0.0190
      4  C         19.2220  -22.7630   -9.7410 C.2     1  UNL1        0.0320
      5  C         19.5480  -21.9670  -10.8490 C.2     1  UNL1        0.0250
      6  C         20.8370  -21.9920  -11.4040 C.2     1  UNL1       -0.0390
      7  C         21.1360  -21.1500  -12.6120 C.3     1  UNL1        0.0500
      8  C         17.8390  -22.6790   -9.1960 C.2     1  UNL1        0.2520
      9  O         16.9890  -22.0160   -9.7780 O.2     1  UNL1       -0.2680
     10  N         17.5910  -23.3910   -8.0450 N.am    1  UNL1       -0.3490
     11  H         18.2800  -24.0360   -7.6910 H       1  UNL1        0.1630
     12  C         16.2630  -23.4520   -7.4550 C.3     1  UNL1        0.1140
     13  C         15.5300  -24.7260   -7.9030 C.3     1  UNL1        0.0370
     14  C         16.3910  -23.2950   -5.9420 C.2     1  UNL1       -0.0300
     15  C         17.5000  -23.8230   -5.2530 C.2     1  UNL1        0.0100
     16  C         17.6460  -23.6610   -3.8750 C.2     1  UNL1        0.0010
     17  C         16.6860  -22.9610   -3.1540 C.2     1  UNL1        0.0010
     18  C         15.5770  -22.4300   -3.8110 C.2     1  UNL1        0.0070
     19  C         15.4220  -22.5740   -5.2010 C.2     1  UNL1       -0.0540
     20  C         14.2170  -21.9510   -5.8550 C.3     1  UNL1        0.0490
     21  N         23.1010  -22.9440  -11.4240 N.pl3   1  UNL1       -0.1810
     22  H         23.1250  -22.4730  -12.3320 H       1  UNL1        0.1460
     23  S         24.3470  -22.2410  -10.4900 S.O2    1  UNL1        0.2450
     24  O         23.6910  -21.3580   -9.5470 O.2     1  UNL1       -0.2060
     25  O         25.2910  -23.2500  -10.0600 O.2     1  UNL1       -0.2060
     26  C         25.1510  -21.2380  -11.7170 C.2     1  UNL1        0.0740
     27  C         26.1660  -20.3610  -11.3260 C.2     1  UNL1        0.0250
     28  C         26.7840  -19.5520  -12.2830 C.2     1  UNL1        0.0080
     29  C         26.3910  -19.6130  -13.6260 C.2     1  UNL1       -0.0620
     30  C         27.0260  -18.7100  -14.6440 C.3     1  UNL1        0.0480
     31  C         25.3530  -20.4780  -13.9990 C.2     1  UNL1        0.0080
     32  C         24.7310  -21.2930  -13.0490 C.2     1  UNL1        0.0250
@<TRIPOS>BOND
     1    30    29    1
     2    31    29    2
     3    31    32    1
     4    29    28    1
     5    32    26    2
     6     7     6    1
     7    22    21    1
     8    28    27    2
     9    26    27    1
    10    26    23    1
    11    21     1    1
    12    21    23    1
    13     6     5    1
    14     6     1    2
    15     5     4    2
    16     1     2    1
    17    23    25    2
    18    23    24    2
    19     9     8    2
    20     4     8    1
    21     4     3    1
    22     2     3    2
    23     8    10   am
    24    10    11    1
    25    10    12    1
    26    13    12    1
    27    12    14    1
    28    14    15    2
    29    14    19    1
    30    20    19    1
    31    15    16    1
    32    19    18    2
    33    16    17    2
    34    18    17    1
