@<TRIPOS>MOLECULE
33598_out_ligand_01.pdbqt
 31 33 0 0 0
SMALL
GASTEIGER

@<TRIPOS>ATOM
      1  C         21.9290  -22.4640  -11.4750 C.2     1  UNL1        0.0230
      2  C         21.2890  -21.4510  -12.1920 C.2     1  UNL1        0.0240
      3  C         19.9760  -21.1040  -11.8790 C.2     1  UNL1        0.0030
      4  C         19.3020  -21.7740  -10.8530 C.2     1  UNL1        0.0170
      5  C         19.9360  -22.8110  -10.1500 C.2     1  UNL1        0.0330
      6  C         21.2560  -23.1560  -10.4700 C.2     1  UNL1        0.0410
      7  C         19.2880  -23.5040   -9.0000 C.2     1  UNL1        0.2520
      8  O         19.8240  -24.4850   -8.4970 O.2     1  UNL1       -0.2680
      9  N         18.1060  -22.9650   -8.5380 N.am    1  UNL1       -0.3490
     10  H         17.6040  -22.2780   -9.0870 H       1  UNL1        0.1630
     11  C         17.4500  -23.4590   -7.3390 C.3     1  UNL1        0.1140
     12  C         15.9420  -23.5970   -7.5770 C.3     1  UNL1        0.0370
     13  C         17.8550  -22.5670   -6.1660 C.2     1  UNL1       -0.0300
     14  C         18.8070  -21.5450   -6.3270 C.2     1  UNL1        0.0100
     15  C         19.2060  -20.7510   -5.2500 C.2     1  UNL1        0.0010
     16  C         18.6710  -20.9720   -3.9880 C.2     1  UNL1        0.0010
     17  C         17.7370  -21.9860   -3.8000 C.2     1  UNL1        0.0070
     18  C         17.3250  -22.7930   -4.8720 C.2     1  UNL1       -0.0540
     19  C         16.3060  -23.8710   -4.6030 C.3     1  UNL1        0.0490
     20  N         23.2830  -22.8250  -11.7680 N.pl3   1  UNL1       -0.1810
     21  H         23.4070  -23.8320  -11.6780 H       1  UNL1        0.1460
     22  S         24.4370  -22.1010  -10.7420 S.O2    1  UNL1        0.2450
     23  O         25.3730  -23.1490  -10.3820 O.2     1  UNL1       -0.2060
     24  O         23.7760  -21.2910   -9.7430 O.2     1  UNL1       -0.2060
     25  C         25.2400  -21.0080  -11.8860 C.2     1  UNL1        0.0740
     26  C         24.8230  -20.9940  -13.2210 C.2     1  UNL1        0.0250
     27  C         25.4400  -20.1290  -14.1240 C.2     1  UNL1        0.0080
     28  C         26.4750  -19.2840  -13.7010 C.2     1  UNL1       -0.0620
     29  C         27.1200  -18.3300  -14.6640 C.3     1  UNL1        0.0480
     30  C         26.8680  -19.2930  -12.3520 C.2     1  UNL1        0.0080
     31  C         26.2530  -20.1530  -11.4430 C.2     1  UNL1        0.0250
@<TRIPOS>BOND
     1    29    28    1
     2    27    28    2
     3    27    26    1
     4    28    30    1
     5    26    25    2
     6    30    31    2
     7     2     3    1
     8     2     1    2
     9    25    31    1
    10    25    22    1
    11     3     4    2
    12    20    21    1
    13    20     1    1
    14    20    22    1
    15     1     6    1
    16     4     5    1
    17    22    23    2
    18    22    24    2
    19     6     5    2
    20     5     7    1
    21    10     9    1
    22     7     9   am
    23     7     8    2
    24     9    11    1
    25    12    11    1
    26    11    13    1
    27    14    13    2
    28    14    15    1
    29    13    18    1
    30    15    16    2
    31    18    19    1
    32    18    17    2
    33    16    17    1
