@<TRIPOS>MOLECULE
33601_out_ligand_01.pdbqt
 32 34 0 0 0
SMALL
GASTEIGER

@<TRIPOS>ATOM
      1  C         21.6280  -22.8700  -10.9040 C.2     1  UNL1        0.0240
      2  C         21.2120  -23.6730   -9.8460 C.2     1  UNL1        0.0250
      3  C         19.9110  -23.5530   -9.3560 C.2     1  UNL1        0.0200
      4  C         19.0390  -22.6100   -9.9110 C.2     1  UNL1        0.0530
      5  C         19.4590  -21.7970  -10.9670 C.2     1  UNL1        0.0510
      6 CL         18.4280  -20.6270  -11.7080 Cl      1  UNL1       -0.0830
      7  C         20.7600  -21.9270  -11.4610 C.2     1  UNL1        0.0490
      8  C         17.6880  -22.5220   -9.3260 C.2     1  UNL1        0.2530
      9  O         16.8070  -21.9620   -9.9620 O.2     1  UNL1       -0.2680
     10  N         17.5410  -23.1650   -8.1200 N.am    1  UNL1       -0.3490
     11  H         18.3220  -23.6990   -7.7770 H       1  UNL1        0.1630
     12  C         16.2660  -23.3900   -7.4560 C.3     1  UNL1        0.1140
     13  C         15.5530  -24.6650   -7.9200 C.3     1  UNL1        0.0370
     14  C         16.3980  -23.2270   -5.9460 C.2     1  UNL1       -0.0300
     15  C         17.5320  -23.7300   -5.2800 C.2     1  UNL1        0.0100
     16  C         17.6930  -23.5920   -3.9000 C.2     1  UNL1        0.0010
     17  C         16.7200  -22.9410   -3.1540 C.2     1  UNL1        0.0010
     18  C         15.5950  -22.4190   -3.7890 C.2     1  UNL1        0.0070
     19  C         15.4240  -22.5400   -5.1800 C.2     1  UNL1       -0.0540
     20  C         14.1860  -21.9430   -5.7980 C.3     1  UNL1        0.0490
     21  N         22.9790  -22.9540  -11.3780 N.pl3   1  UNL1       -0.1810
     22  H         23.2800  -23.9250  -11.4770 H       1  UNL1        0.1460
     23  S         24.1180  -22.1850  -10.3630 S.O2    1  UNL1        0.2450
     24  O         24.9960  -23.2250   -9.8770 O.2     1  UNL1       -0.2060
     25  O         23.4410  -21.2720   -9.4660 O.2     1  UNL1       -0.2060
     26  C         25.0110  -21.2130  -11.5480 C.2     1  UNL1        0.0740
     27  C         24.5850  -21.2090  -12.8800 C.2     1  UNL1        0.0250
     28  C         25.2790  -20.4490  -13.8210 C.2     1  UNL1        0.0080
     29  C         26.3980  -19.6940  -13.4410 C.2     1  UNL1       -0.0620
     30  C         27.1210  -18.8480  -14.4470 C.3     1  UNL1        0.0480
     31  C         26.7990  -19.6910  -12.0960 C.2     1  UNL1        0.0080
     32  C         26.1120  -20.4530  -11.1480 C.2     1  UNL1        0.0250
@<TRIPOS>BOND
     1    30    29    1
     2    28    29    2
     3    28    27    1
     4    29    31    1
     5    27    26    2
     6    31    32    2
     7     6     5    1
     8    26    32    1
     9    26    23    1
    10    22    21    1
    11     7     5    1
    12     7     1    2
    13    21     1    1
    14    21    23    1
    15     5     4    2
    16     1     2    1
    17    23    24    2
    18    23    25    2
    19     9     8    2
    20     4     3    1
    21     4     8    1
    22     2     3    2
    23     8    10   am
    24    10    11    1
    25    10    12    1
    26    13    12    1
    27    12    14    1
    28    14    15    2
    29    14    19    1
    30    20    19    1
    31    15    16    1
    32    19    18    2
    33    16    17    2
    34    18    17    1
