@<TRIPOS>MOLECULE
33605_out_ligand_01.pdbqt
 36 40 0 0 0
SMALL
GASTEIGER

@<TRIPOS>ATOM
      1  C         18.5920  -22.0510  -10.7970 C.2     1  UNL1        0.0320
      2  C         19.6180  -22.9180  -10.4080 C.2     1  UNL1        0.0190
      3  C         20.9180  -22.7470  -10.9000 C.2     1  UNL1        0.0300
      4  C         21.2090  -21.6990  -11.7760 C.2     1  UNL1        0.0350
      5  C         20.1820  -20.8210  -12.1490 C.2     1  UNL1        0.0300
      6  C         18.8810  -20.9910  -11.6610 C.2     1  UNL1        0.0190
      7  C         17.2250  -22.2730  -10.2500 C.2     1  UNL1        0.2510
      8  N         17.0050  -23.4920   -9.6400 N.am    1  UNL1       -0.3570
      9  H         17.8200  -24.0110   -9.3400 H       1  UNL1        0.1620
     10  O         16.3810  -21.3870  -10.3270 O.2     1  UNL1       -0.2680
     11  C         15.7610  -23.7440   -8.9270 C.3     1  UNL1        0.1270
     12  C         16.0080  -24.4580   -7.5980 C.3     1  UNL1        0.0600
     13  C         16.2930  -23.5100   -6.4790 C.2     1  UNL1       -0.0290
     14  C         15.4440  -23.1890   -5.4380 C.2     1  UNL1        0.0960
     15  N         16.0780  -22.2850   -4.6290 N.pl3   1  UNL1       -0.3650
     16  C         17.3300  -22.0020   -5.1210 C.2     1  UNL1        0.0430
     17  H         15.6880  -21.8780   -3.7910 H       1  UNL1        0.1650
     18  C         18.3170  -21.1400   -4.6300 C.2     1  UNL1        0.0310
     19  C         17.4960  -22.7570   -6.2810 C.2     1  UNL1       -0.0010
     20  C         19.5170  -21.0530   -5.3460 C.2     1  UNL1        0.0090
     21  C         19.7310  -21.8060   -6.5050 C.2     1  UNL1       -0.0610
     22  C         21.0160  -21.6720   -7.2690 C.3     1  UNL1        0.0480
     23  C         18.7150  -22.6500   -6.9840 C.2     1  UNL1        0.0210
     24  N         22.4830  -21.4560  -12.3140 N.am    1  UNL1       -0.3220
     25  C         23.6150  -22.2530  -12.2560 C.2     1  UNL1        0.2760
     26  O         23.6930  -23.3490  -11.7110 O.2     1  UNL1       -0.2660
     27  H         22.6260  -20.5840  -12.8190 H       1  UNL1        0.1690
     28  C         24.7710  -21.6350  -12.9470 C.ar    1  UNL1        0.1440
     29  N         25.6510  -20.9240  -12.2220 N.ar    1  UNL1       -0.2050
     30  S         26.8350  -20.3450  -13.2130 S.2     1  UNL1        0.0120
     31  C         26.2250  -21.0190  -14.6670 C.ar    1  UNL1        0.0360
     32  C         26.7450  -20.9300  -15.9710 C.2     1  UNL1        0.0210
     33  C         25.0550  -21.7210  -14.3700 C.ar    1  UNL1        0.0170
     34  C         26.0600  -21.5720  -17.0040 C.2     1  UNL1        0.0010
     35  C         24.8940  -22.2800  -16.7470 C.2     1  UNL1        0.0010
     36  C         24.3860  -22.3610  -15.4450 C.2     1  UNL1        0.0150
@<TRIPOS>BOND
     1    34    35    2
     2    34    32    1
     3    35    36    1
     4    32    31    2
     5    36    33    2
     6    31    33   ar
     7    31    30   ar
     8    33    28   ar
     9    30    29   ar
    10    28    25    1
    11    28    29   ar
    12    27    24    1
    13    24    25   am
    14    24     4    1
    15    25    26    2
    16     5     4    2
    17     5     6    1
    18     4     3    1
    19     6     1    2
    20     3     2    2
    21     1     2    1
    22     1     7    1
    23    10     7    2
    24     7     8   am
    25     8     9    1
    26     8    11    1
    27    11    12    1
    28    12    13    1
    29    22    21    1
    30    23    21    2
    31    23    19    1
    32    21    20    1
    33    13    19    1
    34    13    14    2
    35    19    16    2
    36    14    15    1
    37    20    18    2
    38    16    18    1
    39    16    15    1
    40    15    17    1
