@<TRIPOS>MOLECULE
33603_out_ligand_01.pdbqt
 37 41 0 0 0
SMALL
GASTEIGER

@<TRIPOS>ATOM
      1  C         18.5400  -22.1850  -10.4120 C.2     1  UNL1        0.0320
      2  C         19.4680  -23.1400   -9.9820 C.2     1  UNL1        0.0190
      3  C         20.7750  -23.1260  -10.4790 C.2     1  UNL1        0.0300
      4  C         21.1770  -22.1560  -11.4040 C.2     1  UNL1        0.0350
      5  C         20.2540  -21.1930  -11.8180 C.2     1  UNL1        0.0300
      6  C         18.9420  -21.2040  -11.3230 C.2     1  UNL1        0.0190
      7  C         17.1570  -22.2420   -9.8610 C.2     1  UNL1        0.2510
      8  N         16.8960  -23.2550   -8.9620 N.am    1  UNL1       -0.3570
      9  H         17.6780  -23.7320   -8.5330 H       1  UNL1        0.1620
     10  O         16.3310  -21.3930  -10.1800 O.2     1  UNL1       -0.2680
     11  C         15.6470  -23.2930   -8.2200 C.3     1  UNL1        0.1270
     12  C         15.6350  -24.3680   -7.1280 C.3     1  UNL1        0.0600
     13  C         15.7900  -23.7990   -5.7480 C.2     1  UNL1       -0.0290
     14  C         14.9540  -24.0250   -4.6720 C.2     1  UNL1        0.0960
     15  N         15.4340  -23.3250   -3.5980 N.pl3   1  UNL1       -0.3650
     16  C         16.5680  -22.6340   -3.9500 C.2     1  UNL1        0.0430
     17  H         15.0180  -23.3150   -2.6770 H       1  UNL1        0.1650
     18  C         17.3860  -21.7930   -3.1880 C.2     1  UNL1        0.0330
     19  C         16.8230  -22.9170   -5.2920 C.2     1  UNL1        0.0010
     20  C         18.4990  -21.2180   -3.8170 C.2     1  UNL1        0.0390
     21  C         18.7850  -21.4770   -5.1570 C.2     1  UNL1        0.0690
     22  C         17.9510  -22.3270   -5.8970 C.2     1  UNL1        0.0510
     23  O         19.8420  -20.9700   -5.8650 O.2     1  UNL1       -0.3560
     24  C         20.3640  -21.7790   -6.9110 C.3     1  UNL1        0.2100
     25  N         22.5070  -22.2130  -11.8530 N.am    1  UNL1       -0.3220
     26  C         23.6530  -21.7520  -11.2280 C.2     1  UNL1        0.2760
     27  O         23.6990  -21.1870  -10.1400 O.2     1  UNL1       -0.2660
     28  H         22.6800  -22.6460  -12.7570 H       1  UNL1        0.1690
     29  C         24.8720  -22.0080  -12.0320 C.ar    1  UNL1        0.1440
     30  N         25.8930  -22.6700  -11.4620 N.ar    1  UNL1       -0.2050
     31  S         27.1200  -22.8270  -12.5520 S.2     1  UNL1        0.0120
     32  C         26.3420  -22.0140  -13.8460 C.ar    1  UNL1        0.0360
     33  C         26.8170  -21.7600  -15.1440 C.2     1  UNL1        0.0210
     34  C         25.0790  -21.6050  -13.4130 C.ar    1  UNL1        0.0170
     35  C         25.9880  -21.0710  -16.0320 C.2     1  UNL1        0.0010
     36  C         24.7260  -20.6480  -15.6370 C.2     1  UNL1        0.0010
     37  C         24.2650  -20.9070  -14.3410 C.2     1  UNL1        0.0150
@<TRIPOS>BOND
     1    35    36    2
     2    35    33    1
     3    36    37    1
     4    33    32    2
     5    37    34    2
     6    32    34   ar
     7    32    31   ar
     8    34    29   ar
     9    28    25    1
    10    31    30   ar
    11    29    30   ar
    12    29    26    1
    13    25     4    1
    14    25    26   am
    15     5     4    2
    16     5     6    1
    17     4     3    1
    18     6     1    2
    19    26    27    2
    20     3     2    2
    21     1     2    1
    22     1     7    1
    23    10     7    2
    24     7     8   am
    25     8     9    1
    26     8    11    1
    27    11    12    1
    28    12    13    1
    29    24    23    1
    30    22    19    1
    31    22    21    2
    32    23    21    1
    33    13    19    1
    34    13    14    2
    35    19    16    2
    36    21    20    1
    37    14    15    1
    38    16    15    1
    39    16    18    1
    40    20    18    2
    41    15    17    1
