@<TRIPOS>MOLECULE
3363_out_ligand_01.pdbqt
 37 40 0 0 0
SMALL
GASTEIGER

@<TRIPOS>ATOM
      1  C         20.5260  -22.0700  -11.0820 C.2     1  UNL1        0.0320
      2  C         21.0520  -21.4560  -12.2270 C.2     1  UNL1        0.0190
      3  C         22.3640  -21.7260  -12.6260 C.2     1  UNL1        0.0250
      4  C         23.1520  -22.6070  -11.8870 C.2     1  UNL1        0.0220
      5  C         22.6510  -23.1930  -10.7240 C.2     1  UNL1        0.0250
      6  C         21.3380  -22.9270  -10.3260 C.2     1  UNL1        0.0190
      7  C         19.1330  -21.8220  -10.6130 C.2     1  UNL1        0.2510
      8  O         18.5700  -20.7700  -10.8920 O.2     1  UNL1       -0.2680
      9  N         18.5600  -22.8060   -9.8360 N.am    1  UNL1       -0.3560
     10  H         19.1400  -23.5560   -9.4820 H       1  UNL1        0.1620
     11  C         17.2440  -22.6600   -9.2330 C.3     1  UNL1        0.1370
     12  C         17.2160  -23.0110   -7.7090 C.3     1  UNL1        0.0070
     13  C         17.5330  -24.5170   -7.5400 C.3     1  UNL1        0.0420
     14  C         17.4040  -24.9750   -6.0860 C.3     1  UNL1        0.1680
     15  O         16.5430  -24.1480   -5.3050 O.3     1  UNL1       -0.3910
     16  C         15.3900  -23.7250   -6.0190 C.3     1  UNL1        0.1680
     17  C         15.7560  -22.8210   -7.1980 C.3     1  UNL1        0.0420
     18  C         18.2990  -22.1800   -6.9750 C.2     1  UNL1       -0.0450
     19  C         18.0100  -21.3530   -5.8730 C.2     1  UNL1        0.0080
     20  C         19.0090  -20.6050   -5.2370 C.2     1  UNL1        0.0040
     21  C         20.3240  -20.6680   -5.6850 C.2     1  UNL1        0.0420
     22  C         20.6290  -21.4870   -6.7600 C.2     1  UNL1        0.1170
     23  F         21.8920  -21.5580   -7.1980 F       1  UNL1       -0.2060
     24  C         19.6430  -22.2360   -7.3980 C.2     1  UNL1        0.0500
     25  N         24.5090  -22.8400  -12.2880 N.pl3   1  UNL1       -0.1810
     26  H         24.8450  -23.7220  -11.8900 H       1  UNL1        0.1460
     27  S         25.6150  -21.6500  -11.7350 S.O2    1  UNL1        0.2470
     28  O         26.8280  -22.3930  -11.4730 O.2     1  UNL1       -0.2050
     29  O         24.9700  -20.8060  -10.7540 O.2     1  UNL1       -0.2050
     30  C         25.8890  -20.6440  -13.1710 C.2     1  UNL1        0.0930
     31  C         25.4450  -21.0950  -14.4230 C.2     1  UNL1        0.0450
     32  C         25.6700  -20.3190  -15.5580 C.2     1  UNL1        0.0120
     33 BR         25.0740  -20.9320  -17.2450 Br      1  UNL1       -0.0510
     34  C         26.3270  -19.0970  -15.4620 C.2     1  UNL1        0.0200
     35  C         26.7540  -18.6400  -14.2140 C.2     1  UNL1        0.0220
     36  C         26.5360  -19.4070  -13.0610 C.2     1  UNL1        0.0340
     37 BR         27.1210  -18.6470  -11.4240 Br      1  UNL1       -0.0490
@<TRIPOS>BOND
     1    33    32    1
     2    32    34    2
     3    32    31    1
     4    34    35    1
     5    31    30    2
     6    35    36    2
     7    30    36    1
     8    30    27    1
     9    36    37    1
    10     3     2    1
    11     3     4    2
    12    25    26    1
    13    25     4    1
    14    25    27    1
    15     2     1    2
    16     4     5    1
    17    27    28    2
    18    27    29    2
    19     1     7    1
    20     1     6    1
    21     8     7    2
    22     5     6    2
    23     7     9   am
    24     9    10    1
    25     9    11    1
    26    11    12    1
    27    12    13    1
    28    12    17    1
    29    12    18    1
    30    13    14    1
    31    24    18    2
    32    24    22    1
    33    23    22    1
    34    17    16    1
    35    18    19    1
    36    22    21    2
    37    14    15    1
    38    16    15    1
    39    19    20    2
    40    21    20    1
