@<TRIPOS>MOLECULE
33631_out_ligand_01.pdbqt
 34 37 0 0 0
SMALL
GASTEIGER

@<TRIPOS>ATOM
      1  C         23.0610  -22.0550  -10.0730 C.2     1  UNL1        0.2450
      2  O         22.9940  -21.0130   -9.4220 O.2     1  UNL1       -0.2710
      3  N         22.0530  -22.6130  -10.8390 N.am    1  UNL1       -0.3250
      4  H         22.2380  -23.5160  -11.2590 H       1  UNL1        0.1690
      5  C         20.7260  -22.1510  -10.9700 C.2     1  UNL1        0.0350
      6  C         20.3170  -21.1990  -11.9040 C.2     1  UNL1        0.0290
      7  C         18.9860  -20.7750  -11.9470 C.2     1  UNL1        0.0030
      8  C         18.0540  -21.2970  -11.0510 C.2     1  UNL1        0.0150
      9  C         18.4400  -22.2540  -10.1060 C.2     1  UNL1        0.0160
     10  C         19.7780  -22.6800  -10.0820 C.2     1  UNL1        0.0450
     11  C         17.4670  -22.7850   -9.1580 C.ar    1  UNL1        0.1890
     12  N         16.1570  -22.9220   -9.4230 N.ar    1  UNL1       -0.1060
     13  O         15.6340  -23.4630   -8.2510 O.2     1  UNL1       -0.1950
     14  C         16.6800  -23.6080   -7.3900 C.ar    1  UNL1        0.1770
     15  N         17.8250  -23.2090   -7.8960 N.ar    1  UNL1       -0.2030
     16  C         16.3620  -24.1670   -6.0470 C.3     1  UNL1        0.0650
     17  C         14.9680  -23.7550   -5.5750 C.3     1  UNL1        0.0130
     18  C         15.1560  -22.3650   -4.9770 C.3     1  UNL1        0.0010
     19  C         16.6000  -22.3140   -4.4810 C.3     1  UNL1        0.0010
     20  C         17.2640  -23.6100   -4.9460 C.3     1  UNL1        0.0130
     21  C         24.3460  -22.8980  -10.0460 C.3     1  UNL1        0.1810
     22  C         24.2200  -23.9760   -8.9800 C.3     1  UNL1        0.0430
     23  N         24.4960  -23.5420  -11.3660 N.3     1  UNL1       -0.3020
     24  H         23.6620  -23.5160  -11.9580 H       1  UNL1        0.1730
     25  S         25.9220  -23.3250  -12.2220 S.O2    1  UNL1        0.2590
     26  O         26.4220  -22.0100  -11.8830 O.2     1  UNL1       -0.2010
     27  O         26.7150  -24.5180  -12.0340 O.2     1  UNL1       -0.2010
     28  C         25.3950  -23.2840  -13.9160 C.2     1  UNL1        0.0790
     29  C         25.3060  -24.4720  -14.6490 C.2     1  UNL1        0.0260
     30  C         24.9360  -24.4240  -15.9930 C.2     1  UNL1        0.0080
     31  C         24.6580  -23.1960  -16.6090 C.2     1  UNL1       -0.0620
     32  C         24.2540  -23.1460  -18.0530 C.3     1  UNL1        0.0480
     33  C         24.7130  -22.0190  -15.8500 C.2     1  UNL1        0.0080
     34  C         25.0780  -22.0590  -14.5040 C.2     1  UNL1        0.0260
@<TRIPOS>BOND
     1    32    31    1
     2    31    30    2
     3    31    33    1
     4    30    29    1
     5    33    34    2
     6    29    28    2
     7    34    28    1
     8    28    25    1
     9    25    27    2
    10    25    26    2
    11    25    23    1
    12    24    23    1
    13     7     6    1
    14     7     8    2
    15     6     5    2
    16    23    21    1
    17     4     3    1
    18     8     9    1
    19     5     3    1
    20     5    10    1
    21     3     1   am
    22     9    10    2
    23     9    11    1
    24     1    21    1
    25     1     2    2
    26    21    22    1
    27    12    11   ar
    28    12    13   ar
    29    11    15   ar
    30    13    14   ar
    31    15    14   ar
    32    14    16    1
    33    16    17    1
    34    16    20    1
    35    17    18    1
    36    18    19    1
    37    20    19    1
