@<TRIPOS>MOLECULE
33641_out_ligand_01.pdbqt
 34 36 0 0 0
SMALL
GASTEIGER

@<TRIPOS>ATOM
      1  N         25.8980  -21.4490  -13.5380 N.am    1  UNL1       -0.3080
      2  C         26.2260  -20.1280  -13.8590 C.2     1  UNL1        0.0120
      3  C         26.7330  -19.1890  -12.7960 C.3     1  UNL1        0.0680
      4  C         26.1090  -19.7070  -15.1300 C.2     1  UNL1        0.0330
      5  C         25.6130  -20.5750  -16.1820 C.2     1  UNL1       -0.0340
      6  C         25.4530  -19.9230  -17.5300 C.3     1  UNL1        0.0500
      7  C         25.3350  -21.8690  -15.9070 C.2     1  UNL1        0.1180
      8  C         24.8490  -22.7890  -16.8790 C.1     1  UNL1        0.1050
      9  N         24.4360  -23.5120  -17.6860 N.1     1  UNL1       -0.1910
     10  C         25.5420  -22.3790  -14.5200 C.2     1  UNL1        0.2690
     11  O         25.4320  -23.5790  -14.2700 O.2     1  UNL1       -0.2660
     12  C         25.9750  -21.9430  -12.1560 C.3     1  UNL1        0.2350
     13  C         24.6790  -21.7230  -11.3680 C.2     1  UNL1        0.2400
     14  N         23.5660  -22.2700  -11.9880 N.am    1  UNL1       -0.3260
     15  H         23.7360  -22.7280  -12.8840 H       1  UNL1        0.1690
     16  O         24.6880  -21.0720  -10.3270 O.2     1  UNL1       -0.2710
     17  C         22.2290  -22.2440  -11.5520 C.2     1  UNL1        0.0340
     18  C         21.7590  -22.9370  -10.4350 C.2     1  UNL1        0.0300
     19  C         20.4100  -22.8520  -10.0670 C.2     1  UNL1        0.0190
     20  C         19.5130  -22.0750  -10.8110 C.2     1  UNL1        0.0320
     21  C         19.9760  -21.3970  -11.9450 C.2     1  UNL1        0.0190
     22  C         21.3270  -21.4760  -12.3040 C.2     1  UNL1        0.0300
     23  C         18.0850  -22.0390  -10.3800 C.2     1  UNL1        0.2510
     24  N         17.7240  -22.8920   -9.3610 N.am    1  UNL1       -0.3530
     25  H         18.3480  -23.6390   -9.1010 H       1  UNL1        0.1630
     26  O         17.3000  -21.2850  -10.9380 O.2     1  UNL1       -0.2680
     27  C         16.3430  -23.0390   -8.9520 C.3     1  UNL1        0.1610
     28  C         16.2450  -23.1560   -7.4520 C.2     1  UNL1       -0.0410
     29  C         15.2350  -22.4910   -6.7460 C.2     1  UNL1        0.0090
     30  C         15.1590  -22.5930   -5.3530 C.2     1  UNL1        0.0070
     31  C         16.0990  -23.3500   -4.6440 C.2     1  UNL1       -0.0620
     32  C         16.0070  -23.4860   -3.1530 C.3     1  UNL1        0.0480
     33  C         17.1060  -24.0180   -5.3490 C.2     1  UNL1        0.0070
     34  C         17.1800  -23.9200   -6.7400 C.2     1  UNL1        0.0090
@<TRIPOS>BOND
     1     9     8    3
     2     6     5    1
     3     8     7    1
     4     5     7    2
     5     5     4    1
     6     7    10    1
     7     4     2    2
     8    10    11    2
     9    10     1   am
    10     2     1    1
    11     2     3    1
    12     1    12    1
    13    15    14    1
    14    22    21    1
    15    22    17    2
    16    12    13    1
    17    14    17    1
    18    14    13   am
    19    21    20    2
    20    17    18    1
    21    13    16    2
    22    26    23    2
    23    20    23    1
    24    20    19    1
    25    18    19    2
    26    23    24   am
    27    24    25    1
    28    24    27    1
    29    27    28    1
    30    28    29    2
    31    28    34    1
    32    29    30    1
    33    34    33    2
    34    30    31    2
    35    33    31    1
    36    31    32    1
