@<TRIPOS>MOLECULE
33662_out_ligand_01.pdbqt
 35 39 0 0 0
SMALL
GASTEIGER

@<TRIPOS>ATOM
      1  C         25.0050  -22.0950  -10.9920 C.ar    1  UNL1        0.1740
      2  N         24.5940  -20.9850  -10.3620 N.ar    1  UNL1       -0.1090
      3  O         23.3970  -21.3780   -9.7570 O.2     1  UNL1       -0.1860
      4  C         23.2070  -22.6850  -10.0910 C.ar    1  UNL1        0.2640
      5  N         24.1660  -23.1800  -10.8550 N.ar    1  UNL1       -0.1980
      6  C         22.0400  -23.3920   -9.6000 C.2     1  UNL1        0.2970
      7  O         22.0700  -24.4970   -9.0650 O.2     1  UNL1       -0.2640
      8  N         20.8520  -22.7040   -9.8020 N.am    1  UNL1       -0.3490
      9  H         20.9100  -21.8590  -10.3620 H       1  UNL1        0.1630
     10  C         19.5500  -23.3020   -9.5390 C.3     1  UNL1        0.0880
     11  C         19.4110  -23.6480   -8.0560 C.3     1  UNL1        0.0550
     12  C         18.0110  -24.1830   -7.7510 C.3     1  UNL1        0.2750
     13  N         16.9290  -23.2880   -8.1760 N.3     1  UNL1        0.0920
     14  C         17.0560  -22.9490   -9.6010 C.3     1  UNL1        0.2750
     15  C         18.4190  -22.3710   -9.9830 C.3     1  UNL1        0.0550
     16  C         16.8040  -22.1110   -7.2990 C.3     1  UNL1        0.3110
     17  C         16.5400  -22.4620   -5.8500 C.2     1  UNL1       -0.0300
     18  C         17.4640  -22.1130   -4.8520 C.2     1  UNL1        0.0090
     19  C         17.2170  -22.4240   -3.5150 C.2     1  UNL1        0.0010
     20  C         16.0430  -23.0830   -3.1580 C.2     1  UNL1        0.0000
     21  C         15.1150  -23.4310   -4.1370 C.2     1  UNL1        0.0010
     22  C         15.3600  -23.1220   -5.4760 C.2     1  UNL1        0.0090
     23  C         26.2680  -22.1600  -11.7900 C.3     1  UNL1        0.2160
     24  N         26.0080  -21.8220  -13.1910 N.ar    1  UNL1       -0.2940
     25  C         25.6360  -22.8840  -14.0150 C.ar    1  UNL1        0.2620
     26  C         25.2860  -22.5470  -15.4050 C.ar    1  UNL1        0.0610
     27  O         25.6080  -24.0580  -13.6550 O.2     1  UNL1       -0.2670
     28  C         24.8560  -23.5300  -16.3050 C.2     1  UNL1        0.0190
     29  C         25.4010  -21.2160  -15.7920 C.ar    1  UNL1        0.0740
     30  C         24.5360  -23.1710  -17.6130 C.2     1  UNL1        0.0010
     31  C         24.6460  -21.8390  -18.0130 C.2     1  UNL1        0.0020
     32  C         25.0770  -20.8680  -17.1050 C.2     1  UNL1        0.0320
     33  N         25.8350  -20.2190  -14.9130 N.ar    1  UNL1       -0.2350
     34  C         26.1100  -20.5390  -13.6890 C.ar    1  UNL1        0.1060
     35  C         26.5760  -19.4240  -12.7820 C.3     1  UNL1        0.0910
@<TRIPOS>BOND
     1    31    30    2
     2    31    32    1
     3    30    28    1
     4    32    29    2
     5    28    26    2
     6    29    26   ar
     7    29    33   ar
     8    26    25   ar
     9    33    34   ar
    10    25    27    2
    11    25    24   ar
    12    34    24   ar
    13    34    35    1
    14    24    23    1
    15    23     1    1
    16     1     5   ar
    17     1     2   ar
    18     5     4   ar
    19     2     3   ar
    20     9     8    1
    21     4     3   ar
    22     4     6    1
    23    15    14    1
    24    15    10    1
    25     8     6   am
    26     8    10    1
    27    14    13    1
    28     6     7    2
    29    10    11    1
    30    13    12    1
    31    13    16    1
    32    11    12    1
    33    16    17    1
    34    17    22    2
    35    17    18    1
    36    22    21    1
    37    18    19    2
    38    21    20    2
    39    19    20    1
