@<TRIPOS>MOLECULE
33668_out_ligand_01.pdbqt
 33 36 0 0 0
SMALL
GASTEIGER

@<TRIPOS>ATOM
      1  C         19.0170  -22.2840  -10.2010 C.2     1  UNL1        0.0320
      2  C         19.3330  -21.4450  -11.2750 C.2     1  UNL1        0.0190
      3  C         20.6470  -21.3870  -11.7520 C.2     1  UNL1        0.0300
      4  C         21.6570  -22.1590  -11.1620 C.2     1  UNL1        0.0360
      5  C         21.3290  -23.0150  -10.1100 C.2     1  UNL1        0.0300
      6  C         20.0140  -23.0850   -9.6360 C.2     1  UNL1        0.0190
      7  N         22.9530  -22.0350  -11.6980 N.am    1  UNL1       -0.3090
      8  C         24.1070  -21.6430  -11.0460 C.2     1  UNL1        0.3270
      9  O         24.1320  -21.1980   -9.9000 O.2     1  UNL1       -0.2460
     10  N         25.2630  -21.6870  -11.8480 N.am    1  UNL1       -0.2990
     11  C         26.4120  -20.9000  -11.4110 C.3     1  UNL1        0.1340
     12  C         25.4390  -22.4930  -13.0170 C.2     1  UNL1        0.0450
     13  C         26.4080  -19.5140  -12.0400 C.3     1  UNL1        0.0210
     14  C         26.1440  -19.5390  -13.5430 C.3     1  UNL1        0.0060
     15  C         26.8470  -20.6890  -14.2630 C.3     1  UNL1        0.0410
     16  C         26.2030  -22.0580  -14.1250 C.2     1  UNL1       -0.0310
     17  C         26.3900  -22.9440  -15.2060 C.2     1  UNL1        0.0090
     18  C         25.8190  -24.2160  -15.2150 C.2     1  UNL1        0.0010
     19  C         25.0640  -24.6380  -14.1310 C.2     1  UNL1        0.0020
     20  C         24.8850  -23.7880  -13.0400 C.2     1  UNL1        0.0300
     21  H         23.0330  -22.0760  -12.7040 H       1  UNL1        0.1700
     22  C         17.6350  -22.3750   -9.6620 C.2     1  UNL1        0.2510
     23  O         16.6680  -22.2400  -10.4000 O.2     1  UNL1       -0.2680
     24  N         17.5340  -22.6550   -8.3190 N.am    1  UNL1       -0.3530
     25  H         18.3510  -22.9540   -7.8050 H       1  UNL1        0.1630
     26  C         16.2400  -22.8100   -7.6970 C.3     1  UNL1        0.1620
     27  C         16.3690  -23.0050   -6.2100 C.2     1  UNL1       -0.0230
     28  C         17.5280  -23.6290   -5.7130 C.2     1  UNL1        0.0100
     29  C         17.7110  -23.8210   -4.3430 C.2     1  UNL1        0.0010
     30  C         16.7410  -23.3890   -3.4450 C.2     1  UNL1        0.0010
     31  C         15.5920  -22.7590   -3.9160 C.2     1  UNL1        0.0190
     32  C         15.4050  -22.5630   -5.2890 C.2     1  UNL1        0.0180
     33 BR         13.8190  -21.6690   -5.8310 Br      1  UNL1       -0.0510
@<TRIPOS>BOND
     1    18    17    2
     2    18    19    1
     3    17    16    1
     4    15    16    1
     5    15    14    1
     6    19    20    2
     7    16    12    2
     8    14    13    1
     9    20    12    1
    10    12    10    1
    11    21     7    1
    12    13    11    1
    13    10    11    1
    14    10     8   am
    15     3     2    1
    16     3     4    2
    17     7     4    1
    18     7     8   am
    19     2     1    2
    20     4     5    1
    21     8     9    2
    22    23    22    2
    23     1    22    1
    24     1     6    1
    25     5     6    2
    26    22    24   am
    27    24    25    1
    28    24    26    1
    29    26    27    1
    30    27    28    2
    31    27    32    1
    32    33    32    1
    33    28    29    1
    34    32    31    2
    35    29    30    2
    36    31    30    1
