@<TRIPOS>MOLECULE
3367_out_ligand_01.pdbqt
 42 47 0 0 0
SMALL
GASTEIGER

@<TRIPOS>ATOM
      1  C         21.6130  -23.7210   -9.3940 C.2     1  UNL1        0.2560
      2  O         22.0190  -24.7110   -8.7930 O.2     1  UNL1       -0.2670
      3  N         22.3910  -22.7640  -10.0160 N.am    1  UNL1       -0.3230
      4  H         21.9510  -21.8920  -10.2850 H       1  UNL1        0.1690
      5  C         20.1370  -23.4900   -9.4320 C.2     1  UNL1        0.0330
      6  C         19.2640  -24.0660   -8.5000 C.2     1  UNL1        0.0430
      7  C         17.8920  -23.7410   -8.5230 C.2     1  UNL1        0.0930
      8  C         17.3960  -22.8250   -9.4610 C.2     1  UNL1        0.0330
      9  C         18.2730  -22.2660  -10.3980 C.2     1  UNL1        0.0210
     10 BR         15.5990  -22.2280   -9.5590 Br      1  UNL1       -0.0490
     11  C         19.6310  -22.5940  -10.3830 C.2     1  UNL1        0.0180
     12  S         16.8640  -24.4340   -7.2410 S.O2    1  UNL1        0.2490
     13  O         15.6200  -24.8400   -7.8680 O.2     1  UNL1       -0.2050
     14  O         17.7020  -25.4130   -6.5830 O.2     1  UNL1       -0.2050
     15  N         16.5100  -23.1130   -6.2210 N.pl3   1  UNL1       -0.1670
     16  C         17.6130  -22.3390   -5.7240 C.2     1  UNL1        0.0320
     17  C         18.7280  -21.8840   -6.4070 C.2     1  UNL1        0.0250
     18  C         17.3410  -21.8650   -4.4440 C.2     1  UNL1       -0.0340
     19  C         19.6010  -20.9930   -5.7660 C.2     1  UNL1        0.0020
     20  C         19.3320  -20.5370   -4.4680 C.2     1  UNL1        0.0010
     21  C         18.1870  -20.9690   -3.7980 C.2     1  UNL1        0.0090
     22  C         16.0070  -22.3270   -3.9670 C.3     1  UNL1        0.0610
     23  C         15.6040  -23.3670   -5.0360 C.3     1  UNL1        0.0800
     24  C         14.1360  -23.2350   -5.3950 C.3     1  UNL1        0.0280
     25  C         23.7930  -22.8220  -10.2080 C.2     1  UNL1        0.0350
     26  C         24.6300  -23.7150   -9.5360 C.2     1  UNL1        0.0290
     27  C         26.0050  -23.7350   -9.7930 C.2     1  UNL1        0.0030
     28  C         26.5570  -22.8590  -10.7220 C.2     1  UNL1        0.0090
     29  C         25.7360  -21.9500  -11.4080 C.2     1  UNL1       -0.0380
     30  C         24.3540  -21.9440  -11.1460 C.2     1  UNL1        0.0380
     31  C         26.3400  -20.9570  -12.3750 C.3     1  UNL1        0.1740
     32  N         25.9330  -21.2340  -13.7350 N.am    1  UNL1       -0.2760
     33  C         25.4830  -20.2760  -14.6040 C.2     1  UNL1        0.2620
     34  O         25.2880  -19.0900  -14.4120 O.2     1  UNL1       -0.2670
     35  C         25.2610  -20.9510  -15.8820 C.2     1  UNL1        0.0480
     36  C         24.8130  -20.4610  -17.0930 C.2     1  UNL1        0.0180
     37  C         25.5910  -22.2840  -15.7100 C.2     1  UNL1        0.0480
     38  C         24.7060  -21.3700  -18.1520 C.2     1  UNL1        0.0010
     39  C         25.0470  -22.7260  -17.9740 C.2     1  UNL1        0.0010
     40  C         25.4990  -23.1980  -16.7390 C.2     1  UNL1        0.0180
     41  C         26.0210  -22.4620  -14.3250 C.2     1  UNL1        0.2620
     42  O         26.3790  -23.5210  -13.8490 O.2     1  UNL1       -0.2670
@<TRIPOS>BOND
     1    38    39    2
     2    38    36    1
     3    39    40    1
     4    36    35    2
     5    40    37    2
     6    35    37    1
     7    35    33    1
     8    37    41    1
     9    33    34    2
    10    33    32   am
    11    41    42    2
    12    41    32   am
    13    32    31    1
    14    31    29    1
    15    29    30    1
    16    29    28    2
    17    30    25    2
    18    28    27    1
    19     9    11    1
    20     9     8    2
    21    11     5    2
    22     4     3    1
    23    25     3    1
    24    25    26    1
    25     3     1   am
    26    27    26    2
    27    10     8    1
    28     8     7    1
    29     5     1    1
    30     5     6    1
    31     1     2    2
    32     7     6    2
    33     7    12    1
    34    13    12    2
    35    12    14    2
    36    12    15    1
    37    17    19    1
    38    17    16    2
    39    15    16    1
    40    15    23    1
    41    19    20    2
    42    16    18    1
    43    24    23    1
    44    23    22    1
    45    20    21    1
    46    18    22    1
    47    18    21    2
