@<TRIPOS>MOLECULE
33673_out_ligand_01.pdbqt
 33 37 0 0 0
SMALL
GASTEIGER

@<TRIPOS>ATOM
      1  C         21.1880  -22.4180  -10.6390 C.2     1  UNL1        0.1220
      2  N         21.2520  -21.7620  -11.7640 N.2     1  UNL1       -0.2500
      3  C         20.0760  -21.2060  -12.2410 C.2     1  UNL1        0.1370
      4  C         18.9030  -21.2870  -11.5950 C.2     1  UNL1        0.1380
      5  N         18.8430  -21.9560  -10.3850 N.pl3   1  UNL1       -0.2400
      6  N         17.7750  -22.1290   -9.5730 N.2     1  UNL1       -0.1670
      7  C         18.2550  -22.7860   -8.5060 C.2     1  UNL1        0.0910
      8  C         19.6340  -23.0780   -8.6540 C.2     1  UNL1        0.0690
      9  C         19.9840  -22.5340   -9.8700 C.2     1  UNL1        0.0950
     10  S         22.6050  -23.2020   -9.9940 S.3     1  UNL1       -0.0990
     11  C         23.7040  -21.7680   -9.8710 C.3     1  UNL1        0.1840
     12  C         24.6990  -21.7570  -11.0260 C.2     1  UNL1        0.2310
     13  N         24.4310  -22.7280  -11.9760 N.am    1  UNL1       -0.3260
     14  H         23.5570  -23.2370  -11.8620 H       1  UNL1        0.1690
     15  O         25.6080  -20.9310  -11.0710 O.2     1  UNL1       -0.2720
     16  C         25.1730  -23.0360  -13.1340 C.2     1  UNL1        0.0350
     17  C         26.1870  -24.0010  -13.1750 C.2     1  UNL1        0.0290
     18  C         26.8490  -24.2760  -14.3740 C.2     1  UNL1        0.0040
     19  C         26.5060  -23.6010  -15.5390 C.2     1  UNL1        0.0180
     20  C         25.5030  -22.6160  -15.5130 C.2     1  UNL1        0.0020
     21  C         24.8370  -22.3470  -14.3120 C.2     1  UNL1        0.0480
     22  S         25.0630  -21.7850  -17.0270 S.3     1  UNL1       -0.1340
     23  C         24.3690  -23.1720  -17.9720 C.3     1  UNL1        0.0950
     24  C         17.4170  -23.1080   -7.3570 C.2     1  UNL1        0.0050
     25  C         16.3490  -23.9920   -7.5690 C.2     1  UNL1        0.0150
     26  C         15.4790  -24.3080   -6.5310 C.2     1  UNL1        0.0020
     27  C         15.6710  -23.7460   -5.2730 C.2     1  UNL1        0.0120
     28  C         16.7410  -22.8630   -5.0300 C.2     1  UNL1       -0.0250
     29  C         16.9190  -22.3050   -3.7530 C.2     1  UNL1        0.0120
     30  C         17.6350  -22.5310   -6.0780 C.2     1  UNL1       -0.0130
     31  C         17.9550  -21.4130   -3.4950 C.2     1  UNL1        0.0010
     32  C         18.8360  -21.0680   -4.5110 C.2     1  UNL1        0.0010
     33  C         18.6820  -21.6260   -5.7840 C.2     1  UNL1        0.0130
@<TRIPOS>BOND
     1    23    22    1
     2    22    20    1
     3    19    20    2
     4    19    18    1
     5    20    21    1
     6    18    17    2
     7    21    16    2
     8    17    16    1
     9    16    13    1
    10     3     2    1
    11     3     4    2
    12    13    14    1
    13    13    12   am
    14     2     1    2
    15     4     5    1
    16    15    12    2
    17    12    11    1
    18     1    10    1
    19     1     9    1
    20     5     9    1
    21     5     6    1
    22    10    11    1
    23     9     8    2
    24     6     7    2
    25     8     7    1
    26     7    24    1
    27    25    24    2
    28    25    26    1
    29    24    30    1
    30    26    27    2
    31    30    33    1
    32    30    28    2
    33    33    32    2
    34    27    28    1
    35    28    29    1
    36    32    31    1
    37    29    31    2
