@<TRIPOS>MOLECULE
33684_out_ligand_01.pdbqt
 36 39 0 0 0
SMALL
GASTEIGER

@<TRIPOS>ATOM
      1  C         21.0740  -22.3680  -10.8060 C.ar    1  UNL1        0.1960
      2  N         21.3870  -21.8760  -11.9850 N.ar    1  UNL1       -0.1220
      3  N         20.2520  -21.3260  -12.5280 N.ar    1  UNL1       -0.1290
      4  C         19.2660  -21.5140  -11.6760 C.ar    1  UNL1        0.1580
      5  C         17.8910  -21.1590  -11.7040 C.2     1  UNL1        0.0540
      6  C         17.0990  -21.4910  -10.6650 C.2     1  UNL1        0.0220
      7  C         17.6130  -22.2200   -9.5040 C.2     1  UNL1        0.0480
      8  C         18.9250  -22.5310   -9.4670 C.2     1  UNL1        0.1180
      9  N         19.7350  -22.1840  -10.5510 N.ar    1  UNL1       -0.2820
     10  S         22.1730  -23.1210   -9.7030 S.3     1  UNL1       -0.0810
     11  C         23.4040  -21.7980   -9.4870 C.3     1  UNL1        0.1850
     12  C         24.4520  -21.8520  -10.5900 C.2     1  UNL1        0.2310
     13  O         25.3300  -20.9970  -10.6610 O.2     1  UNL1       -0.2720
     14  N         24.2830  -22.9230  -11.4520 N.am    1  UNL1       -0.3270
     15  H         23.4230  -23.4610  -11.3410 H       1  UNL1        0.1690
     16  C         25.0740  -23.2710  -12.5640 C.2     1  UNL1        0.0350
     17  C         26.2720  -23.9470  -12.3030 C.2     1  UNL1        0.0290
     18  C         27.1210  -24.3240  -13.3440 C.2     1  UNL1        0.0030
     19  C         26.7780  -24.0290  -14.6620 C.2     1  UNL1        0.0160
     20  C         25.5810  -23.3570  -14.9470 C.2     1  UNL1        0.0500
     21  C         24.7370  -22.9770  -13.8860 C.2     1  UNL1        0.0450
     22  C         25.2010  -23.0140  -16.3660 C.3     1  UNL1        0.4170
     23  F         26.2790  -22.8580  -17.1820 F       1  UNL1       -0.1660
     24  F         24.4270  -23.9750  -16.9440 F       1  UNL1       -0.1660
     25  F         24.4900  -21.8550  -16.4700 F       1  UNL1       -0.1660
     26  C         16.6970  -22.5280   -8.3570 C.2     1  UNL1        0.2570
     27  O         15.5050  -22.7070   -8.5750 O.2     1  UNL1       -0.2670
     28  N         17.3490  -22.6270   -7.1440 N.am    1  UNL1       -0.3230
     29  H         18.3580  -22.5600   -7.1530 H       1  UNL1        0.1690
     30  C         16.7690  -22.8770   -5.8810 C.2     1  UNL1        0.0370
     31  C         17.2600  -22.3610   -4.6770 C.2     1  UNL1        0.0290
     32  C         16.6310  -22.6600   -3.4610 C.2     1  UNL1        0.0050
     33  C         15.5070  -23.4800   -3.4400 C.2     1  UNL1        0.0420
     34  C         15.0220  -23.9930   -4.6350 C.2     1  UNL1        0.1180
     35  F         13.9420  -24.7850   -4.6230 F       1  UNL1       -0.2060
     36  C         15.6390  -23.7030   -5.8490 C.2     1  UNL1        0.0710
@<TRIPOS>BOND
     1    23    22    1
     2    24    22    1
     3    25    22    1
     4    22    20    1
     5    20    19    2
     6    20    21    1
     7    19    18    1
     8    21    16    2
     9    18    17    2
    10    16    17    1
    11    16    14    1
    12     3     2   ar
    13     3     4   ar
    14     2     1   ar
    15     5     4    1
    16     5     6    2
    17     4     9   ar
    18    14    15    1
    19    14    12   am
    20     1     9   ar
    21     1    10    1
    22     6     7    1
    23    13    12    2
    24    12    11    1
    25     9     8    1
    26    10    11    1
    27     7     8    2
    28     7    26    1
    29    27    26    2
    30    26    28   am
    31    29    28    1
    32    28    30    1
    33    30    36    2
    34    30    31    1
    35    36    34    1
    36    31    32    2
    37    34    35    1
    38    34    33    2
    39    32    33    1
