@<TRIPOS>MOLECULE
33691_out_ligand_01.pdbqt
 31 34 0 0 0
SMALL
GASTEIGER

@<TRIPOS>ATOM
      1  C         19.9330  -21.8470  -11.0890 C.2     1  UNL1        0.0320
      2  C         18.7890  -21.5950  -11.8580 C.2     1  UNL1        0.0180
      3  C         17.5200  -21.7930  -11.3060 C.2     1  UNL1        0.0190
      4  C         17.3880  -22.2240   -9.9790 C.2     1  UNL1        0.0450
      5  C         18.5290  -22.4520   -9.1980 C.2     1  UNL1       -0.0380
      6  C         19.8000  -22.2680   -9.7570 C.2     1  UNL1        0.0250
      7  C         18.3570  -22.9280   -7.7850 C.3     1  UNL1        0.0770
      8  C         17.0620  -22.3280   -7.2370 C.3     1  UNL1        0.1690
      9  O         15.9470  -22.6790   -8.0850 O.3     1  UNL1       -0.3070
     10  C         16.0290  -22.4670   -9.4220 C.2     1  UNL1        0.2940
     11  O         15.0470  -22.5010  -10.1510 O.2     1  UNL1       -0.2590
     12  C         21.3060  -21.6490  -11.6350 C.2     1  UNL1        0.2560
     13  O         21.4280  -20.9650  -12.6430 O.2     1  UNL1       -0.2670
     14  N         22.3170  -22.2430  -10.9010 N.am    1  UNL1       -0.3230
     15  H         22.0580  -22.6610  -10.0170 H       1  UNL1        0.1690
     16  C         23.6950  -22.2530  -11.2010 C.2     1  UNL1        0.0350
     17  C         24.6420  -21.4560  -10.5550 C.2     1  UNL1        0.0290
     18  C         25.9900  -21.5180  -10.9190 C.2     1  UNL1        0.0030
     19  C         26.4060  -22.3780  -11.9320 C.2     1  UNL1        0.0160
     20  C         25.4770  -23.1910  -12.5930 C.2     1  UNL1        0.0500
     21  C         24.1210  -23.1120  -12.2230 C.2     1  UNL1        0.0450
     22  C         25.9100  -24.1080  -13.7070 C.3     1  UNL1        0.4170
     23  F         26.2910  -23.4460  -14.8350 F       1  UNL1       -0.1660
     24  F         24.9190  -24.9610  -14.0890 F       1  UNL1       -0.1660
     25  F         26.9680  -24.8960  -13.3640 F       1  UNL1       -0.1660
     26  C         16.8010  -22.8150   -5.8250 C.2     1  UNL1       -0.0290
     27  C         15.5440  -23.3050   -5.4390 C.2     1  UNL1        0.0100
     28  C         15.3330  -23.7760   -4.1410 C.2     1  UNL1        0.0010
     29  C         16.3740  -23.7680   -3.2170 C.2     1  UNL1        0.0000
     30  C         17.6290  -23.2880   -3.5870 C.2     1  UNL1        0.0010
     31  C         17.8430  -22.8170   -4.8840 C.2     1  UNL1        0.0100
@<TRIPOS>BOND
     1    23    22    1
     2    24    22    1
     3    22    25    1
     4    22    20    1
     5    13    12    2
     6    20    21    1
     7    20    19    2
     8    21    16    2
     9    19    18    1
    10     2     3    1
    11     2     1    2
    12    12     1    1
    13    12    14   am
    14     3     4    2
    15    16    14    1
    16    16    17    1
    17     1     6    1
    18    18    17    2
    19    14    15    1
    20    11    10    2
    21     4    10    1
    22     4     5    1
    23     6     5    2
    24    10     9    1
    25     5     7    1
    26     9     8    1
    27     7     8    1
    28     8    26    1
    29    26    27    2
    30    26    31    1
    31    27    28    1
    32    31    30    2
    33    28    29    2
    34    30    29    1
