@<TRIPOS>MOLECULE
33694_out_ligand_01.pdbqt
 29 32 0 0 0
SMALL
GASTEIGER

@<TRIPOS>ATOM
      1  C         22.7770  -22.0480  -12.0690 C.2     1  UNL1        0.0320
      2  C         22.8980  -22.8550  -10.9390 C.2     1  UNL1        0.0190
      3  C         21.7820  -23.1080  -10.1300 C.2     1  UNL1        0.0310
      4  C         20.5190  -22.5670  -10.4200 C.2     1  UNL1        0.0430
      5  C         20.4090  -21.7360  -11.5550 C.2     1  UNL1       -0.0300
      6  C         21.5350  -21.4790  -12.3620 C.2     1  UNL1        0.0260
      7  C         19.1130  -21.0700  -11.9340 C.3     1  UNL1        0.0420
      8  C         17.9310  -21.8020  -11.3320 C.3     1  UNL1        0.0250
      9  C         18.1710  -22.0010   -9.8470 C.3     1  UNL1        0.1330
     10  N         19.3780  -22.7930   -9.5680 N.am    1  UNL1       -0.3130
     11  C         19.3840  -23.7500   -8.5370 C.2     1  UNL1        0.2580
     12  O         20.1300  -24.7230   -8.4530 O.2     1  UNL1       -0.2670
     13  C         23.9320  -21.7350  -12.9580 C.2     1  UNL1        0.2510
     14  O         25.0610  -22.1060  -12.6530 O.2     1  UNL1       -0.2680
     15  N         23.6530  -21.0110  -14.0950 N.am    1  UNL1       -0.3540
     16  H         22.7800  -20.4990  -14.1470 H       1  UNL1        0.1620
     17  C         24.7100  -20.5060  -14.9550 C.3     1  UNL1        0.1550
     18  C         24.9210  -21.3870  -16.1930 C.3     1  UNL1        0.1390
     19  C         26.2340  -22.1660  -16.1880 C.3     1  UNL1        0.0350
     20  C         25.8160  -23.5690  -15.8250 C.3     1  UNL1        0.0290
     21  C         24.4380  -23.6570  -16.4410 C.3     1  UNL1        0.1680
     22  O         23.8520  -22.3580  -16.2800 O.3     1  UNL1       -0.3840
     23  C         18.4030  -23.5980   -7.4340 C.2     1  UNL1        0.0320
     24  C         18.6270  -22.6250   -6.4540 C.2     1  UNL1        0.0180
     25  C         17.6980  -22.4510   -5.4250 C.2     1  UNL1        0.0250
     26  C         16.5440  -23.2360   -5.3940 C.2     1  UNL1        0.0340
     27 CL         15.4000  -23.0190   -4.1290 Cl      1  UNL1       -0.0840
     28  C         16.3070  -24.1920   -6.3820 C.2     1  UNL1        0.0250
     29  C         17.2340  -24.3680   -7.4120 C.2     1  UNL1        0.0180
@<TRIPOS>BOND
     1    21    22    1
     2    21    20    1
     3    22    18    1
     4    18    19    1
     5    18    17    1
     6    19    20    1
     7    17    15    1
     8    16    15    1
     9    15    13   am
    10    13    14    2
    11    13     1    1
    12     6     1    2
    13     6     5    1
    14     1     2    1
    15     7     5    1
    16     7     8    1
    17     5     4    2
    18     8     9    1
    19     2     3    2
    20     4     3    1
    21     4    10    1
    22     9    10    1
    23    10    11   am
    24    11    12    2
    25    11    23    1
    26    23    29    2
    27    23    24    1
    28    29    28    1
    29    24    25    2
    30    28    26    2
    31    25    26    1
    32    26    27    1
