@<TRIPOS>MOLECULE
33710_out_ligand_01.pdbqt
 37 39 0 0 0
SMALL
GASTEIGER

@<TRIPOS>ATOM
      1  C         26.8040  -20.4590  -16.2170 C.3     1  UNL1        0.0500
      2  C         26.3800  -21.0960  -14.9210 C.2     1  UNL1       -0.0340
      3  C         26.6990  -20.3320  -13.7290 C.2     1  UNL1        0.0330
      4  C         26.3330  -20.7420  -12.5020 C.2     1  UNL1        0.0120
      5  C         26.6700  -19.9100  -11.2930 C.3     1  UNL1        0.0680
      6  N         25.6440  -21.9450  -12.3570 N.am    1  UNL1       -0.3080
      7  C         25.3890  -22.7850  -13.4460 C.2     1  UNL1        0.2690
      8  O         24.9110  -23.9100  -13.2980 O.2     1  UNL1       -0.2660
      9  C         25.7470  -22.2790  -14.8060 C.2     1  UNL1        0.1180
     10  C         25.3890  -23.0810  -15.9250 C.1     1  UNL1        0.1050
     11  N         25.0920  -23.6970  -16.8620 N.1     1  UNL1       -0.1910
     12  C         25.2080  -22.4280  -11.0390 C.3     1  UNL1        0.2350
     13  C         23.8290  -21.8890  -10.6480 C.2     1  UNL1        0.2400
     14  O         23.7150  -21.0660   -9.7420 O.2     1  UNL1       -0.2710
     15  N         22.8030  -22.4050  -11.4220 N.am    1  UNL1       -0.3260
     16  H         23.0790  -23.0830  -12.1350 H       1  UNL1        0.1690
     17  C         21.4250  -22.1310  -11.3290 C.2     1  UNL1        0.0350
     18  C         20.7210  -21.3390  -12.2400 C.2     1  UNL1        0.0290
     19  C         19.3510  -21.1080  -12.0740 C.2     1  UNL1        0.0030
     20  C         18.6700  -21.6700  -10.9960 C.2     1  UNL1        0.0170
     21  C         19.3600  -22.4750  -10.0840 C.2     1  UNL1        0.0340
     22  C         20.7350  -22.6970  -10.2500 C.2     1  UNL1        0.0460
     23  C         18.6870  -23.0710   -8.8970 C.2     1  UNL1        0.2520
     24  O         18.9860  -24.1990   -8.5250 O.2     1  UNL1       -0.2680
     25  N         17.7250  -22.2960   -8.2870 N.am    1  UNL1       -0.3530
     26  H         17.3440  -21.5140   -8.8050 H       1  UNL1        0.1630
     27  C         16.9310  -22.8330   -7.2090 C.3     1  UNL1        0.1620
     28  C         17.4170  -22.3160   -5.8740 C.2     1  UNL1       -0.0250
     29  C         18.5620  -21.4960   -5.8530 C.2     1  UNL1        0.0090
     30  C         19.0470  -20.9720   -4.6560 C.2     1  UNL1        0.0010
     31  C         18.3950  -21.2520   -3.4590 C.2     1  UNL1        0.0010
     32  C         17.2520  -22.0530   -3.4610 C.2     1  UNL1        0.0170
     33  C         16.7440  -22.5880   -4.6610 C.2     1  UNL1        0.0550
     34  C         15.4850  -23.4260   -4.6260 C.3     1  UNL1        0.4180
     35  F         14.3860  -22.7510   -5.0610 F       1  UNL1       -0.1660
     36  F         15.5540  -24.5540   -5.3900 F       1  UNL1       -0.1660
     37  F         15.1900  -23.8550   -3.3630 F       1  UNL1       -0.1660
@<TRIPOS>BOND
     1    11    10    3
     2     1     2    1
     3    10     9    1
     4     2     9    2
     5     2     3    1
     6     9     7    1
     7     3     4    2
     8     7     8    2
     9     7     6   am
    10     4     6    1
    11     4     5    1
    12     6    12    1
    13    18    19    1
    14    18    17    2
    15    16    15    1
    16    19    20    2
    17    15    17    1
    18    15    13   am
    19    17    22    1
    20    12    13    1
    21    20    21    1
    22    13    14    2
    23    22    21    2
    24    21    23    1
    25    23    24    2
    26    23    25   am
    27    26    25    1
    28    25    27    1
    29    27    28    1
    30    28    29    2
    31    28    33    1
    32    29    30    1
    33    36    34    1
    34    35    34    1
    35    33    34    1
    36    33    32    2
    37    30    31    2
    38    34    37    1
    39    32    31    1
