@<TRIPOS>MOLECULE
33723_out_ligand_01.pdbqt
 38 42 0 0 0
SMALL
GASTEIGER

@<TRIPOS>ATOM
      1  N         19.7950  -23.4030   -9.1340 N.ar    1  UNL1       -0.2940
      2  C         21.1720  -23.5520   -8.9710 C.ar    1  UNL1        0.3320
      3  O         21.6460  -24.4160   -8.2270 O.2     1  UNL1       -0.2460
      4  N         21.9910  -22.6750   -9.6680 N.ar    1  UNL1       -0.2610
      5  C         21.5420  -21.6500  -10.4840 C.ar    1  UNL1        0.2640
      6  O         22.2760  -20.8130  -11.0040 O.2     1  UNL1       -0.2670
      7  C         20.0960  -21.5910  -10.7330 C.ar    1  UNL1        0.0590
      8  C         19.6020  -20.6490  -11.6510 C.2     1  UNL1        0.0190
      9  C         18.2390  -20.5890  -11.9220 C.2     1  UNL1        0.0010
     10  C         17.3790  -21.4720  -11.2820 C.2     1  UNL1        0.0020
     11  C         17.8790  -22.4060  -10.3670 C.2     1  UNL1        0.0310
     12  C         19.2480  -22.4750  -10.0680 C.ar    1  UNL1        0.0550
     13  C         23.4340  -22.8320   -9.5250 C.3     1  UNL1        0.1750
     14  C         24.1510  -22.5770  -10.8370 C.2     1  UNL1       -0.0400
     15  C         25.0950  -21.5460  -10.9410 C.2     1  UNL1        0.0100
     16  C         25.7170  -21.2770  -12.1620 C.2     1  UNL1        0.0170
     17  C         25.3950  -22.0250  -13.3020 C.2     1  UNL1        0.0320
     18  C         24.4690  -23.0690  -13.1990 C.2     1  UNL1        0.0170
     19  C         23.8500  -23.3370  -11.9750 C.2     1  UNL1        0.0100
     20  C         26.0680  -21.6770  -14.5860 C.2     1  UNL1        0.2510
     21  O         26.6910  -22.5320  -15.2040 O.2     1  UNL1       -0.2680
     22  N         25.9840  -20.3620  -14.9900 N.am    1  UNL1       -0.3510
     23  H         25.6700  -19.6600  -14.3350 H       1  UNL1        0.1630
     24  C         26.7410  -19.8780  -16.1260 C.3     1  UNL1        0.1870
     25  C         26.7740  -18.3950  -16.0730 C.2     1  UNL1        0.0700
     26  C         27.1200  -17.4910  -15.0880 C.2     1  UNL1        0.0360
     27  C         26.9350  -16.2010  -15.6460 C.2     1  UNL1        0.0270
     28  C         26.4940  -16.4010  -16.9310 C.2     1  UNL1        0.1420
     29  O         26.3880  -17.7290  -17.1980 O.2     1  UNL1       -0.3250
     30  C         18.9270  -24.3110   -8.3730 C.3     1  UNL1        0.1730
     31  C         18.0690  -23.6730   -7.2870 C.2     1  UNL1       -0.0330
     32  C         16.6850  -23.8980   -7.1430 C.2     1  UNL1       -0.0540
     33  C         15.9950  -23.2600   -6.0980 C.2     1  UNL1        0.0080
     34  C         15.9020  -24.7970   -8.0580 C.3     1  UNL1        0.0490
     35  C         16.6400  -22.3760   -5.2330 C.2     1  UNL1        0.0070
     36  C         17.9930  -22.0980   -5.3990 C.2     1  UNL1       -0.0610
     37  C         18.7040  -21.1520   -4.4800 C.3     1  UNL1        0.0480
     38  C         18.6950  -22.7490   -6.4210 C.2     1  UNL1        0.0160
@<TRIPOS>BOND
     1    29    28    1
     2    29    25    1
     3    28    27    2
     4    24    25    1
     5    24    22    1
     6    25    26    2
     7    27    26    1
     8    21    20    2
     9    22    20   am
    10    22    23    1
    11    20    17    1
    12    17    18    2
    13    17    16    1
    14    18    19    1
    15    16    15    2
    16    19    14    2
    17     9     8    1
    18     9    10    2
    19     8     7    2
    20    10    11    1
    21     6     5    2
    22    15    14    1
    23    14    13    1
    24     7     5   ar
    25     7    12   ar
    26     5     4   ar
    27    11    12    2
    28    12     1   ar
    29     4    13    1
    30     4     2   ar
    31     1     2   ar
    32     1    30    1
    33     2     3    2
    34    30    31    1
    35    34    32    1
    36    31    32    2
    37    31    38    1
    38    32    33    1
    39    38    36    2
    40    33    35    2
    41    36    35    1
    42    36    37    1
