@<TRIPOS>MOLECULE
33735_out_ligand_01.pdbqt
 31 33 0 0 0
SMALL
GASTEIGER

@<TRIPOS>ATOM
      1  C         18.0650  -22.7530   -6.4670 C.2     1  UNL1        0.1180
      2  C         18.9860  -23.2060   -7.4150 C.2     1  UNL1        0.0450
      3  C         20.2390  -22.5870   -7.5040 C.2     1  UNL1        0.0340
      4  C         20.5540  -21.5090   -6.6630 C.2     1  UNL1        0.0200
      5  C         19.6190  -21.0640   -5.7230 C.2     1  UNL1        0.0450
      6  C         18.3800  -21.6910   -5.6280 C.2     1  UNL1        0.1390
      7  F         17.4930  -21.2220   -4.7410 F       1  UNL1       -0.2040
      8  S         16.4920  -23.5280   -6.3000 S.O2    1  UNL1        0.2620
      9  O         15.4900  -22.4890   -6.3620 O.2     1  UNL1       -0.2000
     10  O         16.5670  -24.4400   -5.1800 O.2     1  UNL1       -0.2000
     11  N         16.3540  -24.4490   -7.6880 N.3     1  UNL1       -0.3110
     12  H         16.2750  -25.4520   -7.5190 H       1  UNL1        0.1720
     13  C         15.6420  -23.8950   -8.8350 C.3     1  UNL1        0.1700
     14  C         16.5670  -23.0560   -9.6820 C.2     1  UNL1       -0.0400
     15  C         17.7400  -23.5980  -10.2250 C.2     1  UNL1        0.0090
     16  C         18.5930  -22.8080  -10.9980 C.2     1  UNL1        0.0070
     17  C         18.2990  -21.4590  -11.2290 C.2     1  UNL1       -0.0620
     18  C         19.2000  -20.6210  -12.0880 C.3     1  UNL1        0.0480
     19  C         17.1240  -20.9180  -10.6960 C.2     1  UNL1        0.0070
     20  C         16.2700  -21.7080   -9.9240 C.2     1  UNL1        0.0090
     21  C         21.1990  -23.0670   -8.5350 C.2     1  UNL1        0.2560
     22  O         21.2750  -24.2740   -8.7200 O.2     1  UNL1       -0.2670
     23  N         21.9250  -22.0690   -9.1570 N.am    1  UNL1       -0.3230
     24  H         21.8270  -21.1300   -8.7960 H       1  UNL1        0.1690
     25  C         22.8710  -22.2220  -10.1940 C.2     1  UNL1        0.0350
     26  C         24.1350  -22.7850  -10.0190 C.2     1  UNL1        0.0290
     27  C         25.0120  -22.8990  -11.1000 C.2     1  UNL1        0.0030
     28  C         24.6320  -22.4590  -12.3670 C.2     1  UNL1        0.0070
     29  C         23.3640  -21.9090  -12.5670 C.2     1  UNL1       -0.0600
     30  C         22.9600  -21.4000  -13.9190 C.3     1  UNL1        0.0480
     31  C         22.4940  -21.7840  -11.4730 C.2     1  UNL1        0.0360
@<TRIPOS>BOND
     1    30    29    1
     2    29    28    2
     3    29    31    1
     4    28    27    1
     5    18    17    1
     6    31    25    2
     7    17    16    2
     8    17    19    1
     9    27    26    2
    10    16    15    1
    11    19    20    2
    12    15    14    2
    13    25    26    1
    14    25    23    1
    15    20    14    1
    16    14    13    1
    17    23    24    1
    18    23    21   am
    19    13    11    1
    20    22    21    2
    21    21     3    1
    22    11    12    1
    23    11     8    1
    24     3     2    1
    25     3     4    2
    26     2     1    2
    27     4     5    1
    28     1     8    1
    29     1     6    1
    30     9     8    2
    31     8    10    2
    32     5     6    2
    33     6     7    1
