@<TRIPOS>MOLECULE
33749_out_ligand_01.pdbqt
 32 35 0 0 0
SMALL
GASTEIGER

@<TRIPOS>ATOM
      1  C         18.7970  -22.5240  -10.1470 C.2     1  UNL1        0.0320
      2  C         19.0070  -21.5440  -11.1200 C.2     1  UNL1        0.0190
      3  C         20.2860  -21.3400  -11.6540 C.2     1  UNL1        0.0300
      4  C         21.3610  -22.1270  -11.2360 C.2     1  UNL1        0.0350
      5  C         21.1390  -23.1240  -10.2740 C.2     1  UNL1        0.0300
      6  C         19.8660  -23.3250   -9.7300 C.2     1  UNL1        0.0190
      7  C         17.4260  -22.7060   -9.5990 C.2     1  UNL1        0.2510
      8  N         17.3340  -23.4700   -8.4580 N.am    1  UNL1       -0.3530
      9  H         18.1650  -23.8260   -8.0050 H       1  UNL1        0.1630
     10  O         16.4680  -22.1720  -10.1420 O.2     1  UNL1       -0.2680
     11  C         16.0570  -23.7470   -7.8390 C.3     1  UNL1        0.1610
     12  C         16.0700  -23.3040   -6.4010 C.2     1  UNL1       -0.0380
     13  C         14.9580  -23.5340   -5.5820 C.2     1  UNL1        0.0090
     14  C         14.9520  -23.0880   -4.2600 C.2     1  UNL1        0.0030
     15  C         16.0540  -22.3960   -3.7450 C.2     1  UNL1        0.0370
     16  C         17.1660  -22.1530   -4.5520 C.2     1  UNL1        0.0680
     17  C         17.1660  -22.6040   -5.8750 C.2     1  UNL1        0.0450
     18  O         18.2980  -21.4770   -4.1800 O.2     1  UNL1       -0.3560
     19  C         19.0610  -20.8800   -5.2240 C.3     1  UNL1        0.2100
     20  N         22.6770  -21.9910  -11.7200 N.am    1  UNL1       -0.3220
     21  C         23.8100  -21.5970  -11.0180 C.2     1  UNL1        0.2760
     22  O         23.8470  -21.2800   -9.8350 O.2     1  UNL1       -0.2660
     23  H         22.8030  -22.1460  -12.7140 H       1  UNL1        0.1690
     24  C         25.0200  -21.5780  -11.8640 C.ar    1  UNL1        0.1440
     25  N         25.8690  -20.5500  -11.7500 N.ar    1  UNL1       -0.2050
     26  S         27.0960  -20.7260  -12.8350 S.2     1  UNL1        0.0120
     27  C         26.5510  -22.2070  -13.5120 C.ar    1  UNL1        0.0360
     28  C         27.1200  -22.9770  -14.5390 C.2     1  UNL1        0.0210
     29  C         25.3750  -22.5820  -12.8550 C.ar    1  UNL1        0.0170
     30  C         26.4880  -24.1670  -14.9060 C.2     1  UNL1        0.0010
     31  C         25.3290  -24.5810  -14.2610 C.2     1  UNL1        0.0010
     32  C         24.7690  -23.8060  -13.2400 C.2     1  UNL1        0.0150
@<TRIPOS>BOND
     1    30    28    1
     2    30    31    2
     3    28    27    2
     4    31    32    1
     5    27    29   ar
     6    27    26   ar
     7    32    29    2
     8    29    24   ar
     9    26    25   ar
    10    23    20    1
    11    24    25   ar
    12    24    21    1
    13    20     4    1
    14    20    21   am
    15     3     4    2
    16     3     2    1
    17     4     5    1
    18     2     1    2
    19    21    22    2
    20     5     6    2
    21     1     6    1
    22     1     7    1
    23    10     7    2
    24     7     8   am
    25     8     9    1
    26     8    11    1
    27    11    12    1
    28    12    17    2
    29    12    13    1
    30    17    16    1
    31    13    14    2
    32    19    18    1
    33    16    18    1
    34    16    15    2
    35    14    15    1
