@<TRIPOS>MOLECULE
33758_out_ligand_01.pdbqt
 34 37 0 0 0
SMALL
GASTEIGER

@<TRIPOS>ATOM
      1  N         20.2450  -23.5010   -9.8750 N.pl3   1  UNL1       -0.3310
      2  C         21.5280  -23.1110  -10.2190 C.2     1  UNL1        0.1130
      3  C         21.8540  -22.0540  -10.9800 C.2     1  UNL1        0.0810
      4  C         20.7370  -21.1890  -11.4360 C.2     1  UNL1        0.2010
      5  O         20.9270  -20.1690  -12.0850 O.2     1  UNL1       -0.2860
      6  C         19.3580  -21.5780  -11.0570 C.2     1  UNL1        0.0610
      7  C         18.2700  -20.7930  -11.4510 C.2     1  UNL1        0.0210
      8  C         16.9880  -21.1690  -11.0690 C.2     1  UNL1        0.0280
      9  C         16.8300  -22.3230  -10.3120 C.2     1  UNL1        0.0330
     10  C         15.4590  -22.7490   -9.8700 C.3     1  UNL1        0.0700
     11  N         17.8800  -23.0820   -9.9010 N.2     1  UNL1       -0.2350
     12  C         19.1390  -22.7210  -10.2810 C.2     1  UNL1        0.1440
     13  C         19.9700  -24.6340   -8.9790 C.3     1  UNL1        0.2330
     14  C         19.1940  -24.1840   -7.7360 C.2     1  UNL1        0.2400
     15  N         19.5990  -22.9430   -7.2710 N.am    1  UNL1       -0.3260
     16  H         20.3710  -22.5180   -7.7900 H       1  UNL1        0.1690
     17  O         18.3050  -24.8880   -7.2600 O.2     1  UNL1       -0.2710
     18  C         19.1100  -22.2300   -6.1620 C.2     1  UNL1        0.0360
     19  C         19.6920  -20.9870   -5.8980 C.2     1  UNL1        0.0290
     20  C         19.2770  -20.2210   -4.8050 C.2     1  UNL1        0.0040
     21  C         18.2650  -20.6920   -3.9720 C.2     1  UNL1        0.0180
     22  C         17.6530  -21.9210   -4.2380 C.2     1  UNL1        0.0020
     23  C         18.0900  -22.6890   -5.3250 C.2     1  UNL1        0.0480
     24  S         16.3590  -22.4980   -3.1530 S.3     1  UNL1       -0.1340
     25  C         14.9570  -22.4790   -4.3050 C.3     1  UNL1        0.0950
     26  C         23.2940  -21.8120  -11.2350 C.2     1  UNL1        0.1970
     27  O         24.0120  -21.3330  -10.3560 O.2     1  UNL1       -0.2860
     28  C         23.8980  -22.1770  -12.5400 C.2     1  UNL1        0.0150
     29  C         23.6500  -21.4540  -13.7140 C.2     1  UNL1        0.0160
     30  C         24.2010  -21.8760  -14.9280 C.2     1  UNL1        0.0070
     31  C         24.9910  -23.0330  -14.9860 C.2     1  UNL1       -0.0620
     32  C         25.5640  -23.4850  -16.3000 C.3     1  UNL1        0.0480
     33  C         25.2260  -23.7640  -13.8130 C.2     1  UNL1        0.0070
     34  C         24.6750  -23.3420  -12.6000 C.2     1  UNL1        0.0160
@<TRIPOS>BOND
     1    32    31    1
     2    31    30    2
     3    31    33    1
     4    30    29    1
     5    33    34    2
     6    29    28    2
     7    34    28    1
     8    28    26    1
     9     5     4    2
    10     7     8    1
    11     7     6    2
    12     4     6    1
    13     4     3    1
    14    26     3    1
    15    26    27    2
    16     8     9    2
    17     6    12    1
    18     3     2    2
    19     9    11    1
    20     9    10    1
    21    12    11    2
    22    12     1    1
    23     2     1    1
    24     1    13    1
    25    13    14    1
    26    16    15    1
    27    14    15   am
    28    14    17    2
    29    15    18    1
    30    18    19    2
    31    18    23    1
    32    19    20    1
    33    23    22    2
    34    20    21    2
    35    25    24    1
    36    22    21    1
    37    22    24    1
