@<TRIPOS>MOLECULE
33753_out_ligand_01.pdbqt
 34 37 0 0 0
SMALL
GASTEIGER

@<TRIPOS>ATOM
      1  C         23.4680  -22.4960   -9.9710 C.2     1  UNL1        0.0320
      2  C         23.2850  -21.7430   -8.8080 C.2     1  UNL1        0.0190
      3  C         22.0820  -21.8320   -8.0990 C.2     1  UNL1        0.0300
      4  C         21.0520  -22.6790   -8.5330 C.2     1  UNL1        0.0360
      5  C         21.2460  -23.4360   -9.6890 C.2     1  UNL1        0.0300
      6  C         22.4490  -23.3520  -10.4010 C.2     1  UNL1        0.0190
      7  N         19.8720  -22.6950   -7.7670 N.am    1  UNL1       -0.3090
      8  C         18.5700  -22.4940   -8.1920 C.2     1  UNL1        0.3270
      9  O         18.2350  -22.3780   -9.3680 O.2     1  UNL1       -0.2460
     10  N         17.6280  -22.5100   -7.1450 N.am    1  UNL1       -0.2990
     11  C         16.2030  -22.4840   -7.4920 C.3     1  UNL1        0.1340
     12  C         17.9300  -22.1750   -5.7930 C.2     1  UNL1        0.0450
     13  C         15.4950  -23.7970   -7.1890 C.3     1  UNL1        0.0210
     14  C         15.3130  -24.0400   -5.6940 C.3     1  UNL1        0.0060
     15  C         16.6320  -24.2090   -4.9460 C.3     1  UNL1        0.0410
     16  C         17.4000  -22.9260   -4.7280 C.2     1  UNL1       -0.0310
     17  C         17.6880  -22.5290   -3.4100 C.2     1  UNL1        0.0090
     18  C         18.4830  -21.4120   -3.1530 C.2     1  UNL1        0.0010
     19  C         19.0100  -20.6770   -4.2080 C.2     1  UNL1        0.0020
     20  C         18.7360  -21.0570   -5.5220 C.2     1  UNL1        0.0300
     21  H         19.9600  -22.9940   -6.8070 H       1  UNL1        0.1700
     22  C         24.7270  -22.4380  -10.7630 C.2     1  UNL1        0.2510
     23  N         25.4650  -21.2760  -10.6540 N.am    1  UNL1       -0.3570
     24  H         25.0470  -20.4660  -10.2160 H       1  UNL1        0.1620
     25  O         25.0450  -23.3700  -11.4910 O.2     1  UNL1       -0.2680
     26  C         26.6640  -21.0720  -11.4470 C.3     1  UNL1        0.1270
     27  C         26.4020  -20.2010  -12.6780 C.3     1  UNL1        0.0580
     28  C         25.8930  -21.0160  -13.8390 C.2     1  UNL1       -0.0570
     29  C         26.6980  -21.9920  -14.4370 C.2     1  UNL1        0.0070
     30  C         26.2130  -22.7570  -15.5010 C.2     1  UNL1        0.0070
     31  C         24.9170  -22.5530  -15.9890 C.2     1  UNL1       -0.0620
     32  C         24.3830  -23.3950  -17.1100 C.3     1  UNL1        0.0480
     33  C         24.1060  -21.5900  -15.3800 C.2     1  UNL1        0.0070
     34  C         24.5900  -20.8260  -14.3160 C.2     1  UNL1        0.0070
@<TRIPOS>BOND
     1    32    31    1
     2    31    30    2
     3    31    33    1
     4    30    29    1
     5    33    34    2
     6    29    28    2
     7    34    28    1
     8    28    27    1
     9    27    26    1
    10    25    22    2
    11    26    23    1
    12    22    23   am
    13    22     1    1
    14    23    24    1
    15     6     1    2
    16     6     5    1
    17     1     2    1
    18     5     4    2
    19     9     8    2
    20     2     3    2
    21     4     3    1
    22     4     7    1
    23     8     7   am
    24     8    10   am
    25     7    21    1
    26    11    13    1
    27    11    10    1
    28    13    14    1
    29    10    12    1
    30    12    20    2
    31    12    16    1
    32    14    15    1
    33    20    19    1
    34    15    16    1
    35    16    17    2
    36    19    18    2
    37    17    18    1
