@<TRIPOS>MOLECULE
33771_out_ligand_01.pdbqt
 33 36 0 0 0
SMALL
GASTEIGER

@<TRIPOS>ATOM
      1  C         19.1070  -22.8060   -9.8480 C.2     1  UNL1        0.0320
      2  C         20.2190  -23.5360   -9.4170 C.2     1  UNL1        0.0190
      3  C         21.4770  -23.3270   -9.9950 C.2     1  UNL1        0.0300
      4  C         21.6400  -22.3870  -11.0120 C.2     1  UNL1        0.0360
      5  C         20.5200  -21.6750  -11.4620 C.2     1  UNL1        0.0300
      6  C         19.2590  -21.8820  -10.8860 C.2     1  UNL1        0.0190
      7  N         22.8670  -22.1260  -11.6530 N.am    1  UNL1       -0.3090
      8  C         24.0200  -21.6100  -11.0960 C.2     1  UNL1        0.3270
      9  O         24.0900  -21.1380   -9.9640 O.2     1  UNL1       -0.2460
     10  N         25.1070  -21.5580  -11.9830 N.am    1  UNL1       -0.2960
     11  C         26.1490  -20.5650  -11.7080 C.3     1  UNL1        0.1440
     12  C         25.3760  -22.4800  -13.0510 C.2     1  UNL1        0.0740
     13  C         26.3950  -19.6770  -12.9140 C.3     1  UNL1        0.1010
     14  S         27.1200  -20.6180  -14.2800 S.3     1  UNL1       -0.1060
     15  C         26.2490  -22.1690  -14.1100 C.2     1  UNL1        0.1200
     16  N         26.5180  -23.0320  -15.1240 N.2     1  UNL1       -0.2520
     17  C         25.9420  -24.2480  -15.0940 C.2     1  UNL1        0.1180
     18  C         25.1020  -24.6640  -14.0830 C.2     1  UNL1        0.0220
     19  C         24.8260  -23.7720  -13.0490 C.2     1  UNL1        0.0340
     20  H         22.8640  -22.1620  -12.6620 H       1  UNL1        0.1700
     21  C         17.7910  -23.0650   -9.1980 C.2     1  UNL1        0.2510
     22  N         17.8070  -23.8790   -8.0860 N.am    1  UNL1       -0.3530
     23  H         18.6280  -24.4360   -7.9030 H       1  UNL1        0.1630
     24  O         16.7690  -22.5860   -9.6740 O.2     1  UNL1       -0.2680
     25  C         16.5780  -24.3360   -7.4710 C.3     1  UNL1        0.1610
     26  C         16.3640  -23.6490   -6.1470 C.2     1  UNL1       -0.0380
     27  C         15.2080  -23.9010   -5.3990 C.2     1  UNL1        0.0090
     28  C         15.0240  -23.2900   -4.1590 C.2     1  UNL1        0.0030
     29  C         15.9980  -22.4270   -3.6490 C.2     1  UNL1        0.0370
     30  C         17.1590  -22.1710   -4.3790 C.2     1  UNL1        0.0680
     31  C         17.3370  -22.7880   -5.6210 C.2     1  UNL1        0.0450
     32  O         18.1880  -21.3560   -3.9950 O.2     1  UNL1       -0.3560
     33  C         19.0090  -20.8280   -5.0300 C.3     1  UNL1        0.2100
@<TRIPOS>BOND
     1    16    17    2
     2    16    15    1
     3    17    18    1
     4    14    15    1
     5    14    13    1
     6    15    12    2
     7    18    19    2
     8    12    19    1
     9    12    10    1
    10    13    11    1
    11    20     7    1
    12    10    11    1
    13    10     8   am
    14     7     8   am
    15     7     4    1
    16     5     4    2
    17     5     6    1
    18     8     9    2
    19     4     3    1
    20     6     1    2
    21     3     2    2
    22     1     2    1
    23     1    21    1
    24    24    21    2
    25    21    22   am
    26    22    23    1
    27    22    25    1
    28    25    26    1
    29    26    31    2
    30    26    27    1
    31    31    30    1
    32    27    28    2
    33    33    32    1
    34    30    32    1
    35    30    29    2
    36    28    29    1
