@<TRIPOS>MOLECULE
3377_out_ligand_01.pdbqt
 33 36 0 0 0
SMALL
GASTEIGER

@<TRIPOS>ATOM
      1  C         19.9560  -23.4770   -8.3030 C.ar    1  UNL1        0.2050
      2  N         20.4710  -24.6310   -8.6900 N.ar    1  UNL1       -0.1210
      3  N         21.7900  -24.3870   -9.0160 N.ar    1  UNL1       -0.1250
      4  C         21.9930  -23.1080   -8.7870 C.ar    1  UNL1        0.1820
      5  O         20.8750  -22.4620   -8.3350 O.2     1  UNL1       -0.2720
      6  C         23.2350  -22.2960   -8.9450 C.3     1  UNL1        0.1810
      7  N         24.2830  -22.8410   -9.8230 N.pl3   1  UNL1       -0.2830
      8  H         25.0950  -23.1290   -9.2700 H       1  UNL1        0.1280
      9  C         24.7600  -22.0400  -10.8840 C.2     1  UNL1        0.0430
     10  C         25.8660  -21.1920  -10.7560 C.2     1  UNL1        0.0260
     11  C         26.2810  -20.3890  -11.8210 C.2     1  UNL1        0.0030
     12  C         25.5770  -20.4000  -13.0260 C.2     1  UNL1        0.0200
     13  C         24.4320  -21.1950  -13.1670 C.2     1  UNL1        0.0670
     14  C         24.0160  -21.9910  -12.0870 C.2     1  UNL1        0.1050
     15  C         23.7070  -21.2030  -14.4650 C.2     1  UNL1        0.2520
     16  N         22.8120  -20.1870  -14.6700 N.am    1  UNL1       -0.3660
     17  H         22.4850  -19.5860  -13.9260 H       1  UNL1        0.1590
     18  H         22.2470  -20.2560  -15.5070 H       1  UNL1        0.1590
     19  O         23.8630  -22.0630  -15.3190 O.2     1  UNL1       -0.2680
     20  O         22.9100  -22.8080  -12.1630 O.2     1  UNL1       -0.3530
     21  C         21.7130  -22.0410  -12.0390 C.3     1  UNL1        0.2100
     22  C         18.6230  -23.1780   -7.7900 C.2     1  UNL1        0.0530
     23  C         18.4630  -23.1110   -6.3920 C.2     1  UNL1        0.0310
     24  C         17.2250  -22.8120   -5.8050 C.2     1  UNL1       -0.0250
     25  C         17.0750  -22.7350   -4.4100 C.2     1  UNL1        0.0120
     26  C         16.1100  -22.5850   -6.6360 C.2     1  UNL1       -0.0230
     27  C         15.8360  -22.4340   -3.8430 C.2     1  UNL1        0.0010
     28  C         14.7330  -22.2090   -4.6620 C.2     1  UNL1        0.0010
     29  C         14.8690  -22.2840   -6.0480 C.2     1  UNL1        0.0120
     30  C         16.2620  -22.6650   -8.0310 C.2     1  UNL1        0.0500
     31  C         17.5020  -22.9630   -8.6170 C.2     1  UNL1        0.0830
     32  O         17.6930  -23.0850   -9.9710 O.2     1  UNL1       -0.3550
     33  C         17.7040  -21.9010  -10.7560 C.3     1  UNL1        0.2100
@<TRIPOS>BOND
     1    18    16    1
     2    19    15    2
     3    16    15   am
     4    16    17    1
     5    15    13    1
     6    13    12    2
     7    13    14    1
     8    12    11    1
     9    20    14    1
    10    20    21    1
    11    14     9    2
    12    11    10    2
    13     9    10    1
    14     9     7    1
    15    33    32    1
    16    32    31    1
    17     7     8    1
    18     7     6    1
    19     3     4   ar
    20     3     2   ar
    21     6     4    1
    22     4     5   ar
    23     2     1   ar
    24    31    30    1
    25    31    22    2
    26     5     1   ar
    27     1    22    1
    28    30    26    2
    29    22    23    1
    30    26    29    1
    31    26    24    1
    32    23    24    2
    33    29    28    2
    34    24    25    1
    35    28    27    1
    36    25    27    2
