@<TRIPOS>MOLECULE
33783_out_ligand_01.pdbqt
 35 38 0 0 0
SMALL
GASTEIGER

@<TRIPOS>ATOM
      1  C         19.0970  -22.1270   -7.5590 C.2     1  UNL1        0.1020
      2  C         20.4610  -22.4170   -7.6610 C.2     1  UNL1        0.0510
      3  C         20.9270  -23.3070   -8.6430 C.2     1  UNL1       -0.0320
      4  C         20.0280  -23.9150   -9.5280 C.2     1  UNL1        0.0140
      5  C         18.6660  -23.6360   -9.4360 C.2     1  UNL1        0.0410
      6  C         18.2160  -22.7620   -8.4460 C.2     1  UNL1        0.1120
      7  C         22.3550  -23.6290   -8.7300 C.3     1  UNL1        0.0320
      8  C         23.2270  -23.2630   -9.6920 C.ar    1  UNL1        0.0820
      9  C         22.8920  -22.4360  -10.9020 C.ar    1  UNL1        0.1620
     10  C         24.6550  -23.7450   -9.5330 C.ar    1  UNL1        0.2830
     11  N         21.7070  -21.9510  -11.1270 N.pl3   1  UNL1       -0.2810
     12  N         23.9400  -22.2110  -11.7760 N.ar    1  UNL1       -0.1880
     13  H         21.7490  -21.4310  -12.0130 H       1  UNL1        0.1880
     14  N         23.7950  -21.4720  -12.9410 N.ar    1  UNL1       -0.1440
     15  C         25.1890  -22.7130  -11.5130 C.ar    1  UNL1        0.2020
     16  C         24.9490  -21.4260  -13.5480 C.ar    1  UNL1        0.2150
     17  S         26.3000  -22.2610  -12.7800 S.2     1  UNL1       -0.0170
     18  N         25.5720  -23.4150  -10.5110 N.ar    1  UNL1       -0.1820
     19  O         24.9840  -24.4090   -8.5550 O.2     1  UNL1       -0.2650
     20  S         25.1290  -20.5530  -15.0740 S.O2    1  UNL1        0.1970
     21  C         26.4800  -21.3490  -15.8980 C.3     1  UNL1        0.1690
     22  O         23.9160  -20.8110  -15.8290 O.2     1  UNL1       -0.2210
     23  O         25.5390  -19.2040  -14.7240 O.2     1  UNL1       -0.2210
     24  O         18.5300  -21.2640   -6.6580 O.2     1  UNL1       -0.3530
     25  C         19.2770  -20.9760   -5.4840 C.3     1  UNL1        0.2100
     26  O         16.8460  -22.4820   -8.3960 O.3     1  UNL1       -0.2720
     27  C         16.1190  -23.5140   -7.8440 C.2     1  UNL1        0.3010
     28  O         15.7030  -24.5220   -8.3990 O.2     1  UNL1       -0.2590
     29  C         15.9260  -23.2770   -6.3970 C.2     1  UNL1        0.0780
     30  C         14.8970  -22.4090   -6.0020 C.2     1  UNL1        0.0210
     31  C         14.6770  -22.1470   -4.6460 C.2     1  UNL1        0.0010
     32  C         15.4900  -22.7430   -3.6800 C.2     1  UNL1        0.0030
     33  C         16.5220  -23.5970   -4.0690 C.2     1  UNL1        0.0430
     34  C         16.7380  -23.8580   -5.4230 C.2     1  UNL1        0.1320
     35  F         17.7640  -24.6580   -5.7500 F       1  UNL1       -0.2050
@<TRIPOS>BOND
     1    21    20    1
     2    22    20    2
     3    20    23    2
     4    20    16    1
     5    16    14   ar
     6    16    17   ar
     7    14    12   ar
     8    17    15   ar
     9    13    11    1
    10    12    15   ar
    11    12     9   ar
    12    15    18   ar
    13    11     9    1
    14     9     8   ar
    15    18    10   ar
    16     8    10   ar
    17     8     7    1
    18    10    19    2
    19     4     5    2
    20     4     3    1
    21     5     6    1
    22     7     3    1
    23     3     2    2
    24     6    26    1
    25     6     1    2
    26    28    27    2
    27    26    27    1
    28    27    29    1
    29     2     1    1
    30     1    24    1
    31    24    25    1
    32    29    30    2
    33    29    34    1
    34    30    31    1
    35    35    34    1
    36    34    33    2
    37    31    32    2
    38    33    32    1
