@<TRIPOS>MOLECULE
33782_out_ligand_01.pdbqt
 35 38 0 0 0
SMALL
GASTEIGER

@<TRIPOS>ATOM
      1  C         19.0430  -22.1350   -7.5730 C.2     1  UNL1        0.1020
      2  C         20.3990  -22.4640   -7.6730 C.2     1  UNL1        0.0510
      3  C         20.8750  -23.2270   -8.7510 C.2     1  UNL1       -0.0320
      4  C         19.9890  -23.6660   -9.7380 C.2     1  UNL1        0.0140
      5  C         18.6360  -23.3490   -9.6440 C.2     1  UNL1        0.0400
      6  C         18.1610  -22.6110   -8.5580 C.2     1  UNL1        0.1020
      7  C         22.2960  -23.5770   -8.8200 C.3     1  UNL1        0.0320
      8  C         23.1790  -23.2620   -9.7900 C.ar    1  UNL1        0.0820
      9  C         22.8670  -22.4850  -11.0360 C.ar    1  UNL1        0.1620
     10  C         24.6080  -23.7240   -9.5800 C.ar    1  UNL1        0.2830
     11  N         21.6700  -22.0800  -11.3370 N.pl3   1  UNL1       -0.2810
     12  N         23.9450  -22.2240  -11.8610 N.ar    1  UNL1       -0.1880
     13  H         21.7280  -21.5730  -12.2290 H       1  UNL1        0.1880
     14  N         23.8250  -21.5090  -13.0430 N.ar    1  UNL1       -0.1440
     15  C         25.2020  -22.6520  -11.5230 C.ar    1  UNL1        0.2020
     16  C         25.0100  -21.3920  -13.5800 C.ar    1  UNL1        0.2150
     17  S         26.3580  -22.1340  -12.7200 S.2     1  UNL1       -0.0170
     18  N         25.5630  -23.3360  -10.4980 N.ar    1  UNL1       -0.1820
     19  O         24.9030  -24.4190   -8.6130 O.2     1  UNL1       -0.2650
     20  S         25.2250  -20.5040  -15.0930 S.O2    1  UNL1        0.1970
     21  C         26.6470  -21.2460  -15.8500 C.3     1  UNL1        0.1690
     22  O         24.0600  -20.8080  -15.9040 O.2     1  UNL1       -0.2210
     23  O         25.5670  -19.1420  -14.7270 O.2     1  UNL1       -0.2210
     24  O         18.5000  -21.3650   -6.5790 O.2     1  UNL1       -0.3490
     25  C         19.3700  -20.8860   -5.5570 C.3     1  UNL1        0.1710
     26  C         18.6120  -20.9380   -4.2420 C.3     1  UNL1        0.0340
     27  O         16.8140  -22.3400   -8.5690 O.2     1  UNL1       -0.3440
     28  C         16.0370  -23.4490   -8.0990 C.3     1  UNL1        0.2170
     29  C         15.7670  -23.2600   -6.6270 C.2     1  UNL1        0.0040
     30  C         14.8250  -22.3190   -6.1830 C.2     1  UNL1        0.0120
     31  C         14.6120  -22.1150   -4.8170 C.2     1  UNL1        0.0010
     32  C         15.3380  -22.8480   -3.8780 C.2     1  UNL1        0.0030
     33  C         16.2800  -23.7810   -4.3060 C.2     1  UNL1        0.0430
     34  C         16.4880  -23.9780   -5.6700 C.2     1  UNL1        0.1240
     35  F         17.4050  -24.8780   -6.0570 F       1  UNL1       -0.2050
@<TRIPOS>BOND
     1    22    20    2
     2    21    20    1
     3    20    23    2
     4    20    16    1
     5    16    14   ar
     6    16    17   ar
     7    14    12   ar
     8    17    15   ar
     9    13    11    1
    10    12    15   ar
    11    12     9   ar
    12    15    18   ar
    13    11     9    1
    14     9     8   ar
    15    18    10   ar
    16     8    10   ar
    17     8     7    1
    18     4     5    2
    19     4     3    1
    20     5     6    1
    21    10    19    2
    22     7     3    1
    23     3     2    2
    24    27     6    1
    25    27    28    1
    26     6     1    2
    27    28    29    1
    28     2     1    1
    29     1    24    1
    30    29    30    2
    31    29    34    1
    32    24    25    1
    33    30    31    1
    34    35    34    1
    35    34    33    2
    36    25    26    1
    37    31    32    2
    38    33    32    1
