@<TRIPOS>MOLECULE
33788_out_ligand_01.pdbqt
 35 38 0 0 0
SMALL
GASTEIGER

@<TRIPOS>ATOM
      1  N         19.9680  -23.2480  -10.2580 N.3     1  UNL1       -0.3110
      2  H         19.0800  -23.6200  -10.5920 H       1  UNL1        0.1720
      3  S         20.3550  -23.7200   -8.7020 S.O2    1  UNL1        0.2590
      4  O         21.4090  -22.8390   -8.2540 O.2     1  UNL1       -0.2010
      5  O         20.5020  -25.1590   -8.6940 O.2     1  UNL1       -0.2010
      6  C         18.8770  -23.2850   -7.8170 C.2     1  UNL1        0.0800
      7  C         18.9170  -23.1710   -6.4220 C.2     1  UNL1        0.0360
      8  C         17.7370  -22.8430   -5.7710 C.2     1  UNL1       -0.0130
      9  C         17.4740  -22.6590   -4.2920 C.3     1  UNL1        0.0630
     10  C         16.5560  -22.6280   -6.4870 C.2     1  UNL1        0.0440
     11  C         15.9640  -22.3220   -4.2750 C.2     1  UNL1        0.2360
     12  C         17.7230  -23.9470   -3.5090 C.3     1  UNL1        0.0300
     13  C         18.2680  -21.4860   -3.7190 C.3     1  UNL1        0.0300
     14  N         15.5200  -22.3210   -5.6010 N.am    1  UNL1       -0.3210
     15  O         15.2940  -22.1020   -3.2770 O.2     1  UNL1       -0.2720
     16  C         14.1640  -22.0610   -6.0020 C.3     1  UNL1        0.1590
     17  C         16.5100  -22.7250   -7.8680 C.2     1  UNL1        0.0320
     18  C         17.6900  -23.0540   -8.5400 C.2     1  UNL1        0.0270
     19  C         20.3650  -21.9120  -10.6920 C.3     1  UNL1        0.1700
     20  C         21.5420  -21.9500  -11.6400 C.2     1  UNL1       -0.0400
     21  C         21.5610  -21.1310  -12.7780 C.2     1  UNL1        0.0100
     22  C         22.6660  -21.1250  -13.6380 C.2     1  UNL1        0.0170
     23  C         23.7710  -21.9440  -13.3730 C.2     1  UNL1        0.0320
     24  C         23.7670  -22.7420  -12.2230 C.2     1  UNL1        0.0170
     25  C         22.6670  -22.7390  -11.3620 C.2     1  UNL1        0.0100
     26  C         24.9780  -21.9790  -14.2510 C.2     1  UNL1        0.2520
     27  O         26.0400  -22.4130  -13.8160 O.2     1  UNL1       -0.2680
     28  N         24.8150  -21.5350  -15.5500 N.am    1  UNL1       -0.3520
     29  H         23.8760  -21.4340  -15.9060 H       1  UNL1        0.1630
     30  C         25.8920  -21.6520  -16.5280 C.3     1  UNL1        0.0840
     31  C         25.3940  -21.3290  -17.9440 C.3     1  UNL1        0.0250
     32  C         25.1070  -19.8400  -18.1360 C.3     1  UNL1        0.0020
     33  C         26.3130  -18.9820  -17.7660 C.3     1  UNL1        0.0000
     34  C         26.8000  -19.2710  -16.3490 C.3     1  UNL1        0.0020
     35  C         27.0780  -20.7600  -16.1390 C.3     1  UNL1        0.0250
@<TRIPOS>BOND
     1    32    31    1
     2    32    33    1
     3    31    30    1
     4    33    34    1
     5    30    35    1
     6    30    28    1
     7    34    35    1
     8    29    28    1
     9    28    26   am
    10    26    27    2
    11    26    23    1
    12    22    23    2
    13    22    21    1
    14    23    24    1
    15    21    20    2
    16    24    25    2
    17    20    25    1
    18    20    19    1
    19    19     1    1
    20     2     1    1
    21     1     3    1
    22     3     5    2
    23     3     4    2
    24     3     6    1
    25    18    17    1
    26    18     6    2
    27    17    10    2
    28     6     7    1
    29    10     8    1
    30    10    14    1
    31     7     8    2
    32    16    14    1
    33     8     9    1
    34    14    11   am
    35     9    11    1
    36     9    13    1
    37     9    12    1
    38    11    15    2
