@<TRIPOS>MOLECULE
33787_out_ligand_01.pdbqt
 36 40 0 0 0
SMALL
GASTEIGER

@<TRIPOS>ATOM
      1  C         22.7150  -22.4360  -10.9970 C.2     1  UNL1        0.0370
      2  C         23.1970  -23.4160  -10.1190 C.2     1  UNL1        0.0290
      3  C         22.3670  -23.9820   -9.1500 C.2     1  UNL1        0.0030
      4  C         21.0430  -23.5630   -9.0380 C.2     1  UNL1        0.0170
      5  C         20.5540  -22.5680   -9.8950 C.2     1  UNL1        0.0340
      6  C         21.3870  -22.0160  -10.8810 C.2     1  UNL1        0.0460
      7  N         23.6300  -21.9150  -11.9340 N.am    1  UNL1       -0.3090
      8  C         24.8420  -21.3030  -11.6900 C.2     1  UNL1        0.3270
      9  N         25.5530  -20.9410  -12.8490 N.am    1  UNL1       -0.2960
     10  O         25.2560  -20.9920  -10.5740 O.2     1  UNL1       -0.2460
     11  C         26.3630  -19.7280  -12.6980 C.3     1  UNL1        0.1440
     12  C         25.3890  -21.5410  -14.1460 C.2     1  UNL1        0.0800
     13  C         27.0450  -19.1850  -13.9450 C.3     1  UNL1        0.1010
     14  S         25.8270  -19.0230  -15.2680 S.3     1  UNL1       -0.1060
     15  C         25.4050  -20.7530  -15.3130 C.2     1  UNL1        0.1210
     16  N         25.1450  -21.2280  -16.5550 N.2     1  UNL1       -0.2440
     17  C         24.8990  -22.5440  -16.6900 C.2     1  UNL1        0.0320
     18  C         24.6120  -23.0560  -18.0700 C.3     1  UNL1        0.0700
     19  C         24.9490  -23.4190  -15.6130 C.2     1  UNL1        0.0350
     20  C         25.2310  -22.9310  -14.3260 C.2     1  UNL1       -0.0300
     21  C         25.4190  -23.9580  -13.2390 C.3     1  UNL1        0.0500
     22  H         23.3050  -21.8530  -12.8880 H       1  UNL1        0.1700
     23  C         19.1480  -22.0910   -9.8030 C.2     1  UNL1        0.2520
     24  O         18.6940  -21.3260  -10.6450 O.2     1  UNL1       -0.2680
     25  N         18.4290  -22.5380   -8.7170 N.am    1  UNL1       -0.3480
     26  H         18.8830  -23.0670   -7.9870 H       1  UNL1        0.1630
     27  C         17.0450  -22.1410   -8.4960 C.3     1  UNL1        0.1180
     28  C         16.1260  -22.7160   -9.5870 C.3     1  UNL1        0.0300
     29  C         15.9040  -24.2120   -9.3820 C.3     1  UNL1        0.0070
     30  C         15.2040  -24.4700   -8.0490 C.3     1  UNL1        0.0390
     31  C         15.8000  -23.7000   -6.8960 C.2     1  UNL1       -0.0500
     32  C         15.4660  -24.0760   -5.5870 C.2     1  UNL1        0.0070
     33  C         16.6250  -22.5790   -7.1040 C.2     1  UNL1       -0.0290
     34  C         15.9580  -23.3640   -4.4930 C.2     1  UNL1        0.0010
     35  C         16.7840  -22.2620   -4.6950 C.2     1  UNL1        0.0010
     36  C         17.1170  -21.8720   -5.9920 C.2     1  UNL1        0.0100
@<TRIPOS>BOND
     1    18    17    1
     2    17    16    2
     3    17    19    1
     4    16    15    1
     5    19    20    2
     6    15    14    1
     7    15    12    2
     8    14    13    1
     9    20    12    1
    10    20    21    1
    11    12     9    1
    12    13    11    1
    13    22     7    1
    14     9    11    1
    15     9     8   am
    16     7     8   am
    17     7     1    1
    18     8    10    2
    19     1     6    2
    20     1     2    1
    21     6     5    1
    22    24    23    2
    23     2     3    2
    24     5    23    1
    25     5     4    2
    26    23    25   am
    27    28    29    1
    28    28    27    1
    29    29    30    1
    30     3     4    1
    31    25    27    1
    32    25    26    1
    33    27    33    1
    34    30    31    1
    35    33    31    2
    36    33    36    1
    37    31    32    1
    38    36    35    2
    39    32    34    2
    40    35    34    1
