@<TRIPOS>MOLECULE
33799_out_ligand_01.pdbqt
 27 29 0 0 0
SMALL
GASTEIGER

@<TRIPOS>ATOM
      1  C         21.7070  -21.6550  -12.2480 C.2     1  UNL1        0.0320
      2  C         20.4090  -21.1570  -12.1550 C.2     1  UNL1        0.0190
      3  C         19.5540  -21.6020  -11.1360 C.2     1  UNL1        0.0310
      4  C         19.9550  -22.5680  -10.1990 C.2     1  UNL1        0.0430
      5  C         21.2670  -23.0800  -10.3130 C.2     1  UNL1       -0.0300
      6  C         22.1280  -22.6180  -11.3290 C.2     1  UNL1        0.0260
      7  C         21.8140  -24.1010   -9.3510 C.3     1  UNL1        0.0420
      8  C         20.6930  -24.8560   -8.6670 C.3     1  UNL1        0.0250
      9  C         19.7030  -23.8590   -8.0950 C.3     1  UNL1        0.1330
     10  N         19.0910  -23.0110   -9.1300 N.am    1  UNL1       -0.3130
     11  C         17.7290  -22.6620   -9.0610 C.2     1  UNL1        0.2610
     12  O         17.0330  -22.2600   -9.9930 O.2     1  UNL1       -0.2670
     13  C         17.0130  -22.8220   -7.7790 C.2     1  UNL1        0.0710
     14  C         17.4000  -22.0450   -6.6810 C.2     1  UNL1        0.0200
     15  C         16.7530  -22.2060   -5.4550 C.2     1  UNL1        0.0010
     16  C         15.7340  -23.1520   -5.3190 C.2     1  UNL1        0.0030
     17  C         15.3660  -23.9430   -6.4080 C.2     1  UNL1        0.0430
     18  C         16.0120  -23.7820   -7.6310 C.2     1  UNL1        0.1320
     19  F         15.6510  -24.5640   -8.6570 F       1  UNL1       -0.2050
     20  C         22.6620  -21.2130  -13.3040 C.2     1  UNL1        0.2510
     21  N         23.9070  -21.8040  -13.2970 N.am    1  UNL1       -0.3550
     22  H         24.0370  -22.6700  -12.7850 H       1  UNL1        0.1620
     23  O         22.3190  -20.3870  -14.1420 O.2     1  UNL1       -0.2680
     24  C         24.8490  -21.5630  -14.3740 C.3     1  UNL1        0.1490
     25  C         24.8810  -22.7370  -15.3530 C.3     1  UNL1        0.1860
     26  O         23.8770  -22.6130  -16.3680 O.3     1  UNL1       -0.3940
     27  C         24.1850  -23.3430  -17.5490 C.3     1  UNL1        0.2010
@<TRIPOS>BOND
     1    27    26    1
     2    26    25    1
     3    25    24    1
     4    24    21    1
     5    23    20    2
     6    20    21   am
     7    20     1    1
     8    21    22    1
     9     1     2    2
    10     1     6    1
    11     2     3    1
    12     6     5    2
    13     3     4    2
    14     5     4    1
    15     5     7    1
    16     4    10    1
    17    12    11    2
    18     7     8    1
    19    10    11   am
    20    10     9    1
    21    11    13    1
    22     8     9    1
    23    19    18    1
    24    13    18    2
    25    13    14    1
    26    18    17    1
    27    14    15    2
    28    17    16    2
    29    15    16    1
