@<TRIPOS>MOLECULE
33795_out_ligand_01.pdbqt
 36 40 0 0 0
SMALL
GASTEIGER

@<TRIPOS>ATOM
      1  C         21.4200  -22.0200  -11.6070 C.2     1  UNL1        0.0910
      2  C         21.6750  -21.4190  -12.8440 C.2     1  UNL1        0.0390
      3  C         22.9350  -21.5230  -13.4450 C.2     1  UNL1        0.0110
      4  C         23.9670  -22.2400  -12.8280 C.2     1  UNL1       -0.0380
      5  C         23.7200  -22.8410  -11.5880 C.2     1  UNL1        0.0370
      6  C         22.4530  -22.7390  -10.9910 C.2     1  UNL1        0.1130
      7  S         22.1970  -23.5230   -9.4160 S.O2    1  UNL1        0.2660
      8  O         23.4960  -23.7700   -8.8260 O.2     1  UNL1       -0.2000
      9  O         21.2580  -24.6120   -9.5920 O.2     1  UNL1       -0.2000
     10  N         21.4520  -22.3250   -8.4850 N.pl3   1  UNL1       -0.2810
     11  H         22.1440  -21.7160   -8.0520 H       1  UNL1        0.1790
     12  C         20.2880  -22.6660   -7.7490 C.2     1  UNL1        0.0420
     13  C         19.8170  -21.8150   -6.7530 C.2     1  UNL1        0.0310
     14  C         18.6470  -22.1370   -6.0560 C.2     1  UNL1        0.0160
     15  C         17.9300  -23.3070   -6.3510 C.2     1  UNL1       -0.0000
     16  C         18.4170  -24.1440   -7.3680 C.2     1  UNL1        0.0160
     17  C         19.5870  -23.8240   -8.0660 C.2     1  UNL1        0.0310
     18  C         16.7110  -23.6320   -5.6170 C.2     1  UNL1        0.1130
     19  C         15.3620  -23.5490   -5.8820 C.2     1  UNL1        0.0610
     20  C         14.7440  -24.0340   -4.7170 C.2     1  UNL1        0.1490
     21  N         15.6340  -24.3930   -3.7900 N.2     1  UNL1       -0.1400
     22  O         16.8710  -24.1400   -4.3580 O.2     1  UNL1       -0.2130
     23  O         20.2070  -21.9770  -10.9790 O.2     1  UNL1       -0.3540
     24  C         19.2300  -21.0830  -11.4980 C.3     1  UNL1        0.2100
     25  C         25.3360  -22.3150  -13.4640 C.3     1  UNL1        0.1740
     26  N         25.5800  -21.1770  -14.3200 N.am    1  UNL1       -0.2740
     27  C         25.4550  -21.2030  -15.6810 C.2     1  UNL1        0.2630
     28  O         25.0950  -22.1120  -16.4040 O.2     1  UNL1       -0.2670
     29  C         25.8360  -19.8850  -16.1620 C.2     1  UNL1        0.0670
     30  C         25.9050  -19.3470  -17.4290 C.2     1  UNL1        0.0210
     31  C         26.1720  -19.1200  -15.0700 C.2     1  UNL1        0.1400
     32  C         26.3220  -18.0170  -17.5220 C.2     1  UNL1        0.0200
     33  C         26.6410  -17.3140  -16.3510 C.2     1  UNL1        0.1170
     34  N         26.5760  -17.8380  -15.1020 N.2     1  UNL1       -0.2540
     35  C         26.0060  -19.9540  -13.8700 C.2     1  UNL1        0.2800
     36  O         26.2090  -19.6130  -12.7200 O.2     1  UNL1       -0.2650
@<TRIPOS>BOND
     1    32    30    1
     2    32    33    2
     3    30    29    2
     4    28    27    2
     5    33    34    1
     6    29    27    1
     7    29    31    1
     8    27    26   am
     9    34    31    2
    10    31    35    1
    11    26    35   am
    12    26    25    1
    13    35    36    2
    14    25     4    1
    15     3     2    1
    16     3     4    2
    17     2     1    2
    18     4     5    1
    19     1     6    1
    20     1    23    1
    21     5     6    2
    22    24    23    1
    23     6     7    1
    24     9     7    2
    25     7     8    2
    26     7    10    1
    27    10    11    1
    28    10    12    1
    29    17    12    2
    30    17    16    1
    31    12    13    1
    32    16    15    2
    33    13    14    2
    34    15    14    1
    35    15    18    1
    36    19    18    2
    37    19    20    1
    38    18    22    1
    39    20    21    2
    40    22    21    1
