@<TRIPOS>MOLECULE
337_out_ligand_01.pdbqt
 36 38 0 0 0
SMALL
GASTEIGER

@<TRIPOS>ATOM
      1  C         18.6000  -23.0860   -8.8630 C.2     1  UNL1        0.0740
      2  C         18.8590  -22.3390  -10.0160 C.2     1  UNL1        0.0260
      3  C         20.1820  -22.0830  -10.3850 C.2     1  UNL1        0.0180
      4  C         21.2410  -22.5940   -9.6210 C.2     1  UNL1        0.0320
      5  C         20.9700  -23.3490   -8.4700 C.2     1  UNL1        0.0180
      6  C         19.6490  -23.6050   -8.0970 C.2     1  UNL1        0.0260
      7  C         22.6330  -22.2840  -10.0500 C.2     1  UNL1        0.2510
      8  O         23.1480  -21.2180   -9.7300 O.2     1  UNL1       -0.2680
      9  N         23.2620  -23.2390  -10.8160 N.am    1  UNL1       -0.3530
     10  H         22.7590  -24.0540  -11.1350 H       1  UNL1        0.1630
     11  C         24.6160  -23.0610  -11.2880 C.3     1  UNL1        0.1610
     12  C         24.6570  -22.9050  -12.7880 C.2     1  UNL1       -0.0400
     13  C         24.1180  -21.7650  -13.4040 C.2     1  UNL1        0.0100
     14  C         24.1450  -21.6280  -14.7930 C.2     1  UNL1        0.0250
     15  C         24.7110  -22.6410  -15.5710 C.2     1  UNL1        0.0740
     16  C         25.2570  -23.7800  -14.9740 C.2     1  UNL1        0.0250
     17  C         25.2150  -23.9160  -13.5870 C.2     1  UNL1        0.0100
     18  S         24.7550  -22.4910  -17.3350 S.O2    1  UNL1        0.2390
     19  O         25.9650  -23.1160  -17.8110 O.2     1  UNL1       -0.2060
     20  O         24.3750  -21.1430  -17.6950 O.2     1  UNL1       -0.2060
     21  N         23.4440  -23.4470  -17.8000 N.3     1  UNL1       -0.2250
     22  H         23.2520  -24.2090  -17.1510 H       1  UNL1        0.1360
     23  H         22.6320  -22.8360  -17.9150 H       1  UNL1        0.1360
     24  S         16.9180  -23.4140   -8.3770 S.O2    1  UNL1        0.2450
     25  O         16.9510  -24.5720   -7.5050 O.2     1  UNL1       -0.2060
     26  O         16.1000  -23.4030   -9.5710 O.2     1  UNL1       -0.2060
     27  N         16.5270  -22.0840   -7.4010 N.pl3   1  UNL1       -0.1790
     28  H         15.7150  -21.5930   -7.7830 H       1  UNL1        0.1460
     29  C         16.4130  -22.3170   -5.9890 C.2     1  UNL1        0.0560
     30  C         15.2080  -22.7730   -5.4540 C.2     1  UNL1        0.0270
     31  C         15.0830  -22.9440   -4.0750 C.2     1  UNL1        0.0020
     32  C         16.1590  -22.6560   -3.2360 C.2     1  UNL1        0.0030
     33  C         17.3670  -22.1930   -3.7690 C.2     1  UNL1        0.0380
     34  C         17.5010  -22.0150   -5.1510 C.2     1  UNL1        0.0900
     35  O         18.6350  -21.5690   -5.7860 O.2     1  UNL1       -0.3540
     36  C         19.2860  -20.4530   -5.1940 C.3     1  UNL1        0.2100
@<TRIPOS>BOND
     1    23    21    1
     2    19    18    2
     3    21    18    1
     4    21    22    1
     5    20    18    2
     6    18    15    1
     7    15    16    2
     8    15    14    1
     9    16    17    1
    10    14    13    2
    11    17    12    2
    12    13    12    1
    13    12    11    1
    14    11     9    1
    15    10     9    1
    16     9     7   am
    17     3     2    1
    18     3     4    2
    19     7     8    2
    20     7     4    1
    21     2     1    2
    22     4     5    1
    23    26    24    2
    24     1    24    1
    25     1     6    1
    26     5     6    2
    27    24    25    2
    28    24    27    1
    29    28    27    1
    30    27    29    1
    31    29    30    2
    32    29    34    1
    33    35    36    1
    34    35    34    1
    35    30    31    1
    36    34    33    2
    37    31    32    2
    38    33    32    1
