@<TRIPOS>MOLECULE
33810_out_ligand_01.pdbqt
 31 35 0 0 0
SMALL
GASTEIGER

@<TRIPOS>ATOM
      1  C         20.5840  -22.2650  -10.2950 C.ar    1  UNL1        0.2130
      2  N         20.6040  -21.8080  -11.5310 N.ar    1  UNL1       -0.1200
      3  N         19.3080  -21.4790  -11.8840 N.ar    1  UNL1       -0.1280
      4  C         18.5350  -21.7510  -10.8540 C.ar    1  UNL1        0.1750
      5  C         17.1430  -21.6300  -10.6540 C.2     1  UNL1        0.0570
      6  C         16.6180  -21.9920   -9.4750 C.2     1  UNL1        0.0380
      7  C         17.5520  -22.5320   -8.4270 C.2     1  UNL1        0.0880
      8  N         18.8440  -22.6340   -8.5710 N.2     1  UNL1       -0.1630
      9  N         19.2980  -22.2380   -9.8010 N.ar    1  UNL1       -0.1870
     10  S         21.9470  -22.8560   -9.4190 S.3     1  UNL1       -0.0790
     11  C         23.0590  -21.4240   -9.5210 C.3     1  UNL1        0.1850
     12  C         24.0060  -21.5190  -10.7130 C.2     1  UNL1        0.2310
     13  O         25.1370  -21.0300  -10.6540 O.2     1  UNL1       -0.2720
     14  N         23.4810  -22.2280  -11.7810 N.am    1  UNL1       -0.3260
     15  H         22.5130  -22.5360  -11.6880 H       1  UNL1        0.1690
     16  C         24.0980  -22.5230  -13.0130 C.2     1  UNL1        0.0370
     17  C         24.9630  -23.6460  -13.0280 C.2     1  UNL1        0.0320
     18  C         25.6170  -24.0390  -14.2020 C.2     1  UNL1        0.0420
     19  C         25.4000  -23.2830  -15.3360 C.2     1  UNL1        0.1050
     20  C         24.5720  -22.1810  -15.3250 C.2     1  UNL1        0.1070
     21  O         25.9340  -23.5220  -16.5630 O.2     1  UNL1       -0.3230
     22  C         23.8980  -21.7800  -14.1860 C.2     1  UNL1        0.0690
     23  O         24.4960  -21.5820  -16.5400 O.2     1  UNL1       -0.3230
     24  C         25.3860  -22.4170  -17.3130 C.3     1  UNL1        0.3520
     25  C         16.9440  -22.9730   -7.1330 C.2     1  UNL1       -0.0050
     26  C         15.6090  -22.6260   -6.8770 C.2     1  UNL1        0.0170
     27  C         15.0080  -22.9740   -5.6630 C.2     1  UNL1        0.0430
     28  C         15.7410  -23.6550   -4.7040 C.2     1  UNL1        0.1160
     29  F         15.1650  -23.9650   -3.5270 F       1  UNL1       -0.2060
     30  C         17.0590  -23.9920   -4.9330 C.2     1  UNL1        0.0430
     31  C         17.6720  -23.6550   -6.1510 C.2     1  UNL1        0.0170
@<TRIPOS>BOND
     1    24    21    1
     2    24    23    1
     3    21    19    1
     4    23    20    1
     5    19    20    2
     6    19    18    1
     7    20    22    1
     8    18    17    2
     9    22    16    2
    10    17    16    1
    11    16    14    1
    12     3     2   ar
    13     3     4   ar
    14    14    15    1
    15    14    12   am
    16     2     1   ar
    17     4     5    1
    18     4     9   ar
    19    12    13    2
    20    12    11    1
    21     5     6    2
    22     1     9   ar
    23     1    10    1
    24     9     8    1
    25    11    10    1
    26     6     7    1
    27     8     7    2
    28     7    25    1
    29    25    26    2
    30    25    31    1
    31    26    27    1
    32    31    30    2
    33    27    28    2
    34    30    28    1
    35    28    29    1
