@<TRIPOS>MOLECULE
33812_out_ligand_01.pdbqt
 33 36 0 0 0
SMALL
GASTEIGER

@<TRIPOS>ATOM
      1  C         19.1050  -22.6540  -10.2100 C.2     1  UNL1        0.0720
      2  C         18.5810  -23.3850   -9.1330 C.2     1  UNL1        0.0450
      3  C         17.2360  -23.2300   -8.7700 C.2     1  UNL1        0.0810
      4  C         16.3990  -22.3590   -9.4700 C.2     1  UNL1        0.0280
      5  C         16.9160  -21.6350  -10.5430 C.2     1  UNL1        0.0450
      6  C         18.2570  -21.7850  -10.9040 C.2     1  UNL1        0.1320
      7  F         18.7040  -21.0700  -11.9470 F       1  UNL1       -0.2050
      8  C         20.5500  -22.8320  -10.5500 C.2     1  UNL1        0.2590
      9  O         21.0410  -23.9430  -10.3900 O.2     1  UNL1       -0.2670
     10  N         21.2020  -21.7350  -11.0790 N.am    1  UNL1       -0.3190
     11  H         20.6230  -20.9640  -11.4040 H       1  UNL1        0.1690
     12  C         22.5760  -21.6340  -11.4160 C.2     1  UNL1        0.0910
     13  C         23.0640  -21.5830  -12.7310 C.2     1  UNL1        0.1470
     14  F         22.2560  -21.7380  -13.7890 F       1  UNL1       -0.2040
     15  C         24.4270  -21.4740  -12.9970 C.2     1  UNL1        0.0870
     16  C         25.3260  -21.4340  -11.9440 C.2     1  UNL1        0.1200
     17  F         26.6370  -21.3370  -12.1970 F       1  UNL1       -0.2060
     18  C         24.8890  -21.5200  -10.6300 C.2     1  UNL1        0.0640
     19  C         23.5210  -21.6290  -10.3700 C.2     1  UNL1        0.0430
     20 BR         22.9840  -21.7400   -8.5460 Br      1  UNL1       -0.0490
     21  S         16.5990  -24.1760   -7.3960 S.O2    1  UNL1        0.2650
     22  O         17.7550  -24.8270   -6.8190 O.2     1  UNL1       -0.2000
     23  O         15.4780  -24.9460   -7.8940 O.2     1  UNL1       -0.2000
     24  N         15.9920  -22.9370   -6.3610 N.pl3   1  UNL1       -0.2710
     25  C         14.6810  -23.2290   -5.7160 C.3     1  UNL1        0.1420
     26  C         14.8720  -23.9230   -4.3780 C.3     1  UNL1        0.0260
     27  C         15.6680  -23.0390   -3.4330 C.3     1  UNL1        0.0420
     28  C         16.8570  -22.3950   -4.0960 C.2     1  UNL1       -0.0310
     29  C         17.8300  -21.7880   -3.2840 C.2     1  UNL1        0.0090
     30  C         16.9740  -22.3150   -5.4940 C.2     1  UNL1        0.0510
     31  C         18.9050  -21.1070   -3.8530 C.2     1  UNL1        0.0010
     32  C         19.0080  -21.0100   -5.2370 C.2     1  UNL1        0.0020
     33  C         18.0430  -21.6040   -6.0510 C.2     1  UNL1        0.0310
@<TRIPOS>BOND
     1    14    13    1
     2    15    13    1
     3    15    16    2
     4    13    12    2
     5    17    16    1
     6     7     6    1
     7    16    18    1
     8    12    10    1
     9    12    19    1
    10    11    10    1
    11    10     8   am
    12     6     5    1
    13     6     1    2
    14    18    19    2
    15     8     9    2
    16     8     1    1
    17     5     4    2
    18    19    20    1
    19     1     2    1
    20     4     3    1
    21     2     3    2
    22     3    21    1
    23    23    21    2
    24    21    22    2
    25    21    24    1
    26    24    25    1
    27    24    30    1
    28    33    30    1
    29    33    32    2
    30    25    26    1
    31    30    28    2
    32    32    31    1
    33    26    27    1
    34    28    27    1
    35    28    29    1
    36    31    29    2
