@<TRIPOS>MOLECULE
33823_out_ligand_01.pdbqt
 32 34 0 0 0
SMALL
GASTEIGER

@<TRIPOS>ATOM
      1  C         20.4820  -22.4320   -7.3750 C.2     1  UNL1        0.0720
      2  C         19.2950  -23.1690   -7.2300 C.2     1  UNL1        0.0450
      3  C         18.3170  -22.7510   -6.3200 C.2     1  UNL1        0.0800
      4  C         18.5200  -21.6220   -5.5210 C.2     1  UNL1        0.0280
      5  C         19.7030  -20.8960   -5.6540 C.2     1  UNL1        0.0450
      6  C         20.6690  -21.2990   -6.5770 C.2     1  UNL1        0.1320
      7  F         21.7880  -20.5640   -6.6720 F       1  UNL1       -0.2050
      8  S         16.8240  -23.7010   -6.1340 S.O2    1  UNL1        0.2580
      9  O         16.2180  -23.3190   -4.8780 O.2     1  UNL1       -0.2010
     10  O         17.1290  -25.0780   -6.4480 O.2     1  UNL1       -0.2010
     11  N         15.8450  -23.0810   -7.3400 N.3     1  UNL1       -0.3150
     12  H         15.6230  -22.0910   -7.2340 H       1  UNL1        0.1720
     13  C         15.8960  -23.6400   -8.6960 C.3     1  UNL1        0.1370
     14  C         15.7070  -22.5300   -9.7370 C.3     1  UNL1        0.0580
     15  C         16.9980  -22.1250  -10.4130 C.2     1  UNL1       -0.0570
     16  C         18.1130  -22.9740  -10.3780 C.2     1  UNL1        0.0090
     17  C         19.2990  -22.6110  -11.0200 C.2     1  UNL1        0.0240
     18  C         19.3750  -21.3970  -11.6990 C.2     1  UNL1        0.0340
     19 CL         20.8340  -20.9510  -12.4930 Cl      1  UNL1       -0.0840
     20  C         18.2760  -20.5430  -11.7410 C.2     1  UNL1        0.0240
     21  C         17.0880  -20.9060  -11.1000 C.2     1  UNL1        0.0090
     22  C         21.4750  -22.8840   -8.3970 C.2     1  UNL1        0.2590
     23  N         22.1590  -21.8940   -9.0740 N.am    1  UNL1       -0.3230
     24  H         21.9290  -20.9330   -8.8460 H       1  UNL1        0.1690
     25  O         21.6030  -24.0940   -8.5600 O.2     1  UNL1       -0.2670
     26  C         23.1460  -22.0510  -10.0720 C.2     1  UNL1        0.0350
     27  C         22.9490  -23.0800  -11.0020 C.2     1  UNL1        0.0290
     28  C         23.8790  -23.3100  -12.0180 C.2     1  UNL1        0.0030
     29  C         25.0150  -22.5100  -12.1180 C.2     1  UNL1        0.0070
     30  C         25.2220  -21.4680  -11.2090 C.2     1  UNL1       -0.0600
     31  C         26.4580  -20.6200  -11.2910 C.3     1  UNL1        0.0480
     32  C         24.2870  -21.2540  -10.1810 C.2     1  UNL1        0.0360
@<TRIPOS>BOND
     1    19    18    1
     2    29    28    2
     3    29    30    1
     4    28    27    1
     5    20    18    2
     6    20    21    1
     7    18    17    1
     8    31    30    1
     9    30    32    2
    10    21    15    2
    11    17    16    2
    12    27    26    2
    13    15    16    1
    14    15    14    1
    15    32    26    1
    16    26    23    1
    17    14    13    1
    18    23    24    1
    19    23    22   am
    20    13    11    1
    21    25    22    2
    22    22     1    1
    23     1     2    2
    24     1     6    1
    25    11    12    1
    26    11     8    1
    27     2     3    1
    28     7     6    1
    29     6     5    2
    30    10     8    2
    31     3     8    1
    32     3     4    2
    33     8     9    2
    34     5     4    1
