@<TRIPOS>MOLECULE
33833_out_ligand_01.pdbqt
 37 41 0 0 0
SMALL
GASTEIGER

@<TRIPOS>ATOM
      1  N         22.6090  -22.1670  -11.3250 N.am    1  UNL1       -0.3220
      2  C         23.1030  -21.7340  -10.0990 C.2     1  UNL1        0.2770
      3  O         24.2070  -21.2320   -9.9210 O.2     1  UNL1       -0.2660
      4  H         21.6210  -22.3840  -11.3610 H       1  UNL1        0.1690
      5  C         23.2900  -22.2010  -12.5590 C.2     1  UNL1        0.0350
      6  C         24.3600  -23.0580  -12.8370 C.2     1  UNL1        0.0310
      7  C         24.9750  -23.0410  -14.0950 C.2     1  UNL1        0.0270
      8  C         24.5250  -22.1510  -15.0720 C.2     1  UNL1        0.0750
      9  C         23.4490  -21.3000  -14.8150 C.2     1  UNL1        0.0270
     10  C         22.8310  -21.3310  -13.5610 C.2     1  UNL1        0.0310
     11  S         25.3090  -22.1310  -16.6700 S.O2    1  UNL1        0.2470
     12  O         24.5500  -21.2320  -17.5110 O.2     1  UNL1       -0.2050
     13  O         25.5620  -23.5050  -17.0450 O.2     1  UNL1       -0.2050
     14  N         26.8110  -21.4440  -16.2650 N.pl3   1  UNL1       -0.1580
     15  H         27.5020  -21.8900  -16.8720 H       1  UNL1        0.1480
     16  C         26.8390  -20.0060  -16.5310 C.ar    1  UNL1        0.1700
     17  O         27.1210  -19.4770  -17.7500 O.2     1  UNL1       -0.2000
     18  N         27.1210  -18.0990  -17.6650 N.ar    1  UNL1       -0.1310
     19  C         26.8460  -17.8140  -16.3850 C.ar    1  UNL1        0.0680
     20  C         26.7780  -16.4000  -15.9390 C.3     1  UNL1        0.0730
     21  C         26.6740  -18.9950  -15.6110 C.ar    1  UNL1        0.0130
     22  C         26.3810  -19.0990  -14.1640 C.3     1  UNL1        0.0540
     23  C         22.1420  -21.9080   -8.9980 C.2     1  UNL1        0.1540
     24  C         20.8980  -22.6010   -9.0110 C.2     1  UNL1        0.0800
     25  C         20.3960  -22.4560   -7.7380 C.2     1  UNL1        0.1140
     26  O         21.2790  -21.7210   -7.0060 O.2     1  UNL1       -0.2120
     27  N         22.3720  -21.3880   -7.7810 N.2     1  UNL1       -0.1220
     28  C         19.1990  -22.9170   -7.0470 C.2     1  UNL1        0.0030
     29  C         18.5670  -24.1090   -7.4390 C.2     1  UNL1        0.0170
     30  C         17.4180  -24.5610   -6.7820 C.2     1  UNL1        0.0400
     31  C         16.8810  -23.8210   -5.7330 C.2     1  UNL1        0.1020
     32  C         17.5070  -22.6430   -5.3220 C.2     1  UNL1        0.1030
     33  O         15.7460  -24.3150   -5.1460 O.2     1  UNL1       -0.3460
     34  C         18.6510  -22.1890   -5.9800 C.2     1  UNL1        0.0540
     35  O         17.0460  -21.8720   -4.2860 O.2     1  UNL1       -0.3460
     36  C         16.1120  -22.5910   -3.4740 C.3     1  UNL1        0.2020
     37  C         15.1010  -23.3240   -4.3370 C.3     1  UNL1        0.2020
@<TRIPOS>BOND
     1    17    18   ar
     2    17    16   ar
     3    18    19   ar
     4    12    11    2
     5    13    11    2
     6    15    14    1
     7    11    14    1
     8    11     8    1
     9    16    14    1
    10    16    21   ar
    11    19    20    1
    12    19    21   ar
    13    21    22    1
    14     8     9    2
    15     8     7    1
    16     9    10    1
    17     7     6    2
    18    10     5    2
    19     6     5    1
    20     5     1    1
    21     4     1    1
    22     1     2   am
    23     2     3    2
    24     2    23    1
    25    24    23    1
    26    24    25    2
    27    23    27    2
    28    27    26    1
    29    25    28    1
    30    25    26    1
    31    29    28    2
    32    29    30    1
    33    28    34    1
    34    30    31    2
    35    34    32    2
    36    31    32    1
    37    31    33    1
    38    32    35    1
    39    33    37    1
    40    37    36    1
    41    35    36    1
