@<TRIPOS>MOLECULE
33835_out_ligand_01.pdbqt
 34 37 0 0 0
SMALL
GASTEIGER

@<TRIPOS>ATOM
      1  C         18.8920  -22.5320  -10.1230 C.2     1  UNL1        0.0320
      2  C         19.1250  -21.5290  -11.0700 C.2     1  UNL1        0.0190
      3  C         20.4100  -21.3430  -11.5910 C.2     1  UNL1        0.0300
      4  C         21.4770  -22.1560  -11.1850 C.2     1  UNL1        0.0360
      5  C         21.2360  -23.1700  -10.2560 C.2     1  UNL1        0.0300
      6  C         19.9510  -23.3570   -9.7300 C.2     1  UNL1        0.0190
      7  N         22.7300  -21.9040  -11.7710 N.am    1  UNL1       -0.3090
      8  C         23.8970  -21.4760  -11.1600 C.2     1  UNL1        0.3270
      9  O         23.9900  -21.1400   -9.9830 O.2     1  UNL1       -0.2460
     10  N         24.9860  -21.3790  -12.0610 N.am    1  UNL1       -0.2990
     11  C         26.1940  -20.7430  -11.5260 C.3     1  UNL1        0.1340
     12  C         25.1650  -22.2980  -13.1410 C.2     1  UNL1        0.0450
     13  C         27.1210  -20.0880  -12.5450 C.3     1  UNL1        0.0210
     14  C         26.3270  -19.4540  -13.6770 C.3     1  UNL1        0.0060
     15  C         26.0030  -20.4620  -14.7790 C.3     1  UNL1        0.0410
     16  C         25.6510  -21.8830  -14.3950 C.2     1  UNL1       -0.0310
     17  C         25.7610  -22.8460  -15.4220 C.2     1  UNL1        0.0090
     18  C         25.4240  -24.1830  -15.2120 C.2     1  UNL1        0.0010
     19  C         24.9620  -24.5880  -13.9700 C.2     1  UNL1        0.0020
     20  C         24.8350  -23.6530  -12.9430 C.2     1  UNL1        0.0300
     21  H         22.7850  -21.9750  -12.7770 H       1  UNL1        0.1700
     22  C         17.5440  -22.7790   -9.5350 C.2     1  UNL1        0.2510
     23  N         17.4970  -23.5800   -8.4150 N.am    1  UNL1       -0.3530
     24  H         18.3080  -24.1240   -8.1600 H       1  UNL1        0.1630
     25  O         16.5460  -22.2990  -10.0620 O.2     1  UNL1       -0.2680
     26  C         16.2400  -23.9870   -7.8240 C.3     1  UNL1        0.1610
     27  C         16.1040  -23.4280   -6.4330 C.2     1  UNL1       -0.0380
     28  C         14.9200  -23.6130   -5.7090 C.2     1  UNL1        0.0090
     29  C         14.8020  -23.1120   -4.4130 C.2     1  UNL1        0.0030
     30  C         15.8640  -22.4180   -3.8260 C.2     1  UNL1        0.0370
     31  C         17.0510  -22.2290   -4.5330 C.2     1  UNL1        0.0680
     32  C         17.1670  -22.7400   -5.8290 C.2     1  UNL1        0.0450
     33  O         18.1610  -21.5690   -4.0780 O.2     1  UNL1       -0.3560
     34  C         18.9380  -20.8790   -5.0480 C.3     1  UNL1        0.2100
@<TRIPOS>BOND
     1    17    18    2
     2    17    16    1
     3    18    19    1
     4    15    16    1
     5    15    14    1
     6    16    12    2
     7    19    20    2
     8    14    13    1
     9    12    20    1
    10    12    10    1
    11    21     7    1
    12    13    11    1
    13    10    11    1
    14    10     8   am
    15     7     4    1
    16     7     8   am
    17     3     4    2
    18     3     2    1
    19     4     5    1
    20     8     9    2
    21     2     1    2
    22     5     6    2
    23     1     6    1
    24     1    22    1
    25    25    22    2
    26    22    23   am
    27    23    24    1
    28    23    26    1
    29    26    27    1
    30    27    32    2
    31    27    28    1
    32    32    31    1
    33    28    29    2
    34    34    33    1
    35    31    33    1
    36    31    30    2
    37    29    30    1
