@<TRIPOS>MOLECULE
33836_out_ligand_01.pdbqt
 37 41 0 0 0
SMALL
GASTEIGER

@<TRIPOS>ATOM
      1  C         17.0250  -23.3470   -8.5480 C.2     1  UNL1        0.0980
      2  C         16.5980  -22.6310   -9.6010 C.2     1  UNL1        0.1090
      3  N         17.4110  -21.9990  -10.5070 N.pl3   1  UNL1       -0.3640
      4  C         18.8010  -22.1600  -10.4470 C.2     1  UNL1        0.0460
      5  C         19.6350  -21.5330  -11.3800 C.2     1  UNL1        0.0320
      6  C         21.0240  -21.6450  -11.2730 C.2     1  UNL1        0.0270
      7  C         21.5820  -22.3740  -10.2170 C.2     1  UNL1        0.0810
      8  C         20.7680  -23.0110   -9.2770 C.2     1  UNL1        0.0430
      9  C         19.3810  -22.8860   -9.3880 C.2     1  UNL1        0.0430
     10  C         18.4910  -23.5260   -8.3810 C.2     1  UNL1        0.2010
     11  O         18.9700  -24.1690   -7.4520 O.2     1  UNL1       -0.2860
     12  H         16.9920  -21.6600  -11.3670 H       1  UNL1        0.1650
     13  S         23.3470  -22.5080  -10.0860 S.O2    1  UNL1        0.2630
     14  O         23.9310  -21.1960  -10.2490 O.2     1  UNL1       -0.2000
     15  O         23.6300  -23.3080   -8.9120 O.2     1  UNL1       -0.2000
     16  N         23.7420  -23.4770  -11.4160 N.pl3   1  UNL1       -0.2810
     17  H         23.9770  -24.4210  -11.1070 H       1  UNL1        0.1790
     18  C         24.5600  -22.9080  -12.4320 C.2     1  UNL1        0.0450
     19  C         25.9480  -23.0160  -12.3290 C.2     1  UNL1        0.0330
     20  C         26.7620  -22.5040  -13.3400 C.2     1  UNL1        0.0420
     21  C         26.1850  -21.8920  -14.4510 C.2     1  UNL1        0.1020
     22  C         24.7940  -21.7650  -14.5380 C.2     1  UNL1        0.1040
     23  O         27.0430  -21.4350  -15.4170 O.2     1  UNL1       -0.3460
     24  C         23.9780  -22.2880  -13.5360 C.2     1  UNL1        0.0690
     25  O         24.1610  -21.1460  -15.5870 O.2     1  UNL1       -0.3460
     26  C         25.0790  -20.3850  -16.3800 C.3     1  UNL1        0.2020
     27  C         26.3490  -21.1760  -16.6440 C.3     1  UNL1        0.2020
     28  C         16.0050  -23.9870   -7.6870 C.2     1  UNL1        0.2590
     29  N         15.6250  -23.3580   -6.5090 N.am    1  UNL1       -0.3460
     30  C         14.6250  -24.0220   -5.6890 C.3     1  UNL1        0.1530
     31  O         15.5040  -25.0500   -8.0620 O.2     1  UNL1       -0.2670
     32  C         15.8860  -21.9480   -6.2110 C.3     1  UNL1        0.1900
     33  C         16.9670  -21.8310   -5.1940 C.2     1  UNL1        0.0700
     34  C         18.2910  -21.4470   -5.2540 C.2     1  UNL1        0.0360
     35  C         18.7950  -21.5410   -3.9350 C.2     1  UNL1        0.0270
     36  C         17.7490  -21.9710   -3.1540 C.2     1  UNL1        0.1420
     37  O         16.6340  -22.1450   -3.9070 O.2     1  UNL1       -0.3250
@<TRIPOS>BOND
     1    27    26    1
     2    27    23    1
     3    26    25    1
     4    25    22    1
     5    23    21    1
     6    22    21    2
     7    22    24    1
     8    21    20    1
     9    24    18    2
    10    20    19    2
    11    18    19    1
    12    18    16    1
    13    16    17    1
    14    16    13    1
    15     5     6    1
    16     5     4    2
    17    12     3    1
    18     6     7    2
    19     3     4    1
    20     3     2    1
    21     4     9    1
    22    14    13    2
    23     7    13    1
    24     7     8    1
    25    13    15    2
    26     2     1    2
    27     9     8    2
    28     9    10    1
    29     1    10    1
    30     1    28    1
    31    10    11    2
    32    31    28    2
    33    28    29   am
    34    29    32    1
    35    29    30    1
    36    32    33    1
    37    34    33    2
    38    34    35    1
    39    33    37    1
    40    35    36    2
    41    37    36    1
