@<TRIPOS>MOLECULE
33844_out_ligand_01.pdbqt
 34 37 0 0 0
SMALL
GASTEIGER

@<TRIPOS>ATOM
      1  C         18.9910  -22.1690  -10.6500 C.2     1  UNL1        0.0320
      2  C         19.3860  -21.3140  -11.6830 C.2     1  UNL1        0.0190
      3  C         20.7300  -21.2670  -12.0740 C.2     1  UNL1        0.0300
      4  C         21.6900  -22.0620  -11.4330 C.2     1  UNL1        0.0360
      5  C         21.2810  -22.9370  -10.4230 C.2     1  UNL1        0.0300
      6  C         19.9360  -22.9960  -10.0360 C.2     1  UNL1        0.0190
      7  N         23.0230  -21.9450  -11.8730 N.am    1  UNL1       -0.3090
      8  C         24.1320  -21.5840  -11.1300 C.2     1  UNL1        0.3270
      9  O         24.0790  -21.1710   -9.9730 O.2     1  UNL1       -0.2460
     10  N         25.3420  -21.6260  -11.8480 N.am    1  UNL1       -0.2990
     11  C         26.4740  -20.8800  -11.3050 C.3     1  UNL1        0.1340
     12  C         25.5930  -22.4080  -13.0210 C.2     1  UNL1        0.0450
     13  C         26.5480  -19.4770  -11.8930 C.3     1  UNL1        0.0210
     14  C         26.3780  -19.4510  -13.4110 C.3     1  UNL1        0.0060
     15  C         27.1060  -20.5930  -14.1190 C.3     1  UNL1        0.0410
     16  C         26.4400  -21.9580  -14.0590 C.2     1  UNL1       -0.0310
     17  C         26.7020  -22.8260  -15.1420 C.2     1  UNL1        0.0090
     18  C         26.1300  -24.0960  -15.2140 C.2     1  UNL1        0.0010
     19  C         25.2930  -24.5310  -14.1970 C.2     1  UNL1        0.0020
     20  C         25.0330  -23.6980  -13.1080 C.2     1  UNL1        0.0300
     21  H         23.1730  -21.9520  -12.8730 H       1  UNL1        0.1700
     22  C         17.5790  -22.2330  -10.1880 C.2     1  UNL1        0.2510
     23  O         16.7570  -21.4260  -10.6030 O.2     1  UNL1       -0.2680
     24  N         17.2840  -23.2630   -9.3210 N.am    1  UNL1       -0.3570
     25  H         17.9790  -23.9780   -9.1480 H       1  UNL1        0.1620
     26  C         15.9300  -23.5180   -8.8640 C.3     1  UNL1        0.1240
     27  C         15.8950  -23.8910   -7.3840 C.3     1  UNL1        0.0500
     28  C         17.2760  -24.2760   -6.8350 C.3     1  UNL1        0.2740
     29  N         17.7320  -23.4490   -5.7130 N.3     1  UNL1        0.0880
     30  C         17.9900  -22.0670   -6.1280 C.3     1  UNL1        0.2720
     31  C         18.7340  -21.3130   -5.0190 C.3     1  UNL1        0.0300
     32  C         18.2360  -21.6610   -3.6140 C.3     1  UNL1        0.0030
     33  C         16.8360  -22.2590   -3.6680 C.3     1  UNL1        0.0300
     34  C         16.8010  -23.5060   -4.5660 C.3     1  UNL1        0.2720
@<TRIPOS>BOND
     1    18    17    2
     2    18    19    1
     3    17    16    1
     4    19    20    2
     5    15    16    1
     6    15    14    1
     7    16    12    2
     8    14    13    1
     9    20    12    1
    10    12    10    1
    11    21     7    1
    12     3     2    1
    13     3     4    2
    14    13    11    1
    15     7     4    1
    16     7     8   am
    17    10    11    1
    18    10     8   am
    19     2     1    2
    20     4     5    1
    21     8     9    2
    22     1    22    1
    23     1     6    1
    24    23    22    2
    25     5     6    2
    26    22    24   am
    27    24    25    1
    28    24    26    1
    29    26    27    1
    30    27    28    1
    31    28    29    1
    32    30    29    1
    33    30    31    1
    34    29    34    1
    35    31    32    1
    36    34    33    1
    37    33    32    1
