@<TRIPOS>MOLECULE
3384_out_ligand_01.pdbqt
 37 40 0 0 0
SMALL
GASTEIGER

@<TRIPOS>ATOM
      1  C         20.2850  -22.2540  -10.6220 C.2     1  UNL1        0.0710
      2  C         19.2510  -22.7390   -9.8050 C.2     1  UNL1        0.0450
      3  C         17.9230  -22.3940  -10.0820 C.2     1  UNL1        0.0760
      4  C         17.6070  -21.5890  -11.1800 C.2     1  UNL1        0.0280
      5  C         18.6330  -21.1130  -11.9970 C.2     1  UNL1        0.0450
      6  C         19.9600  -21.4430  -11.7130 C.2     1  UNL1        0.1320
      7  F         20.9130  -20.9510  -12.5170 F       1  UNL1       -0.2050
      8  C         21.6840  -22.6220  -10.2730 C.2     1  UNL1        0.2540
      9  O         21.8990  -23.6710   -9.6750 O.2     1  UNL1       -0.2680
     10  N         22.6860  -21.7490  -10.6390 N.am    1  UNL1       -0.3560
     11  H         22.4170  -20.8330  -10.9830 H       1  UNL1        0.1620
     12  C         24.0620  -21.9650  -10.2210 C.3     1  UNL1        0.1370
     13  C         25.0390  -22.4180  -11.3470 C.3     1  UNL1        0.0070
     14  C         26.0790  -23.4290  -10.7760 C.3     1  UNL1        0.0420
     15  C         26.9550  -24.0190  -11.8770 C.3     1  UNL1        0.1680
     16  O         26.1510  -24.6780  -12.8540 O.3     1  UNL1       -0.3910
     17  C         25.2330  -23.7900  -13.4880 C.3     1  UNL1        0.1680
     18  C         24.2730  -23.2000  -12.4580 C.3     1  UNL1        0.0420
     19  C         25.6870  -21.1120  -11.8850 C.2     1  UNL1       -0.0460
     20  C         26.3960  -20.2400  -11.0360 C.2     1  UNL1        0.0080
     21  C         26.9950  -19.0700  -11.5180 C.2     1  UNL1        0.0020
     22  C         26.9180  -18.7500  -12.8690 C.2     1  UNL1        0.0190
     23  C         26.2560  -19.6120  -13.7340 C.2     1  UNL1        0.0110
     24 BR         26.1710  -19.2050  -15.5790 Br      1  UNL1       -0.0510
     25  C         25.6560  -20.7820  -13.2560 C.2     1  UNL1        0.0270
     26  S         16.6220  -23.0270   -9.0460 S.O2    1  UNL1        0.2450
     27  O         16.0160  -21.9000   -8.3720 O.2     1  UNL1       -0.2060
     28  O         15.8500  -23.9620   -9.8330 O.2     1  UNL1       -0.2060
     29  N         17.5390  -23.9460   -7.9360 N.pl3   1  UNL1       -0.1810
     30  H         17.0800  -24.8570   -7.8580 H       1  UNL1        0.1460
     31  C         17.6530  -23.3370   -6.6410 C.2     1  UNL1        0.0240
     32  C         17.0780  -23.9700   -5.5380 C.2     1  UNL1        0.0240
     33  C         17.2140  -23.4140   -4.2650 C.2     1  UNL1        0.0030
     34  C         17.9360  -22.2320   -4.0960 C.2     1  UNL1        0.0190
     35  C         18.5280  -21.6180   -5.2010 C.2     1  UNL1        0.0120
     36 BR         19.5220  -20.0260   -4.9660 Br      1  UNL1       -0.0510
     37  C         18.3970  -22.1670   -6.4760 C.2     1  UNL1        0.0430
@<TRIPOS>BOND
     1    24    23    1
     2    23    25    1
     3    23    22    2
     4    17    16    1
     5    17    18    1
     6    25    19    2
     7    22    21    1
     8    16    15    1
     9     7     6    1
    10    18    13    1
    11     5     6    1
    12     5     4    2
    13    19    13    1
    14    19    20    1
    15    15    14    1
    16     6     1    2
    17    21    20    2
    18    13    14    1
    19    13    12    1
    20     4     3    1
    21    11    10    1
    22    10     8   am
    23    10    12    1
    24     1     8    1
    25     1     2    1
    26     8     9    2
    27     3     2    2
    28     3    26    1
    29    28    26    2
    30    26    27    2
    31    26    29    1
    32    29    30    1
    33    29    31    1
    34    31    37    2
    35    31    32    1
    36    37    35    1
    37    32    33    2
    38    35    36    1
    39    35    34    2
    40    33    34    1
