@<TRIPOS>MOLECULE
33841_out_ligand_01.pdbqt
 26 28 0 0 0
SMALL
GASTEIGER

@<TRIPOS>ATOM
      1  C         23.1360  -22.0200  -12.6310 C.2     1  UNL1        0.0320
      2  C         23.3730  -22.7880  -11.4910 C.2     1  UNL1        0.0190
      3  C         22.3490  -22.9930  -10.5570 C.2     1  UNL1        0.0310
      4  C         21.0670  -22.4460  -10.7310 C.2     1  UNL1        0.0430
      5  C         20.8410  -21.6580  -11.8790 C.2     1  UNL1       -0.0300
      6  C         21.8780  -21.4420  -12.8090 C.2     1  UNL1        0.0260
      7  C         19.5180  -20.9890  -12.1420 C.3     1  UNL1        0.0420
      8  C         18.4010  -21.6860  -11.3930 C.3     1  UNL1        0.0250
      9  C         18.7970  -21.8330   -9.9350 C.3     1  UNL1        0.1330
     10  N         20.0180  -22.6320   -9.7580 N.am    1  UNL1       -0.3130
     11  C         20.1200  -23.5620   -8.7070 C.2     1  UNL1        0.2580
     12  O         20.8730  -24.5340   -8.6660 O.2     1  UNL1       -0.2670
     13  C         19.2390  -23.3870   -7.5260 C.2     1  UNL1        0.0320
     14  C         18.2590  -24.3410   -7.2210 C.2     1  UNL1        0.0200
     15  C         17.4230  -24.1440   -6.1200 C.2     1  UNL1        0.0430
     16  C         17.5640  -22.9940   -5.3480 C.2     1  UNL1        0.1160
     17  F         16.7600  -22.8090   -4.2940 F       1  UNL1       -0.2060
     18  C         18.5180  -22.0290   -5.6600 C.2     1  UNL1        0.0430
     19  C         19.3560  -22.2210   -6.7590 C.2     1  UNL1        0.0200
     20  C         24.1910  -21.7650  -13.6510 C.2     1  UNL1        0.2510
     21  N         23.7590  -21.6110  -14.9520 N.am    1  UNL1       -0.3530
     22  H         22.7840  -21.3980  -15.1070 H       1  UNL1        0.1630
     23  O         25.3660  -21.6700  -13.3120 O.2     1  UNL1       -0.2680
     24  C         24.6890  -21.2040  -15.9750 C.3     1  UNL1        0.1490
     25  C         25.0210  -22.4150  -16.7850 C.2     1  UNL1       -0.0180
     26  C         24.1850  -23.4370  -17.0040 C.2     1  UNL1        0.0080
@<TRIPOS>BOND
     1    26    25    2
     2    25    24    1
     3    24    21    1
     4    22    21    1
     5    21    20   am
     6    20    23    2
     7    20     1    1
     8     6     1    2
     9     6     5    1
    10     1     2    1
    11     7     5    1
    12     7     8    1
    13     5     4    2
    14     2     3    2
    15     8     9    1
    16     4     3    1
    17     4    10    1
    18     9    10    1
    19    10    11   am
    20    11    12    2
    21    11    13    1
    22    13    14    2
    23    13    19    1
    24    14    15    1
    25    19    18    2
    26    15    16    2
    27    18    16    1
    28    16    17    1
