@<TRIPOS>MOLECULE
33852_out_ligand_01.pdbqt
 34 36 0 0 0
SMALL
GASTEIGER

@<TRIPOS>ATOM
      1  C         25.9310  -19.7410  -17.5220 C.3     1  UNL1        0.0500
      2  C         25.9190  -20.4230  -16.1780 C.2     1  UNL1       -0.0340
      3  C         26.2990  -19.5820  -15.0600 C.2     1  UNL1        0.0330
      4  C         26.3660  -20.0550  -13.8030 C.2     1  UNL1        0.0120
      5  C         26.7640  -19.1460  -12.6710 C.3     1  UNL1        0.0680
      6  N         26.0510  -21.3930  -13.5560 N.am    1  UNL1       -0.3080
      7  C         25.6090  -22.2490  -14.5700 C.2     1  UNL1        0.2690
      8  O         25.2230  -23.3960  -14.3330 O.2     1  UNL1       -0.2660
      9  C         25.5850  -21.7110  -15.9640 C.2     1  UNL1        0.1180
     10  C         25.1870  -22.5940  -17.0040 C.1     1  UNL1        0.1050
     11  N         24.8650  -23.2860  -17.8780 N.1     1  UNL1       -0.1910
     12  C         26.0980  -21.9550  -12.1980 C.3     1  UNL1        0.2350
     13  C         24.7860  -21.7110  -11.4440 C.2     1  UNL1        0.2400
     14  O         24.7690  -21.0430  -10.4130 O.2     1  UNL1       -0.2710
     15  N         23.6960  -22.3070  -12.0600 N.am    1  UNL1       -0.3260
     16  H         23.8910  -22.7930  -12.9370 H       1  UNL1        0.1690
     17  C         22.3460  -22.2610  -11.6650 C.2     1  UNL1        0.0340
     18  C         21.8310  -22.9360  -10.5600 C.2     1  UNL1        0.0300
     19  C         20.4740  -22.8240  -10.2320 C.2     1  UNL1        0.0190
     20  C         19.6140  -22.0430  -11.0100 C.2     1  UNL1        0.0320
     21  C         20.1280  -21.3560  -12.1140 C.2     1  UNL1        0.0190
     22  C         21.4850  -21.4720  -12.4400 C.2     1  UNL1        0.0300
     23  C         18.1810  -21.9480  -10.6070 C.2     1  UNL1        0.2510
     24  O         17.5130  -20.9690  -10.9220 O.2     1  UNL1       -0.2680
     25  N         17.6780  -22.9890   -9.8590 N.am    1  UNL1       -0.3530
     26  H         18.3170  -23.6310   -9.4130 H       1  UNL1        0.1630
     27  C         16.3330  -22.9280   -9.3370 C.3     1  UNL1        0.1610
     28  C         16.3370  -23.1280   -7.8440 C.2     1  UNL1       -0.0400
     29  C         15.4400  -22.4290   -7.0240 C.2     1  UNL1        0.0100
     30  C         15.4660  -22.6000   -5.6380 C.2     1  UNL1        0.0190
     31  C         16.3950  -23.4670   -5.0660 C.2     1  UNL1        0.0110
     32 BR         16.4330  -23.6940   -3.1900 Br      1  UNL1       -0.0510
     33  C         17.3000  -24.1620   -5.8660 C.2     1  UNL1        0.0190
     34  C         17.2730  -23.9900   -7.2510 C.2     1  UNL1        0.0100
@<TRIPOS>BOND
     1    11    10    3
     2     1     2    1
     3    10     9    1
     4     2     9    2
     5     2     3    1
     6     9     7    1
     7     3     4    2
     8     7     8    2
     9     7     6   am
    10     4     6    1
    11     4     5    1
    12     6    12    1
    13    16    15    1
    14    22    21    1
    15    22    17    2
    16    12    13    1
    17    21    20    2
    18    15    17    1
    19    15    13   am
    20    17    18    1
    21    13    14    2
    22    20    23    1
    23    20    19    1
    24    24    23    2
    25    23    25   am
    26    18    19    2
    27    25    26    1
    28    25    27    1
    29    27    28    1
    30    28    34    2
    31    28    29    1
    32    34    33    1
    33    29    30    2
    34    33    31    2
    35    30    31    1
    36    31    32    1
