@<TRIPOS>MOLECULE
33868_out_ligand_01.pdbqt
 35 39 0 0 0
SMALL
GASTEIGER

@<TRIPOS>ATOM
      1  C         20.3490  -22.3280  -10.2480 C.3     1  UNL1        0.0500
      2  C         21.4560  -22.2880  -11.0180 C.ar    1  UNL1        0.0830
      3  C         21.6340  -21.5830  -12.3350 C.ar    1  UNL1        0.1620
      4  N         20.7360  -20.8090  -12.8710 N.pl3   1  UNL1       -0.2810
      5  N         22.8490  -21.7880  -12.9580 N.ar    1  UNL1       -0.1880
      6  N         23.1580  -21.2170  -14.1790 N.ar    1  UNL1       -0.1380
      7  C         24.3670  -21.5600  -14.5290 C.ar    1  UNL1        0.1920
      8  S         25.2240  -22.6210  -13.4010 S.2     1  UNL1       -0.0100
      9  C         23.8200  -22.5510  -12.3720 C.ar    1  UNL1        0.2020
     10  N         23.7890  -23.1500  -11.2370 N.ar    1  UNL1       -0.1820
     11  C         22.6580  -23.0340  -10.4560 C.ar    1  UNL1        0.2830
     12  O         22.6200  -23.5200   -9.3290 O.2     1  UNL1       -0.2650
     13  H         21.1430  -20.4720  -13.7570 H       1  UNL1        0.1880
     14  C         19.0910  -21.7540  -10.5570 C.2     1  UNL1        0.0350
     15  C         18.7250  -20.6460  -11.3000 C.2     1  UNL1        0.0310
     16  C         17.3130  -20.5800  -11.3290 C.2     1  UNL1        0.0190
     17  C         16.8410  -21.6510  -10.6060 C.2     1  UNL1        0.0910
     18  N         17.9230  -22.3600  -10.1350 N.pl3   1  UNL1       -0.3570
     19  C         17.7940  -23.5390   -9.2840 C.3     1  UNL1        0.1300
     20  C         16.4650  -23.5530   -8.5300 C.3     1  UNL1        0.0470
     21  C         16.5980  -24.2020   -7.1540 C.3     1  UNL1        0.1770
     22  O         17.9260  -24.1280   -6.6320 O.2     1  UNL1       -0.3480
     23  C         18.2220  -23.0330   -5.8580 C.2     1  UNL1        0.1020
     24  C         18.9720  -21.9520   -6.3300 C.2     1  UNL1        0.0390
     25  C         19.2180  -20.8560   -5.5010 C.2     1  UNL1        0.0030
     26  C         18.7010  -20.8310   -4.2080 C.2     1  UNL1        0.0030
     27  C         17.9280  -21.8970   -3.7390 C.2     1  UNL1        0.0390
     28  C         17.6760  -23.0010   -4.5600 C.2     1  UNL1        0.1010
     29  O         16.9380  -24.0990   -4.1890 O.2     1  UNL1       -0.3530
     30  C         15.9800  -23.9250   -3.1540 C.3     1  UNL1        0.2100
     31  N         24.9890  -21.1520  -15.6800 N.pl3   1  UNL1       -0.3590
     32  C         25.7490  -19.9230  -15.8680 C.3     1  UNL1        0.1250
     33  C         26.3610  -20.0710  -17.2570 C.3     1  UNL1        0.0210
     34  C         25.3270  -20.8970  -17.9980 C.3     1  UNL1        0.0210
     35  C         24.8640  -21.8870  -16.9350 C.3     1  UNL1        0.1250
@<TRIPOS>BOND
     1    34    33    1
     2    34    35    1
     3    33    32    1
     4    35    31    1
     5    32    31    1
     6    31     7    1
     7     7     6   ar
     8     7     8   ar
     9     6     5   ar
    10    13     4    1
    11     8     9   ar
    12     5     9   ar
    13     5     3   ar
    14     4     3    1
    15     9    10   ar
    16     3     2   ar
    17    16    15    1
    18    16    17    2
    19    15    14    2
    20    10    11   ar
    21     2    11   ar
    22     2     1    1
    23    17    18    1
    24    14     1    1
    25    14    18    1
    26    11    12    2
    27    18    19    1
    28    19    20    1
    29    20    21    1
    30    21    22    1
    31    22    23    1
    32    24    23    2
    33    24    25    1
    34    23    28    1
    35    25    26    2
    36    28    29    1
    37    28    27    2
    38    26    27    1
    39    29    30    1
