@<TRIPOS>MOLECULE
33877_out_ligand_01.pdbqt
 33 36 0 0 0
SMALL
GASTEIGER

@<TRIPOS>ATOM
      1  C         22.9310  -22.9250  -10.2160 C.ar    1  UNL1        0.1710
      2  N         22.1590  -22.0680  -10.7950 N.ar    1  UNL1       -0.2060
      3  C         20.8190  -22.2650  -10.6410 C.ar    1  UNL1        0.1450
      4  C         20.2560  -23.2510   -9.9360 C.ar    1  UNL1        0.0700
      5  C         21.1630  -24.2370   -9.3200 C.ar    1  UNL1        0.2580
      6  O         20.7520  -25.2190   -8.7170 O.2     1  UNL1       -0.2670
      7  N         22.4880  -23.9790   -9.4840 N.ar    1  UNL1       -0.3020
      8  C         18.7780  -23.3640   -9.7440 C.3     1  UNL1        0.1290
      9  C         17.9690  -22.5840  -10.7820 C.3     1  UNL1        0.1220
     10  C         18.6660  -21.3430  -11.2970 C.2     1  UNL1        0.2240
     11  O         18.0510  -20.4090  -11.8030 O.2     1  UNL1       -0.2730
     12  N         20.0300  -21.3240  -11.2260 N.am    1  UNL1       -0.3110
     13  H         23.1530  -24.6230   -9.0820 H       1  UNL1        0.1710
     14  H         20.4970  -20.5470  -11.6810 H       1  UNL1        0.1700
     15  C         18.3890  -22.9320   -8.3210 C.2     1  UNL1        0.2310
     16  O         19.1040  -22.1440   -7.7080 O.2     1  UNL1       -0.2720
     17  N         17.2380  -23.5310   -7.8320 N.am    1  UNL1       -0.3270
     18  H         16.7650  -24.2030   -8.4210 H       1  UNL1        0.1690
     19  C         16.6300  -23.3220   -6.5750 C.2     1  UNL1        0.0340
     20  C         15.4500  -22.5640   -6.5590 C.2     1  UNL1        0.0290
     21  C         14.7830  -22.3050   -5.3590 C.2     1  UNL1        0.0020
     22  C         15.2910  -22.7990   -4.1610 C.2     1  UNL1        0.0000
     23  C         16.4630  -23.5500   -4.1660 C.2     1  UNL1        0.0020
     24  C         17.1300  -23.8120   -5.3680 C.2     1  UNL1        0.0290
     25  S         24.6610  -22.8600  -10.2880 S.3     1  UNL1       -0.0870
     26  C         24.8910  -21.4940  -11.4610 C.3     1  UNL1        0.1210
     27  C         24.8360  -21.9800  -12.8870 C.2     1  UNL1       -0.0490
     28  C         25.3610  -23.2310  -13.2360 C.2     1  UNL1        0.0080
     29  C         25.3030  -23.6840  -14.5560 C.2     1  UNL1        0.0070
     30  C         24.7200  -22.8940  -15.5520 C.2     1  UNL1       -0.0620
     31  C         24.6300  -23.4000  -16.9620 C.3     1  UNL1        0.0480
     32  C         24.1750  -21.6540  -15.2030 C.2     1  UNL1        0.0070
     33  C         24.2340  -21.2000  -13.8840 C.2     1  UNL1        0.0080
@<TRIPOS>BOND
     1    31    30    1
     2    30    32    2
     3    30    29    1
     4    32    33    1
     5    29    28    2
     6    33    27    2
     7    28    27    1
     8    27    26    1
     9    11    10    2
    10    14    12    1
    11    26    25    1
    12    10    12   am
    13    10     9    1
    14    12     3    1
    15     2     3   ar
    16     2     1   ar
    17     9     8    1
    18     3     4   ar
    19    25     1    1
    20     1     7   ar
    21     4     8    1
    22     4     5   ar
    23     8    15    1
    24     7     5   ar
    25     7    13    1
    26     5     6    2
    27    18    17    1
    28    15    17   am
    29    15    16    2
    30    17    19    1
    31    19    20    2
    32    19    24    1
    33    20    21    1
    34    24    23    2
    35    21    22    2
    36    23    22    1
