@<TRIPOS>MOLECULE
33876_out_ligand_01.pdbqt
 35 37 0 0 0
SMALL
GASTEIGER

@<TRIPOS>ATOM
      1  N         25.5670  -21.7820  -12.7250 N.am    1  UNL1       -0.3080
      2  C         26.0760  -20.5020  -12.9600 C.2     1  UNL1        0.0120
      3  C         26.4830  -19.6240  -11.8060 C.3     1  UNL1        0.0680
      4  C         26.2160  -20.0660  -14.2240 C.2     1  UNL1        0.0330
      5  C         25.8200  -20.8720  -15.3620 C.2     1  UNL1       -0.0340
      6  C         25.9760  -20.2090  -16.7040 C.3     1  UNL1        0.0500
      7  C         25.3490  -22.1220  -15.1630 C.2     1  UNL1        0.1180
      8  C         24.9340  -22.9790  -16.2210 C.1     1  UNL1        0.1050
      9  N         24.5890  -23.6500  -17.1060 N.1     1  UNL1       -0.1910
     10  C         25.2690  -22.6600  -13.7740 C.2     1  UNL1        0.2690
     11  O         24.9870  -23.8460  -13.5710 O.2     1  UNL1       -0.2660
     12  C         25.3950  -22.3050  -11.3600 C.3     1  UNL1        0.2350
     13  C         24.0330  -21.9480  -10.7500 C.2     1  UNL1        0.2400
     14  N         22.9700  -22.5990  -11.3570 N.am    1  UNL1       -0.3260
     15  H         23.2010  -23.1720  -12.1730 H       1  UNL1        0.1690
     16  O         23.9550  -21.1140   -9.8500 O.2     1  UNL1       -0.2710
     17  C         21.6080  -22.5430  -11.0090 C.2     1  UNL1        0.0340
     18  C         20.6720  -21.7180  -11.6410 C.2     1  UNL1        0.0300
     19  C         19.3360  -21.7060  -11.2210 C.2     1  UNL1        0.0190
     20  C         18.9200  -22.5220  -10.1620 C.2     1  UNL1        0.0320
     21  C         19.8570  -23.3370   -9.5160 C.2     1  UNL1        0.0190
     22  C         21.1890  -23.3530   -9.9430 C.2     1  UNL1        0.0300
     23  C         17.5180  -22.5100   -9.6620 C.2     1  UNL1        0.2510
     24  N         17.2620  -23.2900   -8.5540 N.am    1  UNL1       -0.3530
     25  H         18.0380  -23.6360   -8.0010 H       1  UNL1        0.1630
     26  O         16.6720  -21.8220  -10.2270 O.2     1  UNL1       -0.2680
     27  C         15.9510  -23.3410   -7.9510 C.3     1  UNL1        0.1610
     28  C         16.0070  -23.0820   -6.4730 C.2     1  UNL1       -0.0380
     29  C         15.0130  -23.5840   -5.6270 C.2     1  UNL1        0.0090
     30  C         15.0770  -23.3530   -4.2540 C.2     1  UNL1        0.0030
     31  C         16.1290  -22.6130   -3.7120 C.2     1  UNL1        0.0370
     32  C         17.1180  -22.0910   -4.5440 C.2     1  UNL1        0.0680
     33  C         17.0470  -22.3230   -5.9200 C.2     1  UNL1        0.0450
     34  O         18.1920  -21.3410   -4.1490 O.2     1  UNL1       -0.3560
     35  C         19.0430  -20.8540   -5.1740 C.3     1  UNL1        0.2100
@<TRIPOS>BOND
     1     9     8    3
     2     6     5    1
     3     8     7    1
     4     5     7    2
     5     5     4    1
     6     7    10    1
     7     4     2    2
     8    10    11    2
     9    10     1   am
    10     2     1    1
    11     2     3    1
    12     1    12    1
    13    15    14    1
    14    18    19    1
    15    18    17    2
    16    12    13    1
    17    14    17    1
    18    14    13   am
    19    19    20    2
    20    17    22    1
    21    13    16    2
    22    26    23    2
    23    20    23    1
    24    20    21    1
    25    22    21    2
    26    23    24   am
    27    24    25    1
    28    24    27    1
    29    27    28    1
    30    28    33    2
    31    28    29    1
    32    33    32    1
    33    29    30    2
    34    35    34    1
    35    32    34    1
    36    32    31    2
    37    30    31    1
