@<TRIPOS>MOLECULE
33915_out_ligand_01.pdbqt
 33 36 0 0 0
SMALL
GASTEIGER

@<TRIPOS>ATOM
      1  C         25.2290  -21.2930  -13.8370 C.ar    1  UNL1        0.2150
      2  N         24.0840  -21.4320  -13.2270 N.ar    1  UNL1       -0.1440
      3  N         24.2860  -22.1690  -12.0700 N.ar    1  UNL1       -0.1880
      4  C         23.2660  -22.4500  -11.1800 C.ar    1  UNL1        0.1620
      5  N         22.0510  -22.0380  -11.3900 N.pl3   1  UNL1       -0.2810
      6  C         23.6650  -23.2560   -9.9750 C.ar    1  UNL1        0.0820
      7  C         22.8460  -23.6100   -8.9640 C.3     1  UNL1        0.0320
      8  C         25.1100  -23.6990   -9.8660 C.ar    1  UNL1        0.2830
      9  O         25.4730  -24.4100   -8.9340 O.2     1  UNL1       -0.2650
     10  N         25.9990  -23.2850  -10.8370 N.ar    1  UNL1       -0.1820
     11  C         25.5660  -22.5900  -11.8220 C.ar    1  UNL1        0.2020
     12  S         26.6380  -22.0400  -13.0830 S.2     1  UNL1       -0.0170
     13  H         22.0530  -21.5100  -12.2730 H       1  UNL1        0.1880
     14  C         21.4250  -23.2920   -8.8120 C.2     1  UNL1       -0.0340
     15  C         20.5110  -23.7290   -9.7740 C.2     1  UNL1        0.0140
     16  C         19.1490  -23.4270   -9.6490 C.2     1  UNL1        0.0390
     17  C         18.6820  -22.6820   -8.5640 C.2     1  UNL1        0.0860
     18  C         19.6080  -22.2430   -7.6060 C.2     1  UNL1        0.0450
     19 BR         19.0630  -21.2270   -6.0970 Br      1  UNL1       -0.0480
     20  C         20.9700  -22.5400   -7.7290 C.2     1  UNL1        0.0330
     21  O         17.3690  -22.3430   -8.3610 O.2     1  UNL1       -0.3450
     22  C         16.4790  -23.3690   -7.9220 C.3     1  UNL1        0.2170
     23  C         16.1020  -23.1810   -6.4720 C.2     1  UNL1        0.0040
     24  C         15.0380  -22.3690   -6.0550 C.2     1  UNL1        0.0120
     25  C         14.7170  -22.2590   -4.6970 C.2     1  UNL1        0.0010
     26  C         15.4510  -22.9600   -3.7430 C.2     1  UNL1        0.0030
     27  C         16.5100  -23.7720   -4.1440 C.2     1  UNL1        0.0430
     28  C         16.8230  -23.8780   -5.4970 C.2     1  UNL1        0.1240
     29  F         17.8460  -24.6650   -5.8670 F       1  UNL1       -0.2050
     30  S         25.3300  -20.3670  -15.3380 S.O2    1  UNL1        0.1970
     31  C         26.7370  -21.0450  -16.1740 C.3     1  UNL1        0.1690
     32  O         24.1420  -20.7010  -16.0980 O.2     1  UNL1       -0.2210
     33  O         25.6470  -19.0000  -14.9650 O.2     1  UNL1       -0.2210
@<TRIPOS>BOND
     1    31    30    1
     2    32    30    2
     3    30    33    2
     4    30     1    1
     5     1     2   ar
     6     1    12   ar
     7     2     3   ar
     8    12    11   ar
     9    13     5    1
    10     3    11   ar
    11     3     4   ar
    12    11    10   ar
    13     5     4    1
    14     4     6   ar
    15    10     8   ar
    16     6     8   ar
    17     6     7    1
    18     8     9    2
    19    15    16    1
    20    15    14    2
    21    16    17    2
    22     7    14    1
    23    14    20    1
    24    17    21    1
    25    17    18    1
    26    21    22    1
    27    22    23    1
    28    20    18    2
    29    18    19    1
    30    23    24    2
    31    23    28    1
    32    24    25    1
    33    29    28    1
    34    28    27    2
    35    25    26    2
    36    27    26    1
