@<TRIPOS>MOLECULE
33918_out_ligand_01.pdbqt
 35 39 0 0 0
SMALL
GASTEIGER

@<TRIPOS>ATOM
      1  C         19.2150  -22.9260   -9.9900 C.2     1  UNL1       -0.0040
      2  C         19.3160  -21.7820  -10.9900 C.2     1  UNL1        0.0580
      3  C         18.0580  -21.0350  -11.3850 C.3     1  UNL1        0.0720
      4  N         20.4140  -21.3720  -11.5540 N.2     1  UNL1       -0.0650
      5  C         21.5610  -22.0110  -11.2120 C.cat   1  UNL1        0.7520
      6  N         22.7910  -21.7710  -11.6060 N.2     1  UNL1       -0.0330
      7  C         23.5210  -22.7080  -10.9550 C.2     1  UNL1        0.2270
      8  N         22.8290  -23.5700  -10.2120 N.pl3   1  UNL1       -0.1240
      9  N         21.5640  -23.0940  -10.3320 N.pl3   1  UNL1       -0.0610
     10  C         20.3880  -23.5550   -9.7200 C.3     1  UNL1        0.0590
     11  C         20.5660  -24.7150   -8.7780 C.3     1  UNL1        0.0720
     12  S         25.2480  -22.8210  -11.0950 S.3     1  UNL1       -0.0790
     13  C         25.6860  -21.0810  -10.8800 C.3     1  UNL1        0.1850
     14  C         26.2770  -20.5090  -12.1550 C.2     1  UNL1        0.2270
     15  O         27.1110  -19.6080  -12.1380 O.2     1  UNL1       -0.2730
     16  N         25.8180  -21.0960  -13.3130 N.am    1  UNL1       -0.3520
     17  H         25.1670  -21.8670  -13.2660 H       1  UNL1        0.1630
     18  C         26.2280  -20.6450  -14.6330 C.3     1  UNL1        0.1180
     19  C         25.8620  -19.1590  -14.7890 C.3     1  UNL1        0.0300
     20  C         26.1520  -18.5810  -16.1780 C.3     1  UNL1        0.0070
     21  C         26.4240  -19.6150  -17.2710 C.3     1  UNL1        0.0390
     22  C         25.6620  -20.8980  -17.0620 C.2     1  UNL1       -0.0500
     23  C         25.1290  -21.6000  -18.1510 C.2     1  UNL1        0.0070
     24  C         25.5780  -21.4330  -15.7600 C.2     1  UNL1       -0.0290
     25  C         24.4940  -22.8240  -17.9500 C.2     1  UNL1        0.0010
     26  C         24.4070  -23.3580  -16.6660 C.2     1  UNL1        0.0010
     27  C         24.9520  -22.6740  -15.5780 C.2     1  UNL1        0.0100
     28  C         17.8640  -23.2870   -9.4210 C.3     1  UNL1        0.0810
     29  C         17.7880  -23.2310   -7.9100 C.2     1  UNL1       -0.0540
     30  C         17.1960  -24.2840   -7.1970 C.2     1  UNL1        0.0080
     31  C         17.1350  -24.2580   -5.8010 C.2     1  UNL1        0.0070
     32  C         17.6690  -23.1780   -5.0900 C.2     1  UNL1       -0.0620
     33  C         17.6340  -23.1560   -3.5900 C.3     1  UNL1        0.0480
     34  C         18.2830  -22.1380   -5.7940 C.2     1  UNL1        0.0070
     35  C         18.3460  -22.1650   -7.1890 C.2     1  UNL1        0.0080
@<TRIPOS>BOND
     1    23    25    1
     2    23    22    2
     3    25    26    2
     4    21    22    1
     5    21    20    1
     6    22    24    1
     7    26    27    1
     8    20    19    1
     9    24    27    2
    10    24    18    1
    11    19    18    1
    12    18    16    1
    13    16    17    1
    14    16    14   am
    15    14    15    2
    16    14    13    1
    17     6     5    1
    18     6     7    2
    19     4     5    2
    20     4     2    1
    21     3     2    1
    22     5     9    1
    23    12     7    1
    24    12    13    1
    25     2     1    2
    26     7     8    1
    27     9     8    1
    28     9    10    1
    29     1    10    1
    30     1    28    1
    31    10    11    1
    32    28    29    1
    33    29    30    2
    34    29    35    1
    35    30    31    1
    36    35    34    2
    37    31    32    2
    38    34    32    1
    39    32    33    1
