@<TRIPOS>MOLECULE
33914_out_ligand_01.pdbqt
 33 37 0 0 0
SMALL
GASTEIGER

@<TRIPOS>ATOM
      1  N         22.9030  -22.5720   -9.2550 N.pl3   1  UNL1       -0.3400
      2  H         23.6870  -22.9880   -8.7450 H       1  UNL1        0.1670
      3  C         21.6910  -23.0460   -8.6900 C.2     1  UNL1        0.0330
      4  C         21.1890  -24.3370   -8.8970 C.2     1  UNL1        0.0300
      5  C         19.9660  -24.7280   -8.3420 C.2     1  UNL1        0.0190
      6  C         19.2220  -23.8330   -7.5670 C.2     1  UNL1        0.0320
      7  C         19.6980  -22.5320   -7.3760 C.2     1  UNL1        0.0190
      8  C         20.9200  -22.1460   -7.9360 C.2     1  UNL1        0.0300
      9  C         17.9270  -24.2920   -6.9910 C.2     1  UNL1        0.2510
     10  O         17.9090  -25.1780   -6.1460 O.2     1  UNL1       -0.2680
     11  N         16.7960  -23.6450   -7.4400 N.am    1  UNL1       -0.3540
     12  H         16.9040  -22.7350   -7.8790 H       1  UNL1        0.1620
     13  C         15.5150  -23.8590   -6.7910 C.3     1  UNL1        0.1550
     14  C         15.3850  -22.9880   -5.5420 C.3     1  UNL1        0.1390
     15  C         15.2890  -23.7890   -4.2570 C.3     1  UNL1        0.0350
     16  C         15.8090  -22.8020   -3.2420 C.3     1  UNL1        0.0290
     17  C         16.9080  -22.0960   -4.0100 C.3     1  UNL1        0.1680
     18  O         16.5510  -22.1440   -5.4000 O.3     1  UNL1       -0.3840
     19  C         23.1170  -22.3580  -10.5850 C.ar    1  UNL1        0.1440
     20  C         22.2570  -22.0260  -11.6280 C.ar    1  UNL1        0.1140
     21  N         22.9110  -22.0340  -12.8450 N.ar    1  UNL1       -0.2250
     22  C         24.1460  -22.3640  -12.5450 C.ar    1  UNL1        0.1530
     23  C         25.2630  -22.5370  -13.4340 C.2     1  UNL1        0.1670
     24  N         24.3320  -22.5930  -11.2050 N.ar    1  UNL1       -0.2880
     25  N         26.4360  -22.9220  -13.0030 N.2     1  UNL1       -0.2680
     26  C         26.5660  -23.1680  -11.6440 C.2     1  UNL1        0.1340
     27  C         25.5700  -23.0220  -10.7500 C.2     1  UNL1        0.1190
     28  C         20.8410  -21.7200  -11.5100 C.2     1  UNL1       -0.0040
     29  C         20.3670  -20.4030  -11.5870 C.2     1  UNL1        0.0140
     30  C         19.0010  -20.1340  -11.4620 C.2     1  UNL1        0.0010
     31  C         18.0990  -21.1810  -11.2650 C.2     1  UNL1        0.0000
     32  C         18.5600  -22.4950  -11.2050 C.2     1  UNL1        0.0010
     33  C         19.9250  -22.7630  -11.3310 C.2     1  UNL1        0.0140
@<TRIPOS>BOND
     1    23    25    2
     2    23    22    1
     3    25    26    1
     4    21    22   ar
     5    21    20   ar
     6    22    24   ar
     7    26    27    2
     8    20    28    1
     9    20    19   ar
    10    29    28    2
    11    29    30    1
    12    28    33    1
    13    30    31    2
    14    33    32    2
    15    31    32    1
    16    24    27    1
    17    24    19   ar
    18    19     1    1
    19     1     2    1
    20     1     3    1
    21     4     3    2
    22     4     5    1
    23     3     8    1
    24     5     6    2
    25     8     7    2
    26    12    11    1
    27     6     7    1
    28     6     9    1
    29    11     9   am
    30    11    13    1
    31     9    10    2
    32    13    14    1
    33    14    18    1
    34    14    15    1
    35    18    17    1
    36    15    16    1
    37    17    16    1
