@<TRIPOS>MOLECULE
3392_out_ligand_01.pdbqt
 30 33 0 0 0
SMALL
GASTEIGER

@<TRIPOS>ATOM
      1  N         15.7230  -23.2000   -8.5730 N.pl3   1  UNL1       -0.2770
      2  C         15.6750  -22.5600   -7.3690 C.2     1  UNL1        0.1390
      3  C         15.5700  -23.5830   -6.4510 C.2     1  UNL1        0.1020
      4  N         15.5820  -24.7840   -7.1200 N.2     1  UNL1       -0.1610
      5  N         15.6770  -24.5370   -8.4180 N.2     1  UNL1        0.0050
      6  C         15.8580  -22.6180   -9.8940 C.3     1  UNL1        0.2050
      7  C         17.3060  -22.3990  -10.2670 C.2     1  UNL1        0.0610
      8  N         18.2140  -23.2510   -9.6850 N.2     1  UNL1       -0.2330
      9  C         19.4690  -23.0960   -9.9870 C.2     1  UNL1        0.1370
     10  C         20.4700  -24.0000   -9.3580 C.2     1  UNL1        0.0510
     11  N         19.9530  -22.1380  -10.8670 N.am    1  UNL1       -0.2730
     12  C         21.7690  -23.8650   -9.6480 C.2     1  UNL1        0.0120
     13  C         22.2200  -22.8480  -10.5720 C.2     1  UNL1       -0.0460
     14  C         23.6890  -22.7590  -10.8480 C.3     1  UNL1        0.0490
     15  C         21.3140  -22.0360  -11.1400 C.2     1  UNL1        0.1080
     16  C         19.0710  -21.2740  -11.4950 C.2     1  UNL1        0.2550
     17  C         17.6510  -21.4470  -11.1430 C.2     1  UNL1        0.1040
     18  O         19.3740  -20.4020  -12.3090 O.2     1  UNL1       -0.2680
     19  C         15.4720  -23.5230   -4.9580 C.3     1  UNL1        0.2760
     20  N         14.8250  -22.2460   -4.6040 N.3     1  UNL1        0.0890
     21  H         14.8180  -21.6480   -5.4280 H       1  UNL1        0.3130
     22  H         15.4310  -21.7680   -3.9330 H       1  UNL1        0.3130
     23  C         16.8620  -23.6700   -4.2990 C.3     1  UNL1        0.0800
     24  C         17.8320  -22.5740   -4.6810 C.2     1  UNL1       -0.0530
     25  C         17.9780  -21.4380   -3.8690 C.2     1  UNL1        0.0070
     26  C         18.8700  -20.4210   -4.2200 C.2     1  UNL1        0.0030
     27  C         19.6210  -20.5270   -5.3890 C.2     1  UNL1        0.0420
     28  C         19.4730  -21.6480   -6.1970 C.2     1  UNL1        0.1160
     29  F         20.1930  -21.7480   -7.3230 F       1  UNL1       -0.2060
     30  C         18.5900  -22.6680   -5.8560 C.2     1  UNL1        0.0490
@<TRIPOS>BOND
     1    18    16    2
     2    16    17    1
     3    16    11   am
     4    17     7    2
     5    15    11    1
     6    15    13    2
     7    11     9    1
     8    14    13    1
     9    13    12    1
    10     7     6    1
    11     7     8    1
    12     9     8    2
    13     9    10    1
    14     6     1    1
    15    12    10    2
    16     1     5    1
    17     1     2    1
    18     5     4    2
    19     2     3    2
    20    29    28    1
    21     4     3    1
    22     3    19    1
    23    28    30    1
    24    28    27    2
    25    30    24    2
    26    21    20    1
    27    27    26    1
    28    19    20    1
    29    19    23    1
    30    24    23    1
    31    24    25    1
    32    20    22    1
    33    26    25    2
