@<TRIPOS>MOLECULE
3393_out_ligand_01.pdbqt
 26 29 0 0 0
SMALL
GASTEIGER

@<TRIPOS>ATOM
      1  C         20.1690  -22.6120   -7.9900 C.2     1  UNL1        0.2560
      2  O         21.1660  -22.2070   -7.4070 O.2     1  UNL1       -0.2670
      3  N         20.0260  -22.8470   -9.3440 N.am    1  UNL1       -0.3230
      4  H         19.1920  -23.3460   -9.6240 H       1  UNL1        0.1690
      5  C         20.9530  -22.5580  -10.3660 C.2     1  UNL1        0.0350
      6  C         20.4910  -21.7920  -11.4430 C.2     1  UNL1        0.0290
      7  C         21.3440  -21.4580  -12.4940 C.2     1  UNL1        0.0030
      8  C         22.6720  -21.8840  -12.4780 C.2     1  UNL1        0.0150
      9  C         23.1590  -22.6460  -11.4070 C.2     1  UNL1        0.0140
     10  C         22.2880  -22.9720  -10.3520 C.2     1  UNL1        0.0440
     11  C         24.5500  -23.0930  -11.3590 C.2     1  UNL1        0.1610
     12  N         25.3560  -23.3180  -12.3810 N.2     1  UNL1       -0.1300
     13  N         26.5800  -23.7200  -11.8970 N.2     1  UNL1       -0.1430
     14  C         26.5080  -23.7140  -10.5890 C.2     1  UNL1        0.2330
     15  N         25.2600  -23.3300  -10.2080 N.pl3   1  UNL1       -0.3320
     16  H         24.9280  -23.2100   -9.2640 H       1  UNL1        0.1680
     17  C         18.9770  -22.9720   -7.1820 C.2     1  UNL1        0.0390
     18  C         18.2390  -24.1020   -7.5530 C.2     1  UNL1        0.0180
     19  C         17.0890  -24.4700   -6.8370 C.2     1  UNL1        0.0080
     20  C         16.6560  -23.7250   -5.7320 C.2     1  UNL1       -0.0550
     21  C         15.4360  -24.1370   -4.9640 C.3     1  UNL1        0.0490
     22  C         17.4280  -22.6320   -5.3450 C.2     1  UNL1       -0.0450
     23  C         18.5750  -22.2530   -6.0610 C.2     1  UNL1       -0.0360
     24  C         17.1960  -21.7010   -4.1910 C.3     1  UNL1        0.0400
     25  C         19.2120  -21.0500   -5.4290 C.3     1  UNL1        0.0400
     26  C         18.5830  -21.0700   -4.0310 C.3     1  UNL1        0.0090
@<TRIPOS>BOND
     1     7     8    2
     2     7     6    1
     3     8     9    1
     4    12    13    1
     5    12    11    2
     6    13    14    2
     7     6     5    2
     8     9    11    1
     9     9    10    2
    10    11    15    1
    11    14    15    1
    12     5    10    1
    13     5     3    1
    14    15    16    1
    15     4     3    1
    16     3     1   am
    17     1     2    2
    18     1    17    1
    19    18    17    2
    20    18    19    1
    21    17    23    1
    22    19    20    2
    23    23    25    1
    24    23    22    2
    25    20    22    1
    26    20    21    1
    27    25    26    1
    28    22    24    1
    29    24    26    1
