@<TRIPOS>MOLECULE
33939_out_ligand_01.pdbqt
 35 38 0 0 0
SMALL
GASTEIGER

@<TRIPOS>ATOM
      1  C         23.1890  -21.9630  -11.4010 C.2     1  UNL1        0.0370
      2  C         23.8080  -22.1790  -10.1620 C.2     1  UNL1        0.0290
      3  C         23.0470  -22.3240   -9.0000 C.2     1  UNL1        0.0030
      4  C         21.6570  -22.2610   -9.0650 C.2     1  UNL1        0.0170
      5  C         21.0300  -22.0540  -10.3000 C.2     1  UNL1        0.0340
      6  C         21.7950  -21.9160  -11.4660 C.2     1  UNL1        0.0460
      7  N         24.0280  -21.8460  -12.5280 N.am    1  UNL1       -0.3090
      8  C         24.7550  -22.8460  -13.1400 C.2     1  UNL1        0.3270
      9  N         25.6120  -22.4070  -14.1590 N.am    1  UNL1       -0.2960
     10  O         24.6160  -24.0430  -12.8950 O.2     1  UNL1       -0.2460
     11  C         25.9200  -23.3500  -15.2350 C.3     1  UNL1        0.1440
     12  C         25.9950  -21.0510  -14.4020 C.2     1  UNL1        0.0800
     13  C         25.0510  -23.0640  -16.4460 C.3     1  UNL1        0.1010
     14  S         25.4240  -21.4300  -17.1550 S.3     1  UNL1       -0.1060
     15  C         25.9330  -20.5140  -15.7030 C.2     1  UNL1        0.1210
     16  N         26.2340  -19.2210  -15.9820 N.2     1  UNL1       -0.2440
     17  C         26.6390  -18.4220  -14.9750 C.2     1  UNL1        0.0320
     18  C         26.9710  -17.0000  -15.3160 C.3     1  UNL1        0.0700
     19  C         26.7840  -18.8840  -13.6740 C.2     1  UNL1        0.0350
     20  C         26.4910  -20.2210  -13.3750 C.2     1  UNL1       -0.0300
     21  C         26.7930  -20.6940  -11.9760 C.3     1  UNL1        0.0500
     22  H         23.9650  -20.9810  -13.0440 H       1  UNL1        0.1700
     23  C         19.5490  -22.0130  -10.4110 C.2     1  UNL1        0.2510
     24  O         18.9950  -21.0620  -10.9470 O.2     1  UNL1       -0.2680
     25  N         18.8790  -23.0820   -9.8540 N.am    1  UNL1       -0.3570
     26  H         19.3850  -23.7300   -9.2680 H       1  UNL1        0.1620
     27  C         17.4320  -23.1280   -9.8020 C.3     1  UNL1        0.1230
     28  C         16.8870  -23.4460   -8.4080 C.3     1  UNL1        0.0240
     29  C         17.9470  -23.8900   -7.3940 C.3     1  UNL1        0.0400
     30  C         18.1960  -22.9020   -6.2790 C.2     1  UNL1       -0.0580
     31  C         19.0530  -21.8090   -6.4690 C.2     1  UNL1        0.0070
     32  C         19.2740  -20.8950   -5.4370 C.2     1  UNL1        0.0010
     33  C         18.6470  -21.0670   -4.2050 C.2     1  UNL1        0.0000
     34  C         17.8020  -22.1550   -4.0000 C.2     1  UNL1        0.0010
     35  C         17.5790  -23.0710   -5.0310 C.2     1  UNL1        0.0070
@<TRIPOS>BOND
     1    14    13    1
     2    14    15    1
     3    13    11    1
     4    16    15    1
     5    16    17    2
     6    15    12    2
     7    18    17    1
     8    11     9    1
     9    17    19    1
    10    12     9    1
    11    12    20    1
    12     9     8   am
    13    19    20    2
    14    20    21    1
    15     8    10    2
    16     8     7   am
    17    22     7    1
    18     7     1    1
    19     6     1    2
    20     6     5    1
    21     1     2    1
    22    24    23    2
    23    23     5    1
    24    23    25   am
    25     5     4    2
    26     2     3    2
    27    25    27    1
    28    25    26    1
    29    27    28    1
    30     4     3    1
    31    28    29    1
    32    29    30    1
    33    31    30    2
    34    31    32    1
    35    30    35    1
    36    32    33    2
    37    35    34    2
    38    33    34    1
