@<TRIPOS>MOLECULE
33950_out_ligand_01.pdbqt
 30 33 0 0 0
SMALL
GASTEIGER

@<TRIPOS>ATOM
      1  C         22.3430  -23.8020   -9.3750 C.3     1  UNL1        0.1580
      2  N         22.0650  -22.9090  -10.4810 N.pl3   1  UNL1       -0.3310
      3  C         20.8870  -22.1840  -10.6590 C.2     1  UNL1        0.1050
      4  C         21.0530  -21.4670  -11.8430 C.2     1  UNL1        0.0560
      5  C         22.3240  -21.7780  -12.3720 C.2     1  UNL1        0.0810
      6  C         23.0300  -21.3450  -13.5550 C.2     1  UNL1        0.2670
      7  O         22.5240  -20.5530  -14.3490 O.2     1  UNL1       -0.2670
      8  N         24.3100  -21.9180  -13.6830 N.am    1  UNL1       -0.2730
      9  C         25.0850  -21.5720  -14.7860 C.3     1  UNL1        0.1020
     10  C         26.3110  -22.0750  -14.9800 C.2     1  UNL1        0.0180
     11  C         26.8660  -23.0030  -14.0330 C.2     1  UNL1        0.0050
     12  C         26.1670  -23.3730  -12.9540 C.2     1  UNL1        0.0510
     13  C         24.7990  -22.8240  -12.7180 C.2     1  UNL1        0.1390
     14  N         24.1550  -23.2130  -11.6510 N.pl3   1  UNL1       -0.2120
     15  C         22.9270  -22.6640  -11.5200 C.2     1  UNL1        0.1480
     16  C         19.7570  -22.2080   -9.7290 C.2     1  UNL1        0.2730
     17  O         18.6140  -21.9620  -10.0970 O.2     1  UNL1       -0.2660
     18  N         20.1130  -22.5090   -8.4260 N.am    1  UNL1       -0.3220
     19  H         21.1000  -22.6120   -8.2450 H       1  UNL1        0.1690
     20  C         19.2710  -22.6340   -7.3010 C.2     1  UNL1        0.0350
     21  C         19.1200  -21.6550   -6.3170 C.2     1  UNL1        0.0300
     22  C         18.2570  -21.8630   -5.2340 C.2     1  UNL1        0.0190
     23  C         17.5230  -23.0470   -5.1270 C.2     1  UNL1        0.0320
     24  C         17.6750  -24.0370   -6.1030 C.2     1  UNL1        0.0190
     25  C         18.5420  -23.8260   -7.1830 C.2     1  UNL1        0.0300
     26  C         16.6200  -23.2200   -3.9580 C.2     1  UNL1        0.2490
     27  N         16.1750  -22.0870   -3.3330 N.am    1  UNL1       -0.3660
     28  H         15.6790  -22.2390   -2.4640 H       1  UNL1        0.1590
     29  H         16.6410  -21.1990   -3.4460 H       1  UNL1        0.1590
     30  O         16.3080  -24.3270   -3.5410 O.2     1  UNL1       -0.2680
@<TRIPOS>BOND
     1    10     9    1
     2    10    11    2
     3     9     8    1
     4     7     6    2
     5    11    12    1
     6     8     6   am
     7     8    13    1
     8     6     5    1
     9    12    13    2
    10    13    14    1
    11     5     4    1
    12     5    15    2
    13     4     3    2
    14    14    15    1
    15    15     2    1
    16     3     2    1
    17     3    16    1
    18     2     1    1
    19    17    16    2
    20    16    18   am
    21    18    19    1
    22    18    20    1
    23    20    25    2
    24    20    21    1
    25    25    24    1
    26    21    22    2
    27    24    23    2
    28    22    23    1
    29    23    26    1
    30    26    30    2
    31    26    27   am
    32    29    27    1
    33    27    28    1
