@<TRIPOS>MOLECULE
33960_out_ligand_01.pdbqt
 42 46 0 0 0
SMALL
GASTEIGER

@<TRIPOS>ATOM
      1  C         17.2730  -22.2340  -10.1530 C.2     1  UNL1        0.0320
      2  C         17.4210  -20.9130  -10.5890 C.2     1  UNL1        0.0180
      3  C         18.4890  -20.5600  -11.4170 C.2     1  UNL1        0.0120
      4  C         19.4340  -21.5190  -11.8030 C.2     1  UNL1       -0.0330
      5  C         19.2850  -22.8390  -11.3600 C.2     1  UNL1        0.0120
      6  C         18.2140  -23.1960  -10.5330 C.2     1  UNL1        0.0180
      7  C         20.5310  -21.1190  -12.6930 C.2     1  UNL1        0.0540
      8  C         21.8230  -21.4620  -12.5330 C.2     1  UNL1        0.1450
      9  O         22.2210  -22.2460  -11.4670 O.2     1  UNL1       -0.3030
     10  C         22.8070  -20.9440  -13.5390 C.2     1  UNL1        0.2820
     11  C         23.5520  -22.5180  -11.3200 C.2     1  UNL1        0.1030
     12  C         23.8850  -23.2980  -10.2070 C.2     1  UNL1        0.0390
     13  C         24.5310  -22.0570  -12.2040 C.2     1  UNL1        0.0710
     14  C         25.2130  -23.6280   -9.9590 C.2     1  UNL1        0.0030
     15  C         26.2030  -23.1760  -10.8240 C.2     1  UNL1        0.0020
     16  C         25.8660  -22.3970  -11.9380 C.2     1  UNL1        0.0330
     17  N         24.1410  -21.2680  -13.3220 N.am    1  UNL1       -0.3050
     18  O         22.4260  -20.2790  -14.5040 O.2     1  UNL1       -0.2650
     19  C         25.1280  -20.7780  -14.2870 C.3     1  UNL1        0.1740
     20  C         25.0690  -21.4710  -15.6280 C.2     1  UNL1       -0.0010
     21  C         24.7440  -22.8310  -15.7390 C.2     1  UNL1        0.0120
     22  C         24.6670  -23.4440  -16.9940 C.2     1  UNL1        0.0010
     23  C         24.9000  -22.7040  -18.1530 C.2     1  UNL1        0.0030
     24  C         25.2070  -21.3490  -18.0580 C.2     1  UNL1        0.0430
     25  C         25.2840  -20.7460  -16.8050 C.2     1  UNL1        0.1240
     26  F         25.5770  -19.4390  -16.7410 F       1  UNL1       -0.2050
     27  C         16.1160  -22.5620   -9.2740 C.2     1  UNL1        0.2510
     28  N         16.2130  -22.1440   -7.9640 N.am    1  UNL1       -0.3570
     29  H         17.0900  -21.7740   -7.6290 H       1  UNL1        0.1620
     30  O         15.1680  -23.1900   -9.7300 O.2     1  UNL1       -0.2680
     31  C         15.2010  -22.4550   -6.9660 C.3     1  UNL1        0.1240
     32  C         15.7920  -23.1510   -5.7400 C.3     1  UNL1        0.0500
     33  C         16.4140  -22.1900   -4.7200 C.3     1  UNL1        0.2740
     34  N         17.8840  -22.2770   -4.6100 N.3     1  UNL1        0.0880
     35  C         18.2950  -21.8830   -3.2580 C.3     1  UNL1        0.3100
     36  C         18.5930  -21.4460   -5.6010 C.3     1  UNL1        0.3100
     37  C         19.3920  -22.2400   -6.6130 C.2     1  UNL1       -0.0300
     38  C         18.9700  -23.5200   -7.0080 C.2     1  UNL1        0.0090
     39  C         19.7160  -24.2630   -7.9230 C.2     1  UNL1        0.0010
     40  C         20.8970  -23.7400   -8.4460 C.2     1  UNL1        0.0000
     41  C         21.3340  -22.4760   -8.0530 C.2     1  UNL1        0.0010
     42  C         20.5880  -21.7300   -7.1380 C.2     1  UNL1        0.0090
@<TRIPOS>BOND
     1    23    24    2
     2    23    22    1
     3    24    25    1
     4    22    21    2
     5    25    26    1
     6    25    20    2
     7    21    20    1
     8    20    19    1
     9    18    10    2
    10    19    17    1
    11    10    17   am
    12    10     8    1
    13    17    13    1
    14     7     8    2
    15     7     4    1
    16     8     9    1
    17    13    16    1
    18    13    11    2
    19    16    15    2
    20     4     3    2
    21     4     5    1
    22     9    11    1
    23     3     2    1
    24     5     6    2
    25    11    12    1
    26    15    14    1
    27     2     1    2
    28     6     1    1
    29    12    14    2
    30     1    27    1
    31    30    27    2
    32    27    28   am
    33    40    41    2
    34    40    39    1
    35    41    42    1
    36    28    29    1
    37    28    31    1
    38    39    38    2
    39    42    37    2
    40    38    37    1
    41    31    32    1
    42    37    36    1
    43    32    33    1
    44    36    34    1
    45    33    34    1
    46    34    35    1
