@<TRIPOS>MOLECULE
33973_out_ligand_01.pdbqt
 30 33 0 0 0
SMALL
GASTEIGER

@<TRIPOS>ATOM
      1  C         19.0820  -21.6780  -11.1350 C.2     1  UNL1        0.2230
      2  N         18.3030  -22.5010  -10.4590 N.2     1  UNL1       -0.2030
      3  C         17.0830  -21.8720  -10.5170 C.2     1  UNL1        0.1580
      4  N         17.0770  -20.7170  -11.1920 N.4     1  UNL1       -0.1110
      5  O         18.4050  -20.5850  -11.6040 O.2     1  UNL1       -0.1890
      6  C         20.4730  -21.9270  -11.3460 C.ar    1  UNL1        0.0960
      7  C         21.4170  -22.6100  -10.5940 C.ar    1  UNL1       -0.0150
      8  C         22.6550  -22.5390  -11.3180 C.ar    1  UNL1       -0.0000
      9  C         23.9570  -23.0340  -11.0900 C.2     1  UNL1        0.0210
     10  C         22.4220  -21.8050  -12.4810 C.ar    1  UNL1        0.0430
     11  C         24.9830  -22.7710  -12.0120 C.2     1  UNL1       -0.0610
     12  C         24.7010  -22.0400  -13.1710 C.2     1  UNL1        0.0090
     13  C         26.3600  -23.3240  -11.7860 C.3     1  UNL1        0.0480
     14  C         23.4200  -21.5400  -13.4240 C.2     1  UNL1        0.0310
     15  N         21.0980  -21.4510  -12.4710 N.ar    1  UNL1       -0.3510
     16  H         20.6330  -20.9160  -13.1920 H       1  UNL1        0.1660
     17  C         21.2140  -23.2990   -9.2790 C.3     1  UNL1        0.0370
     18  C         21.4750  -22.3780   -8.0970 C.3     1  UNL1        0.0100
     19  C         15.8690  -22.4390   -9.8830 C.3     1  UNL1        0.1030
     20  C         16.1880  -23.5820   -8.9140 C.3     1  UNL1        0.1330
     21  N         16.3790  -23.1460   -7.5280 N.am    1  UNL1       -0.3520
     22  C         15.3570  -22.2890   -6.9400 C.3     1  UNL1        0.1520
     23  C         17.6110  -23.4200   -6.9320 C.2     1  UNL1        0.2530
     24  O         18.4570  -24.1570   -7.4340 O.2     1  UNL1       -0.2670
     25  C         17.9310  -22.7860   -5.6390 C.2     1  UNL1        0.0320
     26  C         18.5570  -21.5380   -5.6310 C.2     1  UNL1        0.0170
     27  C         18.8480  -20.9220   -4.4140 C.2     1  UNL1        0.0010
     28  C         18.4990  -21.5470   -3.2140 C.2     1  UNL1        0.0000
     29  C         17.8540  -22.7860   -3.2270 C.2     1  UNL1        0.0010
     30  C         17.5630  -23.4070   -4.4410 C.2     1  UNL1        0.0170
@<TRIPOS>BOND
     1    14    12    2
     2    14    10    1
     3    16    15    1
     4    12    11    1
     5    10    15   ar
     6    10     8   ar
     7    15     6   ar
     8    11    13    1
     9    11     9    2
    10     5     4    1
    11     5     1    1
    12     6     1    1
    13     6     7   ar
    14     8     9    1
    15     8     7   ar
    16     4     3    1
    17     1     2    2
    18     7    17    1
    19     3     2    2
    20     3    19    1
    21    19    20    1
    22    17    18    1
    23    20    21    1
    24    21    22    1
    25    21    23   am
    26    24    23    2
    27    23    25    1
    28    25    26    2
    29    25    30    1
    30    26    27    1
    31    30    29    2
    32    27    28    2
    33    29    28    1
