@<TRIPOS>MOLECULE
33986_out_ligand_01.pdbqt
 38 42 0 0 0
SMALL
GASTEIGER

@<TRIPOS>ATOM
      1  C         21.2520  -21.6130  -12.5500 C.2     1  UNL1        0.0360
      2  C         22.5470  -21.5530  -12.1840 C.2     1  UNL1        0.0740
      3  S         23.1040  -21.7810  -10.5790 S.3     1  UNL1       -0.0830
      4  C         24.6150  -22.6400  -10.9250 C.2     1  UNL1        0.0320
      5  C         25.1210  -23.4510   -9.8930 C.2     1  UNL1        0.0210
      6  C         26.3270  -24.1300  -10.0420 C.2     1  UNL1        0.0020
      7  C         27.0380  -23.9970  -11.2240 C.2     1  UNL1        0.0020
      8  C         26.5420  -23.1880  -12.2530 C.2     1  UNL1        0.0310
      9  C         25.3220  -22.4950  -12.1300 C.2     1  UNL1        0.0550
     10  N         24.8290  -21.6560  -13.1890 N.am    1  UNL1       -0.3080
     11  C         23.5300  -21.1460  -13.2380 C.2     1  UNL1        0.2650
     12  O         23.1490  -20.4000  -14.1450 O.2     1  UNL1       -0.2670
     13  C         20.1160  -21.9410  -11.6820 C.2     1  UNL1       -0.0350
     14  C         20.2590  -22.9220  -10.6960 C.2     1  UNL1        0.0120
     15  C         19.1860  -23.2430   -9.8610 C.2     1  UNL1        0.0180
     16  C         17.9620  -22.5760   -9.9970 C.2     1  UNL1        0.0320
     17  C         17.8140  -21.6000  -10.9910 C.2     1  UNL1        0.0180
     18  C         18.8890  -21.2800  -11.8250 C.2     1  UNL1        0.0120
     19  C         16.8430  -22.9530   -9.0880 C.2     1  UNL1        0.2510
     20  O         15.7140  -22.5200   -9.2880 O.2     1  UNL1       -0.2680
     21  N         17.1560  -23.8260   -8.0650 N.am    1  UNL1       -0.3570
     22  H         18.0040  -24.3710   -8.1550 H       1  UNL1        0.1620
     23  C         16.1160  -24.3470   -7.1970 C.3     1  UNL1        0.1270
     24  C         15.6530  -23.3380   -6.1390 C.3     1  UNL1        0.0530
     25  C         16.7660  -22.7870   -5.2720 C.2     1  UNL1       -0.0820
     26  C         17.6000  -21.8330   -5.7300 C.2     1  UNL1       -0.0240
     27  C         18.6790  -21.1930   -4.9050 C.3     1  UNL1        0.0270
     28  C         18.5290  -21.4670   -3.4090 C.3     1  UNL1        0.0040
     29  C         18.1750  -22.9250   -3.1530 C.3     1  UNL1        0.0050
     30  C         16.8710  -23.3120   -3.8580 C.3     1  UNL1        0.0340
     31  C         25.7180  -21.2770  -14.2980 C.3     1  UNL1        0.1740
     32  C         25.2700  -21.8140  -15.6370 C.2     1  UNL1       -0.0010
     33  C         24.8740  -23.1520  -15.7910 C.2     1  UNL1        0.0120
     34  C         24.4760  -23.6360  -17.0400 C.2     1  UNL1        0.0010
     35  C         24.4800  -22.7940  -18.1530 C.2     1  UNL1        0.0030
     36  C         24.8840  -21.4680  -18.0150 C.2     1  UNL1        0.0430
     37  C         25.2780  -20.9930  -16.7680 C.2     1  UNL1        0.1240
     38  F         25.6680  -19.7140  -16.6620 F       1  UNL1       -0.2050
@<TRIPOS>BOND
     1    35    36    2
     2    35    34    1
     3    36    37    1
     4    34    33    2
     5    37    38    1
     6    37    32    2
     7    33    32    1
     8    32    31    1
     9    31    10    1
    10    12    11    2
    11    11    10   am
    12    11     2    1
    13    10     9    1
    14     1     2    2
    15     1    13    1
    16     8     9    1
    17     8     7    2
    18     2     3    1
    19     9     4    2
    20    18    13    2
    21    18    17    1
    22    13    14    1
    23     7     6    1
    24    17    16    2
    25     4     3    1
    26     4     5    1
    27    14    15    2
    28     6     5    2
    29    16    15    1
    30    16    19    1
    31    20    19    2
    32    19    21   am
    33    22    21    1
    34    21    23    1
    35    23    24    1
    36    24    25    1
    37    26    25    2
    38    26    27    1
    39    25    30    1
    40    27    28    1
    41    30    29    1
    42    28    29    1
