@<TRIPOS>MOLECULE
33982_out_ligand_01.pdbqt
 32 35 0 0 0
SMALL
GASTEIGER

@<TRIPOS>ATOM
      1  C         20.1860  -22.3430   -9.8950 C.2     1  UNL1        0.0900
      2  C         19.9690  -21.4650  -10.9720 C.2     1  UNL1        0.0680
      3  C         18.6770  -21.2000  -11.3960 C.2     1  UNL1        0.1170
      4  F         18.4720  -20.3560  -12.4180 F       1  UNL1       -0.2060
      5  C         17.5930  -21.7900  -10.7680 C.2     1  UNL1        0.0430
      6  C         17.8030  -22.6760   -9.7050 C.2     1  UNL1        0.0130
      7  C         19.1030  -22.9900   -9.2510 C.2     1  UNL1       -0.0160
      8  S         21.8970  -22.5480   -9.4150 S.O2    1  UNL1        0.2630
      9  O         22.1010  -22.1150   -8.0480 O.2     1  UNL1       -0.2000
     10  O         22.2880  -23.8790   -9.8380 O.2     1  UNL1       -0.2000
     11  N         22.6890  -21.4710  -10.4580 N.pl3   1  UNL1       -0.2800
     12  H         22.0150  -20.8510  -10.9100 H       1  UNL1        0.1790
     13  C         23.7500  -21.9900  -11.2640 C.2     1  UNL1        0.0490
     14  C         23.6510  -22.0180  -12.6650 C.2     1  UNL1       -0.0350
     15  C         24.6990  -22.5930  -13.4070 C.2     1  UNL1        0.0090
     16  C         22.4490  -21.4700  -13.3880 C.3     1  UNL1        0.0500
     17  C         25.8180  -23.1320  -12.7670 C.2     1  UNL1        0.0070
     18  C         25.9050  -23.1210  -11.3700 C.2     1  UNL1       -0.0600
     19  C         27.1110  -23.6760  -10.6710 C.3     1  UNL1        0.0480
     20  C         24.8640  -22.5390  -10.6250 C.2     1  UNL1        0.0370
     21  C         19.3150  -23.9540   -8.0930 C.3     1  UNL1        0.1760
     22  N         18.5520  -23.6670   -6.8910 N.am    1  UNL1       -0.2740
     23  C         18.7400  -22.5520   -6.1180 C.2     1  UNL1        0.2630
     24  O         19.5560  -21.6570   -6.2410 O.2     1  UNL1       -0.2670
     25  C         17.7510  -22.6050   -5.0540 C.2     1  UNL1        0.0670
     26  C         17.4790  -21.7560   -4.0040 C.2     1  UNL1        0.0210
     27  C         17.0100  -23.7510   -5.2280 C.2     1  UNL1        0.1400
     28  C         16.4330  -22.1300   -3.1530 C.2     1  UNL1        0.0200
     29  C         15.7370  -23.3200   -3.4060 C.2     1  UNL1        0.1170
     30  N         16.0010  -24.1590   -4.4380 N.2     1  UNL1       -0.2540
     31  C         17.5210  -24.4460   -6.4210 C.2     1  UNL1        0.2800
     32  O         17.1090  -25.5010   -6.8730 O.2     1  UNL1       -0.2650
@<TRIPOS>BOND
     1    15    17    2
     2    15    14    1
     3    16    14    1
     4    17    18    1
     5    14    13    2
     6     4     3    1
     7     3     2    1
     8     3     5    2
     9    18    19    1
    10    18    20    2
    11    13    20    1
    12    13    11    1
    13     2     1    2
    14    12    11    1
    15     5     6    1
    16    11     8    1
    17     1     8    1
    18     1     7    1
    19    10     8    2
    20     6     7    2
    21     8     9    2
    22     7    21    1
    23    21    22    1
    24    22    31   am
    25    22    23   am
    26    32    31    2
    27    31    27    1
    28    24    23    2
    29    23    25    1
    30    27    25    2
    31    27    30    1
    32    25    26    1
    33    30    29    2
    34    26    28    2
    35    29    28    1
