@<TRIPOS>MOLECULE
33998_out_ligand_01.pdbqt
 34 37 0 0 0
SMALL
GASTEIGER

@<TRIPOS>ATOM
      1  C         18.0660  -22.7990   -9.9040 C.2     1  UNL1        0.0320
      2  C         19.0970  -23.6250   -9.4460 C.2     1  UNL1        0.0190
      3  C         20.3930  -23.4780   -9.9500 C.2     1  UNL1        0.0300
      4  C         20.6810  -22.4980  -10.9080 C.2     1  UNL1        0.0360
      5  C         19.6510  -21.6680  -11.3530 C.2     1  UNL1        0.0300
      6  C         18.3500  -21.8110  -10.8510 C.2     1  UNL1        0.0190
      7  N         22.0090  -22.4250  -11.3690 N.am    1  UNL1       -0.3090
      8  C         23.0910  -21.7960  -10.7780 C.2     1  UNL1        0.3270
      9  O         23.0660  -21.2800   -9.6620 O.2     1  UNL1       -0.2460
     10  N         24.2700  -21.8650  -11.5440 N.am    1  UNL1       -0.2990
     11  C         25.5200  -21.3920  -10.9400 C.3     1  UNL1        0.1340
     12  C         24.2960  -22.0070  -12.9620 C.2     1  UNL1        0.0450
     13  C         26.4970  -22.5210  -10.6370 C.3     1  UNL1        0.0210
     14  C         27.1190  -23.1190  -11.8950 C.3     1  UNL1        0.0060
     15  C         26.1020  -23.8100  -12.7980 C.3     1  UNL1        0.0410
     16  C         25.2170  -22.8700  -13.5830 C.2     1  UNL1       -0.0310
     17  C         25.2350  -22.9420  -14.9870 C.2     1  UNL1        0.0090
     18  C         24.3600  -22.1760  -15.7590 C.2     1  UNL1        0.0010
     19  C         23.4480  -21.3310  -15.1390 C.2     1  UNL1        0.0020
     20  C         23.4150  -21.2450  -13.7480 C.2     1  UNL1        0.0300
     21  H         22.2340  -22.9810  -12.1820 H       1  UNL1        0.1700
     22  C         16.7010  -22.9950   -9.3420 C.2     1  UNL1        0.2510
     23  O         15.7250  -22.5370   -9.9270 O.2     1  UNL1       -0.2680
     24  N         16.6200  -23.6640   -8.1380 N.am    1  UNL1       -0.3570
     25  H         17.4660  -23.8810   -7.6300 H       1  UNL1        0.1620
     26  C         15.3570  -23.8750   -7.4600 C.3     1  UNL1        0.1230
     27  C         15.4600  -23.6760   -5.9490 C.3     1  UNL1        0.0240
     28  C         16.8280  -24.0670   -5.3850 C.3     1  UNL1        0.0400
     29  C         17.6650  -22.8480   -5.0780 C.2     1  UNL1       -0.0580
     30  C         17.6520  -22.2810   -3.7970 C.2     1  UNL1        0.0070
     31  C         18.4110  -21.1430   -3.5200 C.2     1  UNL1        0.0010
     32  C         19.1850  -20.5580   -4.5210 C.2     1  UNL1        0.0000
     33  C         19.2010  -21.1120   -5.8000 C.2     1  UNL1        0.0010
     34  C         18.4420  -22.2510   -6.0790 C.2     1  UNL1        0.0070
@<TRIPOS>BOND
     1    18    19    2
     2    18    17    1
     3    19    20    1
     4    17    16    2
     5    20    12    2
     6    16    12    1
     7    16    15    1
     8    12    10    1
     9    15    14    1
    10    21     7    1
    11    14    13    1
    12    10    11    1
    13    10     8   am
    14     7     4    1
    15     7     8   am
    16     5     4    2
    17     5     6    1
    18    11    13    1
    19     4     3    1
    20     6     1    2
    21     8     9    2
    22     3     2    2
    23    23    22    2
    24     1     2    1
    25     1    22    1
    26    22    24   am
    27    24    25    1
    28    24    26    1
    29    26    27    1
    30    34    33    1
    31    34    29    2
    32    27    28    1
    33    33    32    2
    34    28    29    1
    35    29    30    1
    36    32    31    1
    37    30    31    2
