@<TRIPOS>MOLECULE
34008_out_ligand_01.pdbqt
 32 35 0 0 0
SMALL
GASTEIGER

@<TRIPOS>ATOM
      1  C         20.3250  -22.2340   -9.8690 C.2     1  UNL1        0.0850
      2  C         20.0670  -21.3740  -10.9460 C.2     1  UNL1        0.0670
      3  C         18.7710  -21.2370  -11.4160 C.2     1  UNL1        0.1170
      4  F         18.5260  -20.4230  -12.4500 F       1  UNL1       -0.2060
      5  C         17.7270  -21.9480  -10.8430 C.2     1  UNL1        0.0430
      6  C         17.9790  -22.7940   -9.7590 C.2     1  UNL1        0.0130
      7  C         19.2750  -22.9310   -9.2240 C.2     1  UNL1       -0.0170
      8  S         22.0340  -22.4550   -9.3880 S.O2    1  UNL1        0.2460
      9  O         22.1170  -22.0770   -7.9970 O.2     1  UNL1       -0.2060
     10  O         22.4570  -23.7510   -9.8750 O.2     1  UNL1       -0.2060
     11  N         22.8420  -21.3240  -10.3800 N.pl3   1  UNL1       -0.1810
     12  H         22.1350  -20.8780  -10.9630 H       1  UNL1        0.1460
     13  C         23.9010  -21.8840  -11.1790 C.2     1  UNL1        0.0290
     14  C         24.9960  -22.4040  -10.4820 C.2     1  UNL1        0.0250
     15  C         26.0410  -23.0120  -11.1680 C.2     1  UNL1        0.0020
     16  C         25.9840  -23.1230  -12.5530 C.2     1  UNL1        0.0070
     17  C         24.8800  -22.6320  -13.2710 C.2     1  UNL1       -0.0540
     18  C         24.8650  -22.8100  -14.7670 C.3     1  UNL1        0.0490
     19  C         23.8250  -21.9820  -12.5830 C.2     1  UNL1       -0.0340
     20  C         22.6250  -21.4850  -13.3500 C.3     1  UNL1        0.0500
     21  C         19.5260  -23.8340   -8.0230 C.3     1  UNL1        0.1760
     22  N         18.6770  -23.5590   -6.8780 N.am    1  UNL1       -0.2740
     23  C         18.7900  -22.4430   -6.0950 C.2     1  UNL1        0.2630
     24  O         19.5470  -21.4990   -6.1990 O.2     1  UNL1       -0.2670
     25  C         17.7960  -22.5690   -5.0400 C.2     1  UNL1        0.0670
     26  C         17.4580  -21.7470   -3.9870 C.2     1  UNL1        0.0210
     27  C         17.1330  -23.7560   -5.2280 C.2     1  UNL1        0.1400
     28  C         16.4290  -22.1910   -3.1540 C.2     1  UNL1        0.0200
     29  C         15.8070  -23.4180   -3.4250 C.2     1  UNL1        0.1170
     30  N         16.1350  -24.2290   -4.4600 N.2     1  UNL1       -0.2540
     31  C         17.7030  -24.4070   -6.4170 C.2     1  UNL1        0.2800
     32  O         17.3560  -25.4730   -6.8900 O.2     1  UNL1       -0.2650
@<TRIPOS>BOND
     1    18    17    1
     2    20    19    1
     3    17    19    1
     4    17    16    2
     5    19    13    2
     6    16    15    1
     7     4     3    1
     8     3     2    1
     9     3     5    2
    10    13    14    1
    11    13    11    1
    12    15    14    2
    13    12    11    1
    14     2     1    2
    15     5     6    1
    16    11     8    1
    17    10     8    2
    18     1     8    1
    19     1     7    1
    20     6     7    2
    21     8     9    2
    22     7    21    1
    23    21    22    1
    24    32    31    2
    25    22    31   am
    26    22    23   am
    27    31    27    1
    28    24    23    2
    29    23    25    1
    30    27    25    2
    31    27    30    1
    32    25    26    1
    33    30    29    2
    34    26    28    2
    35    29    28    1
