@<TRIPOS>MOLECULE
34002_out_ligand_01.pdbqt
 35 38 0 0 0
SMALL
GASTEIGER

@<TRIPOS>ATOM
      1  C         21.3210  -22.2200  -10.4900 C.2     1  UNL1        0.0340
      2  C         21.9890  -22.5990   -9.3190 C.2     1  UNL1        0.0170
      3  C         23.3750  -22.7380   -9.3300 C.2     1  UNL1        0.0030
      4  C         24.0900  -22.4910  -10.5040 C.2     1  UNL1        0.0290
      5  C         23.4340  -22.0890  -11.6760 C.2     1  UNL1        0.0370
      6  C         22.0440  -21.9520  -11.6620 C.2     1  UNL1        0.0460
      7  N         24.2400  -21.8700  -12.8110 N.am    1  UNL1       -0.3090
      8  C         24.9650  -22.7970  -13.5320 C.2     1  UNL1        0.3270
      9  O         24.9130  -24.0130  -13.3590 O.2     1  UNL1       -0.2460
     10  N         25.7130  -22.2510  -14.5920 N.am    1  UNL1       -0.2960
     11  C         25.8460  -23.1410  -15.7520 C.3     1  UNL1        0.1440
     12  C         26.1520  -20.8860  -14.6800 C.2     1  UNL1        0.0800
     13  C         26.5070  -22.5700  -16.9960 C.3     1  UNL1        0.1010
     14  S         25.7090  -21.0110  -17.4330 S.3     1  UNL1       -0.1060
     15  C         26.1100  -20.1890  -15.9040 C.2     1  UNL1        0.1210
     16  N         26.4000  -18.8730  -16.0410 N.2     1  UNL1       -0.2440
     17  C         26.7980  -18.1970  -14.9460 C.2     1  UNL1        0.0320
     18  C         27.1200  -16.7420  -15.1140 C.3     1  UNL1        0.0700
     19  C         26.9580  -18.8140  -13.7130 C.2     1  UNL1        0.0350
     20  C         26.6690  -20.1820  -13.5720 C.2     1  UNL1       -0.0300
     21  C         27.0110  -20.8130  -12.2470 C.3     1  UNL1        0.0500
     22  H         24.1690  -20.9590  -13.2410 H       1  UNL1        0.1700
     23  C         19.8420  -22.0630  -10.5140 C.2     1  UNL1        0.2520
     24  N         19.1240  -23.0410   -9.8620 N.am    1  UNL1       -0.3530
     25  H         19.5990  -23.8110   -9.4170 H       1  UNL1        0.1630
     26  O         19.3300  -21.1180  -11.1010 O.2     1  UNL1       -0.2680
     27  C         17.6910  -22.9560   -9.7000 C.3     1  UNL1        0.1610
     28  C         17.3120  -23.2150   -8.2640 C.2     1  UNL1       -0.0380
     29  C         18.0740  -24.1040   -7.4930 C.2     1  UNL1        0.0090
     30  C         17.7180  -24.3750   -6.1740 C.2     1  UNL1        0.0030
     31  C         16.5940  -23.7630   -5.6190 C.2     1  UNL1        0.0370
     32  C         15.8190  -22.8790   -6.3730 C.2     1  UNL1        0.0680
     33  C         16.1780  -22.6090   -7.6960 C.2     1  UNL1        0.0450
     34  O         14.7420  -22.3560   -5.7100 O.2     1  UNL1       -0.3560
     35  C         14.8440  -22.2510   -4.2970 C.3     1  UNL1        0.2100
@<TRIPOS>BOND
     1    14    13    1
     2    14    15    1
     3    13    11    1
     4    16    15    1
     5    16    17    2
     6    15    12    2
     7    11    10    1
     8    18    17    1
     9    17    19    1
    10    12    10    1
    11    12    20    1
    12    10     8   am
    13    19    20    2
    14    20    21    1
    15     8     9    2
    16     8     7   am
    17    22     7    1
    18     7     5    1
    19     5     6    1
    20     5     4    2
    21     6     1    2
    22    26    23    2
    23    23     1    1
    24    23    24   am
    25     4     3    1
    26     1     2    1
    27    24    27    1
    28    24    25    1
    29    27    28    1
    30     3     2    2
    31    28    33    2
    32    28    29    1
    33    33    32    1
    34    29    30    2
    35    32    34    1
    36    32    31    2
    37    30    31    1
    38    34    35    1
