@<TRIPOS>MOLECULE
34005_out_ligand_01.pdbqt
 31 33 0 0 0
SMALL
GASTEIGER

@<TRIPOS>ATOM
      1  C         20.5000  -22.3290   -7.4950 C.2     1  UNL1        0.0720
      2  C         19.2840  -23.0300   -7.4660 C.2     1  UNL1        0.0450
      3  C         18.2910  -22.6740   -6.5480 C.2     1  UNL1        0.0800
      4  C         18.4950  -21.6310   -5.6410 C.2     1  UNL1        0.0280
      5  C         19.7060  -20.9400   -5.6590 C.2     1  UNL1        0.0450
      6  C         20.6940  -21.2890   -6.5810 C.2     1  UNL1        0.1320
      7  F         21.8410  -20.5910   -6.5630 F       1  UNL1       -0.2050
      8  S         16.7570  -23.5720   -6.5440 S.O2    1  UNL1        0.2590
      9  O         16.9580  -24.7480   -5.7310 O.2     1  UNL1       -0.2010
     10  O         15.6910  -22.6290   -6.2880 O.2     1  UNL1       -0.2010
     11  N         16.6190  -24.0810   -8.1250 N.3     1  UNL1       -0.3110
     12  H         17.3370  -24.7220   -8.4550 H       1  UNL1        0.1720
     13  C         15.8930  -23.2700   -9.0890 C.3     1  UNL1        0.1700
     14  C         16.8510  -22.5450  -10.0040 C.2     1  UNL1       -0.0400
     15  C         18.0680  -23.1460  -10.3640 C.2     1  UNL1        0.0120
     16  C         18.9680  -22.4760  -11.1930 C.2     1  UNL1        0.0430
     17  C         18.6570  -21.2030  -11.6550 C.2     1  UNL1        0.1160
     18  F         19.5220  -20.5600  -12.4510 F       1  UNL1       -0.2060
     19  C         17.4620  -20.5870  -11.3010 C.2     1  UNL1        0.0430
     20  C         16.5600  -21.2540  -10.4710 C.2     1  UNL1        0.0120
     21  C         21.5160  -22.7180   -8.5190 C.2     1  UNL1        0.2590
     22  O         21.8130  -23.9050   -8.5950 O.2     1  UNL1       -0.2670
     23  N         22.0290  -21.7010   -9.3030 N.am    1  UNL1       -0.3230
     24  H         21.6720  -20.7660   -9.1370 H       1  UNL1        0.1690
     25  C         22.9920  -21.8080  -10.3290 C.2     1  UNL1        0.0370
     26  C         22.5180  -22.0900  -11.6200 C.2     1  UNL1        0.0290
     27  C         23.3990  -22.2130  -12.6990 C.2     1  UNL1        0.0050
     28  C         24.7670  -22.0560  -12.4940 C.2     1  UNL1        0.0420
     29  C         25.2340  -21.7760  -11.2170 C.2     1  UNL1        0.1180
     30  F         26.5520  -21.6240  -11.0220 F       1  UNL1       -0.2060
     31  C         24.3640  -21.6500  -10.1350 C.2     1  UNL1        0.0710
@<TRIPOS>BOND
     1    27    28    2
     2    27    26    1
     3    28    29    1
     4    18    17    1
     5    17    19    2
     6    17    16    1
     7    26    25    2
     8    19    20    1
     9    29    30    1
    10    29    31    2
    11    16    15    2
    12    20    14    2
    13    15    14    1
    14    25    31    1
    15    25    23    1
    16    14    13    1
    17    23    24    1
    18    23    21   am
    19    13    11    1
    20    22    21    2
    21    21     1    1
    22    12    11    1
    23    11     8    1
    24     1     2    2
    25     1     6    1
    26     2     3    1
    27     6     7    1
    28     6     5    2
    29     3     8    1
    30     3     4    2
    31     8    10    2
    32     8     9    2
    33     5     4    1
