@<TRIPOS>MOLECULE
34000_out_ligand_01.pdbqt
 36 39 0 0 0
SMALL
GASTEIGER

@<TRIPOS>ATOM
      1  C         21.2930  -21.8550  -11.1760 C.2     1  UNL1       -0.0190
      2  C         20.8290  -20.8580  -12.0350 C.2     1  UNL1        0.0130
      3  C         19.4630  -20.5700  -12.1010 C.2     1  UNL1        0.0090
      4  C         18.5320  -21.2790  -11.3220 C.2     1  UNL1       -0.0390
      5  C         17.0810  -20.8980  -11.4220 C.3     1  UNL1        0.0500
      6  C         19.0140  -22.2830  -10.4580 C.2     1  UNL1        0.0810
      7  C         20.3880  -22.5670  -10.3850 C.2     1  UNL1        0.0370
      8  C         22.7060  -22.1530  -11.1020 C.ar    1  UNL1        0.0470
      9  C         23.5850  -22.0660  -12.1720 C.ar    1  UNL1        0.1480
     10  N         24.8410  -22.3880  -11.6480 N.ar    1  UNL1       -0.1830
     11  N         23.2420  -21.7120  -13.4680 N.am    1  UNL1       -0.3110
     12  N         24.7390  -22.8290  -10.3610 N.ar    1  UNL1       -0.1670
     13  C         26.1270  -22.2820  -12.2110 C.2     1  UNL1        0.2460
     14  C         23.4640  -22.6460  -10.0180 C.ar    1  UNL1        0.0700
     15  C         26.1830  -21.6000  -13.5400 C.3     1  UNL1        0.1140
     16  O         27.1200  -22.6810  -11.6120 O.2     1  UNL1       -0.2710
     17  C         25.3700  -22.3660  -14.5550 C.3     1  UNL1        0.1120
     18  C         23.9710  -21.8240  -14.6130 C.2     1  UNL1        0.2230
     19  O         23.4530  -21.5210  -15.6870 O.2     1  UNL1       -0.2730
     20  H         22.2800  -21.4270  -13.6390 H       1  UNL1        0.1700
     21  C         23.0070  -22.9750   -8.6340 C.3     1  UNL1        0.0620
     22  C         22.5840  -21.7280   -7.8550 C.3     1  UNL1        0.0020
     23  C         21.1680  -21.8630   -7.3170 C.3     1  UNL1        0.0050
     24  S         17.9210  -23.2280   -9.4060 S.O2    1  UNL1        0.2460
     25  O         18.7370  -24.0960   -8.5870 O.2     1  UNL1       -0.2060
     26  O         16.8550  -23.7520  -10.2340 O.2     1  UNL1       -0.2060
     27  N         17.2380  -21.9840   -8.4570 N.pl3   1  UNL1       -0.1780
     28  H         16.3370  -21.7420   -8.8810 H       1  UNL1        0.1460
     29  C         17.0260  -22.3610   -7.0810 C.2     1  UNL1        0.0610
     30  C         17.8000  -21.8040   -6.0630 C.2     1  UNL1        0.0340
     31  C         17.6030  -22.2010   -4.7320 C.2     1  UNL1       -0.0600
     32  C         18.4620  -21.6350   -3.6390 C.3     1  UNL1        0.0480
     33  C         16.6400  -23.1790   -4.4390 C.2     1  UNL1        0.0100
     34  C         15.8680  -23.7380   -5.4580 C.2     1  UNL1        0.0450
     35  C         16.0670  -23.3260   -6.7690 C.2     1  UNL1        0.1380
     36  F         15.3190  -23.8560   -7.7490 F       1  UNL1       -0.2040
@<TRIPOS>BOND
     1    19    18    2
     2    18    17    1
     3    18    11   am
     4    17    15    1
     5    20    11    1
     6    15    13    1
     7    11     9    1
     8    13    10   am
     9    13    16    2
    10     9    10   ar
    11     9     8   ar
    12     3     2    1
    13     3     4    2
    14     2     1    2
    15    10    12   ar
    16     5     4    1
    17     4     6    1
    18     1     8    1
    19     1     7    1
    20     8    14   ar
    21     6     7    2
    22     6    24    1
    23    12    14   ar
    24    26    24    2
    25    14    21    1
    26    24    25    2
    27    24    27    1
    28    28    27    1
    29    21    22    1
    30    27    29    1
    31    22    23    1
    32    36    35    1
    33    29    35    2
    34    29    30    1
    35    35    34    1
    36    30    31    2
    37    34    33    2
    38    31    33    1
    39    31    32    1
