@<TRIPOS>MOLECULE
34016_out_ligand_01.pdbqt
 31 34 0 0 0
SMALL
GASTEIGER

@<TRIPOS>ATOM
      1  C         18.8100  -22.1740  -10.3420 C.2     1  UNL1        0.0320
      2  C         19.8250  -22.9940   -9.8420 C.2     1  UNL1        0.0190
      3  C         21.1310  -22.8920  -10.3400 C.2     1  UNL1        0.0300
      4  C         21.4340  -21.9790  -11.3510 C.2     1  UNL1        0.0350
      5  C         20.4070  -21.1740  -11.8650 C.2     1  UNL1        0.0300
      6  C         19.1020  -21.2680  -11.3670 C.2     1  UNL1        0.0190
      7  N         22.7140  -21.8210  -11.9150 N.am    1  UNL1       -0.3220
      8  C         23.9060  -21.5530  -11.2540 C.2     1  UNL1        0.2760
      9  O         24.0310  -21.3500  -10.0510 O.2     1  UNL1       -0.2660
     10  H         22.7660  -21.8480  -12.9260 H       1  UNL1        0.1690
     11  C         25.0610  -21.5140  -12.1700 C.ar    1  UNL1        0.1440
     12  N         25.8460  -20.4310  -12.1780 N.ar    1  UNL1       -0.2050
     13  S         27.0350  -20.6240  -13.3020 S.2     1  UNL1        0.0120
     14  C         26.5490  -22.1780  -13.8410 C.ar    1  UNL1        0.0360
     15  C         27.1210  -22.9940  -14.8310 C.2     1  UNL1        0.0210
     16  C         25.4250  -22.5640  -13.1070 C.ar    1  UNL1        0.0170
     17  C         26.5420  -24.2410  -15.0790 C.2     1  UNL1        0.0010
     18  C         25.4320  -24.6640  -14.3580 C.2     1  UNL1        0.0010
     19  C         24.8700  -23.8420  -13.3750 C.2     1  UNL1        0.0150
     20  C         17.4380  -22.3180   -9.7840 C.2     1  UNL1        0.2510
     21  O         16.5040  -21.7040  -10.2850 O.2     1  UNL1       -0.2680
     22  N         17.3020  -23.1900   -8.7250 N.am    1  UNL1       -0.3530
     23  H         18.0520  -23.8370   -8.5300 H       1  UNL1        0.1630
     24  C         16.0000  -23.5270   -8.1940 C.3     1  UNL1        0.1610
     25  C         15.9350  -23.2460   -6.7150 C.2     1  UNL1       -0.0380
     26  C         14.8850  -22.4790   -6.1850 C.2     1  UNL1        0.0090
     27  C         14.8020  -22.2320   -4.8130 C.2     1  UNL1        0.0040
     28  C         15.7680  -22.7540   -3.9540 C.2     1  UNL1        0.0420
     29  C         16.8040  -23.5200   -4.4770 C.2     1  UNL1        0.1170
     30  F         17.7290  -24.0280   -3.6520 F       1  UNL1       -0.2060
     31  C         16.8960  -23.7720   -5.8420 C.2     1  UNL1        0.0510
@<TRIPOS>BOND
     1    17    15    1
     2    17    18    2
     3    15    14    2
     4    18    19    1
     5    14    13   ar
     6    14    16   ar
     7    19    16    2
     8    13    12   ar
     9    16    11   ar
    10    10     7    1
    11    12    11   ar
    12    11     8    1
    13     7     4    1
    14     7     8   am
    15     5     6    1
    16     5     4    2
    17     6     1    2
    18     4     3    1
    19     8     9    2
    20     1     2    1
    21     1    20    1
    22     3     2    2
    23    21    20    2
    24    20    22   am
    25    22    23    1
    26    22    24    1
    27    24    25    1
    28    25    26    2
    29    25    31    1
    30    26    27    1
    31    31    29    2
    32    27    28    2
    33    29    28    1
    34    29    30    1
