@<TRIPOS>MOLECULE
34018_out_ligand_01.pdbqt
 31 35 0 0 0
SMALL
GASTEIGER

@<TRIPOS>ATOM
      1  C         17.8570  -22.4990   -8.6500 C.2     1  UNL1        0.0880
      2  C         16.9650  -21.9030   -9.6960 C.2     1  UNL1        0.0380
      3  C         17.5170  -21.5440  -10.8630 C.2     1  UNL1        0.0570
      4  C         18.8990  -21.7420  -11.0610 C.ar    1  UNL1        0.1750
      5  N         19.6890  -21.5440  -12.0980 N.ar    1  UNL1       -0.1280
      6  N         20.9600  -21.9330  -11.7410 N.ar    1  UNL1       -0.1200
      7  C         20.9070  -22.3480  -10.4940 C.ar    1  UNL1        0.2130
      8  N         19.6220  -22.2740  -10.0110 N.ar    1  UNL1       -0.1870
      9  N         19.1380  -22.6880   -8.7950 N.2     1  UNL1       -0.1630
     10  S         22.2370  -23.0220   -9.6160 S.3     1  UNL1       -0.0790
     11  C         23.3410  -21.5790   -9.6200 C.3     1  UNL1        0.1850
     12  C         24.2720  -21.5500  -10.8280 C.2     1  UNL1        0.2310
     13  O         25.3180  -20.9020  -10.7750 O.2     1  UNL1       -0.2720
     14  N         23.8700  -22.3520  -11.8820 N.am    1  UNL1       -0.3260
     15  H         22.9430  -22.7700  -11.8150 H       1  UNL1        0.1690
     16  C         24.5750  -22.6380  -13.0740 C.2     1  UNL1        0.0370
     17  C         25.6850  -23.5060  -13.1350 C.2     1  UNL1        0.0320
     18  C         26.3230  -23.7770  -14.3540 C.2     1  UNL1        0.0420
     19  C         25.8390  -23.1630  -15.4860 C.2     1  UNL1        0.1050
     20  C         24.7650  -22.3070  -15.4350 C.2     1  UNL1        0.1070
     21  O         26.3280  -23.3180  -16.7460 O.2     1  UNL1       -0.3230
     22  C         24.1090  -22.0310  -14.2500 C.2     1  UNL1        0.0690
     23  O         24.4580  -21.7910  -16.6590 O.2     1  UNL1       -0.3230
     24  C         25.4710  -22.4130  -17.4780 C.3     1  UNL1        0.3520
     25  C         17.1980  -22.9300   -7.3810 C.2     1  UNL1       -0.0060
     26  C         15.8430  -22.6310   -7.2000 C.2     1  UNL1        0.0140
     27  C         15.2020  -22.9750   -6.0050 C.2     1  UNL1        0.0070
     28  C         15.8980  -23.6510   -4.9920 C.2     1  UNL1       -0.0620
     29  C         15.2070  -23.9840   -3.7020 C.3     1  UNL1        0.0480
     30  C         17.2420  -23.9840   -5.1940 C.2     1  UNL1        0.0070
     31  C         17.8930  -23.6240   -6.3800 C.2     1  UNL1        0.0140
@<TRIPOS>BOND
     1    24    21    1
     2    24    23    1
     3    21    19    1
     4    23    20    1
     5    19    20    2
     6    19    18    1
     7    20    22    1
     8    18    17    2
     9    22    16    2
    10    17    16    1
    11    16    14    1
    12     5     6   ar
    13     5     4   ar
    14    14    15    1
    15    14    12   am
    16     6     7   ar
    17     4     3    1
    18     4     8   ar
    19     3     2    2
    20    12    13    2
    21    12    11    1
    22     7     8   ar
    23     7    10    1
    24     8     9    1
    25     2     1    1
    26    11    10    1
    27     9     1    2
    28     1    25    1
    29    25    26    2
    30    25    31    1
    31    26    27    1
    32    31    30    2
    33    27    28    2
    34    30    28    1
    35    28    29    1
