@<TRIPOS>MOLECULE
34039_out_ligand_01.pdbqt
 32 34 0 0 0
SMALL
GASTEIGER

@<TRIPOS>ATOM
      1  C         19.1180  -21.9290  -11.2090 C.2     1  UNL1        0.0060
      2  C         18.0890  -21.0210  -11.4060 C.2     1  UNL1        0.0210
      3  C         16.9560  -21.2730  -10.5790 C.2     1  UNL1        0.0340
      4  C         17.1330  -22.3730   -9.7660 C.2     1  UNL1        0.1210
      5  S         18.6710  -23.0720   -9.9950 S.3     1  UNL1       -0.0770
      6  C         20.4000  -22.0540  -11.8240 C.2     1  UNL1        0.0220
      7  C         20.9630  -21.0560  -12.5260 C.2     1  UNL1        0.0430
      8  C         22.2440  -21.2270  -13.1360 C.ar    1  UNL1        0.1300
      9  O         22.5790  -20.6420  -14.3310 O.2     1  UNL1       -0.2110
     10  N         23.8650  -20.9380  -14.6830 N.ar    1  UNL1       -0.1310
     11  C         24.3500  -21.7230  -13.7160 C.ar    1  UNL1        0.0870
     12  C         23.3670  -21.9450  -12.7040 C.ar    1  UNL1        0.0980
     13  C         25.7400  -22.2120  -13.8660 C.3     1  UNL1        0.0750
     14  N         23.3710  -22.6860  -11.5210 N.am    1  UNL1       -0.3230
     15  C         23.6880  -22.2410  -10.2520 C.2     1  UNL1        0.2210
     16  O         23.9870  -21.0990   -9.9320 O.2     1  UNL1       -0.2730
     17  H         23.1100  -23.6590  -11.6090 H       1  UNL1        0.1690
     18  C         23.6120  -23.3720   -9.2370 C.3     1  UNL1        0.0980
     19  C         22.2010  -23.9090   -9.0650 C.3     1  UNL1        0.0140
     20  S         16.0550  -23.1450   -8.5700 S.O2    1  UNL1        0.2690
     21  O         15.2640  -22.0890   -7.9790 O.2     1  UNL1       -0.2000
     22  O         15.4340  -24.2170   -9.3230 O.2     1  UNL1       -0.2000
     23  N         17.0020  -23.9130   -7.3970 N.pl3   1  UNL1       -0.2800
     24  H         17.9430  -24.0800   -7.7460 H       1  UNL1        0.1790
     25  C         16.8830  -23.4940   -6.0360 C.2     1  UNL1        0.0490
     26  C         15.8250  -23.9950   -5.2740 C.2     1  UNL1        0.0310
     27  C         15.6550  -23.5870   -3.9560 C.2     1  UNL1        0.0030
     28  C         16.5490  -22.6820   -3.3910 C.2     1  UNL1        0.0070
     29  C         17.6290  -22.1740   -4.1340 C.2     1  UNL1       -0.0540
     30  C         18.5590  -21.2010   -3.4590 C.3     1  UNL1        0.0490
     31  C         17.8030  -22.5780   -5.4780 C.2     1  UNL1       -0.0290
     32  C         18.9540  -22.0640   -6.3060 C.3     1  UNL1        0.0510
@<TRIPOS>BOND
     1    10     9   ar
     2    10    11   ar
     3     9     8   ar
     4    13    11    1
     5    11    12   ar
     6     8    12   ar
     7     8     7    1
     8    12    14    1
     9     7     6    2
    10     6     1    1
    11    17    14    1
    12    14    15   am
    13     2     1    2
    14     2     3    1
    15     1     5    1
    16     3     4    2
    17    15    16    2
    18    15    18    1
    19     5     4    1
    20     4    20    1
    21    22    20    2
    22    18    19    1
    23    20    21    2
    24    20    23    1
    25    24    23    1
    26    23    25    1
    27    32    31    1
    28    25    31    2
    29    25    26    1
    30    31    29    1
    31    26    27    2
    32    29    30    1
    33    29    28    2
    34    27    28    1
