@<TRIPOS>MOLECULE
34047_out_ligand_01.pdbqt
 33 36 0 0 0
SMALL
GASTEIGER

@<TRIPOS>ATOM
      1  C         20.5350  -23.0990   -8.1100 C.2     1  UNL1        0.0320
      2  C         21.3460  -22.0310   -7.7070 C.2     1  UNL1        0.0180
      3  C         22.5360  -21.7590   -8.3930 C.2     1  UNL1        0.0170
      4  C         22.9270  -22.5360   -9.4940 C.2     1  UNL1        0.0170
      5  C         22.0950  -23.5910   -9.8990 C.2     1  UNL1        0.0170
      6  C         20.9050  -23.8680   -9.2170 C.2     1  UNL1        0.0180
      7  C         24.1620  -22.2710  -10.2270 C.ar    1  UNL1        0.1800
      8  N         24.9590  -23.1190  -10.8480 N.ar    1  UNL1       -0.2250
      9  C         25.9880  -22.3350  -11.3280 C.ar    1  UNL1        0.0760
     10  C         25.7490  -21.0180  -10.9960 C.ar    1  UNL1        0.0770
     11  C         26.4590  -19.7470  -11.2170 C.3     1  UNL1        0.0790
     12  O         24.5790  -20.9680  -10.2900 O.2     1  UNL1       -0.2940
     13  C         27.1210  -22.9330  -12.0810 C.3     1  UNL1        0.1410
     14  S         26.5700  -24.1480  -13.3290 S.3     1  UNL1       -0.1240
     15  C         26.0810  -23.0840  -14.6770 C.2     1  UNL1        0.0010
     16  C         26.5740  -21.7870  -14.8300 C.2     1  UNL1        0.0190
     17  C         26.1720  -20.9970  -15.9120 C.2     1  UNL1        0.0080
     18  C         25.2880  -21.5020  -16.8720 C.2     1  UNL1       -0.0620
     19  C         24.8350  -20.6440  -18.0170 C.3     1  UNL1        0.0480
     20  C         24.7950  -22.8020  -16.7200 C.2     1  UNL1        0.0080
     21  C         25.1960  -23.5880  -15.6360 C.2     1  UNL1        0.0190
     22  C         19.2620  -23.4270   -7.4070 C.2     1  UNL1        0.2560
     23  N         18.6790  -22.3610   -6.7450 N.am    1  UNL1       -0.3220
     24  H         19.2250  -21.5140   -6.7050 H       1  UNL1        0.1690
     25  O         18.8660  -24.5860   -7.4460 O.2     1  UNL1       -0.2670
     26  C         17.4480  -22.3390   -6.0440 C.2     1  UNL1        0.0410
     27  C         17.3890  -22.3220   -4.6460 C.2     1  UNL1        0.0300
     28  C         16.1640  -22.3210   -3.9740 C.2     1  UNL1        0.0020
     29  C         14.9760  -22.3430   -4.6910 C.2     1  UNL1        0.0010
     30  C         15.0120  -22.3620   -6.0830 C.2     1  UNL1        0.0090
     31  C         16.2390  -22.3550   -6.7780 C.2     1  UNL1       -0.0320
     32  C         16.1790  -22.3810   -8.2900 C.3     1  UNL1        0.0360
     33  C         15.7680  -23.7470   -8.8220 C.3     1  UNL1        0.0100
@<TRIPOS>BOND
     1    19    18    1
     2    18    20    2
     3    18    17    1
     4    20    21    1
     5    17    16    2
     6    21    15    2
     7    16    15    1
     8    15    14    1
     9    14    13    1
    10    13     9    1
    11     9    10   ar
    12     9     8   ar
    13    11    10    1
    14    10    12   ar
    15     8     7   ar
    16    12     7   ar
    17     7     4    1
    18     5     4    2
    19     5     6    1
    20     4     3    1
    21     6     1    2
    22    33    32    1
    23     3     2    2
    24    32    31    1
    25     1     2    1
    26     1    22    1
    27    25    22    2
    28    22    23   am
    29    31    30    1
    30    31    26    2
    31    23    24    1
    32    23    26    1
    33    30    29    2
    34    26    27    1
    35    29    28    1
    36    27    28    2
