@<TRIPOS>MOLECULE
34042_out_ligand_01.pdbqt
 38 42 0 0 0
SMALL
GASTEIGER

@<TRIPOS>ATOM
      1  C         18.2750  -22.1360  -10.3660 C.2     1  UNL1        0.0320
      2  C         18.7270  -21.2830  -11.3770 C.2     1  UNL1        0.0190
      3  C         20.0630  -21.3310  -11.7980 C.2     1  UNL1        0.0300
      4  C         20.9590  -22.2320  -11.2200 C.2     1  UNL1        0.0360
      5  C         20.4980  -23.0990  -10.2220 C.2     1  UNL1        0.0300
      6  C         19.1660  -23.0550   -9.7990 C.2     1  UNL1        0.0190
      7  C         16.8630  -22.1300   -9.8870 C.2     1  UNL1        0.2510
      8  O         15.9650  -21.7400  -10.6260 O.2     1  UNL1       -0.2680
      9  N         16.6450  -22.6110   -8.6150 N.am    1  UNL1       -0.3570
     10  H         17.3750  -23.1290   -8.1440 H       1  UNL1        0.1620
     11  C         15.3110  -22.7410   -8.0650 C.3     1  UNL1        0.1240
     12  C         15.1510  -23.9520   -7.1470 C.3     1  UNL1        0.0500
     13  C         15.1430  -23.6200   -5.6470 C.3     1  UNL1        0.2740
     14  N         16.2280  -24.2550   -4.8790 N.3     1  UNL1        0.0920
     15  C         16.3530  -23.6790   -3.5280 C.3     1  UNL1        0.2770
     16  C         16.7810  -22.2040   -3.5010 C.3     1  UNL1        0.0690
     17  C         17.8940  -21.9040   -4.4730 C.2     1  UNL1       -0.0490
     18  C         18.5650  -20.6750   -4.4110 C.2     1  UNL1        0.0070
     19  C         18.2210  -22.8270   -5.4830 C.2     1  UNL1       -0.0240
     20  C         19.5700  -20.3730   -5.3310 C.2     1  UNL1        0.0010
     21  C         19.9090  -21.2940   -6.3190 C.2     1  UNL1        0.0010
     22  C         19.2410  -22.5160   -6.3930 C.2     1  UNL1        0.0090
     23  C         17.5390  -24.1790   -5.5510 C.3     1  UNL1        0.3110
     24  N         22.3080  -22.3520  -11.5990 N.am    1  UNL1       -0.3090
     25  C         23.4270  -21.8320  -10.9700 C.2     1  UNL1        0.3270
     26  O         23.4180  -21.2680   -9.8790 O.2     1  UNL1       -0.2460
     27  N         24.6270  -22.0890  -11.6770 N.am    1  UNL1       -0.2990
     28  C         25.8630  -21.7470  -10.9650 C.3     1  UNL1        0.1340
     29  C         24.6830  -22.0840  -13.1050 C.2     1  UNL1        0.0450
     30  C         27.1210  -22.4960  -11.3900 C.3     1  UNL1        0.0210
     31  C         26.8000  -23.9360  -11.7580 C.3     1  UNL1        0.0060
     32  C         26.3580  -24.0680  -13.2140 C.3     1  UNL1        0.0410
     33  C         25.4950  -22.9830  -13.8210 C.2     1  UNL1       -0.0310
     34  C         25.4660  -22.9350  -15.2330 C.2     1  UNL1        0.0090
     35  C         24.6770  -22.0130  -15.9180 C.2     1  UNL1        0.0010
     36  C         23.8930  -21.1180  -15.2080 C.2     1  UNL1        0.0020
     37  C         23.8960  -21.1540  -13.8140 C.2     1  UNL1        0.0300
     38  H         22.5100  -22.9580  -12.3820 H       1  UNL1        0.1700
@<TRIPOS>BOND
     1    35    34    2
     2    35    36    1
     3    34    33    1
     4    36    37    2
     5    33    32    1
     6    33    29    2
     7    37    29    1
     8    32    31    1
     9    29    27    1
    10    38    24    1
    11     3     2    1
    12     3     4    2
    13    31    30    1
    14    27    25   am
    15    27    28    1
    16    24     4    1
    17    24    25   am
    18    30    28    1
    19     2     1    2
    20     4     5    1
    21    25    26    2
    22     8     7    2
    23     1     7    1
    24     1     6    1
    25     5     6    2
    26     7     9   am
    27     9    10    1
    28     9    11    1
    29    11    12    1
    30    12    13    1
    31    22    21    2
    32    22    19    1
    33    21    20    1
    34    13    14    1
    35    23    19    1
    36    23    14    1
    37    19    17    2
    38    20    18    2
    39    14    15    1
    40    17    18    1
    41    17    16    1
    42    15    16    1
