@<TRIPOS>MOLECULE
34055_out_ligand_01.pdbqt
 34 37 0 0 0
SMALL
GASTEIGER

@<TRIPOS>ATOM
      1  C         22.6270  -22.4810  -11.0940 C.2     1  UNL1        0.0370
      2  C         23.1480  -23.3340  -10.1130 C.2     1  UNL1        0.0290
      3  C         22.3100  -23.9210   -9.1610 C.2     1  UNL1        0.0030
      4  C         20.9420  -23.6550   -9.1760 C.2     1  UNL1        0.0170
      5  C         20.4140  -22.8000  -10.1500 C.2     1  UNL1        0.0340
      6  C         21.2580  -22.2080  -11.1010 C.2     1  UNL1        0.0460
      7  N         23.5410  -21.9040  -11.9970 N.am    1  UNL1       -0.3090
      8  C         24.7560  -21.3190  -11.7000 C.2     1  UNL1        0.3270
      9  N         25.5160  -20.9600  -12.8290 N.am    1  UNL1       -0.2960
     10  O         25.1230  -21.0210  -10.5660 O.2     1  UNL1       -0.2460
     11  C         26.3480  -19.7680  -12.6410 C.3     1  UNL1        0.1440
     12  C         25.3820  -21.5480  -14.1350 C.2     1  UNL1        0.0800
     13  C         27.0920  -19.2380  -13.8570 C.3     1  UNL1        0.1010
     14  S         25.9280  -19.0360  -15.2230 S.3     1  UNL1       -0.1060
     15  C         25.4580  -20.7530  -15.2950 C.2     1  UNL1        0.1210
     16  N         25.2230  -21.2110  -16.5480 N.2     1  UNL1       -0.2440
     17  C         24.9440  -22.5210  -16.7000 C.2     1  UNL1        0.0320
     18  C         24.6710  -23.0120  -18.0910 C.3     1  UNL1        0.0700
     19  C         24.9340  -23.4020  -15.6300 C.2     1  UNL1        0.0350
     20  C         25.1910  -22.9300  -14.3320 C.2     1  UNL1       -0.0300
     21  C         25.3220  -23.9730  -13.2500 C.3     1  UNL1        0.0500
     22  H         23.2090  -21.7450  -12.9380 H       1  UNL1        0.1700
     23  C         18.9680  -22.4610  -10.1800 C.2     1  UNL1        0.2520
     24  O         18.4940  -21.8750  -11.1450 O.2     1  UNL1       -0.2680
     25  N         18.2300  -22.8700   -9.0920 N.am    1  UNL1       -0.3530
     26  H         18.6370  -23.5260   -8.4400 H       1  UNL1        0.1630
     27  C         16.7870  -22.7360   -9.0640 C.3     1  UNL1        0.1640
     28  C         16.2490  -22.9550   -7.6780 C.2     1  UNL1       -0.0020
     29  C         16.3350  -21.9470   -6.7060 C.2     1  UNL1        0.0120
     30  C         15.8220  -22.1530   -5.4220 C.2     1  UNL1        0.0010
     31  C         15.2200  -23.3700   -5.0940 C.2     1  UNL1        0.0030
     32  C         15.1280  -24.3780   -6.0510 C.2     1  UNL1        0.0430
     33  C         15.6390  -24.1630   -7.3300 C.2     1  UNL1        0.1240
     34  F         15.5230  -25.1410   -8.2380 F       1  UNL1       -0.2050
@<TRIPOS>BOND
     1    18    17    1
     2    17    16    2
     3    17    19    1
     4    16    15    1
     5    19    20    2
     6    15    14    1
     7    15    12    2
     8    14    13    1
     9    20    12    1
    10    20    21    1
    11    12     9    1
    12    13    11    1
    13    22     7    1
    14     9    11    1
    15     9     8   am
    16     7     8   am
    17     7     1    1
    18     8    10    2
    19    24    23    2
    20     6     1    2
    21     6     5    1
    22     1     2    1
    23    23     5    1
    24    23    25   am
    25     5     4    2
    26     2     3    2
    27     4     3    1
    28    25    27    1
    29    25    26    1
    30    27    28    1
    31    34    33    1
    32    28    33    2
    33    28    29    1
    34    33    32    1
    35    29    30    2
    36    32    31    2
    37    30    31    1
