@<TRIPOS>MOLECULE
34059_out_ligand_01.pdbqt
 35 38 0 0 0
SMALL
GASTEIGER

@<TRIPOS>ATOM
      1  C         22.3040  -22.1110  -11.7280 C.2     1  UNL1        0.0320
      2  C         21.1590  -21.4050  -12.0900 C.2     1  UNL1        0.0190
      3  C         19.9520  -21.6040  -11.4030 C.2     1  UNL1        0.0310
      4  C         19.8390  -22.5250  -10.3490 C.2     1  UNL1        0.0380
      5  C         21.0080  -23.2310  -10.0100 C.2     1  UNL1        0.0310
      6  C         22.2210  -23.0390  -10.6910 C.2     1  UNL1        0.0190
      7  N         18.6020  -22.7130   -9.6090 N.am    1  UNL1       -0.3000
      8  C         17.3840  -22.1160  -10.1770 C.3     1  UNL1        0.1350
      9  C         16.1330  -22.2810   -9.3400 C.3     1  UNL1        0.0400
     10  C         16.1170  -23.6900   -8.8220 C.3     1  UNL1        0.1290
     11  N         17.2980  -23.8890   -8.0130 N.am    1  UNL1       -0.3290
     12  C         18.5560  -23.4540   -8.4120 C.2     1  UNL1        0.3250
     13  O         19.5410  -23.7110   -7.7180 O.2     1  UNL1       -0.2470
     14  C         17.1590  -24.6850   -6.7960 C.3     1  UNL1        0.1690
     15  C         16.7900  -23.8350   -5.6100 C.2     1  UNL1       -0.0020
     16  C         17.7800  -23.2000   -4.8490 C.2     1  UNL1        0.0120
     17  C         17.4350  -22.3980   -3.7580 C.2     1  UNL1        0.0010
     18  C         16.0930  -22.2140   -3.4240 C.2     1  UNL1        0.0030
     19  C         15.0970  -22.8410   -4.1710 C.2     1  UNL1        0.0430
     20  C         15.4520  -23.6450   -5.2520 C.2     1  UNL1        0.1240
     21  F         14.4790  -24.2350   -5.9620 F       1  UNL1       -0.2050
     22  C         23.5700  -21.8680  -12.4820 C.2     1  UNL1        0.2560
     23  N         23.4050  -21.2730  -13.7200 N.am    1  UNL1       -0.3230
     24  H         22.4580  -21.1510  -14.0490 H       1  UNL1        0.1690
     25  O         24.6280  -22.2230  -11.9730 O.2     1  UNL1       -0.2670
     26  C         24.4140  -20.8600  -14.6160 C.2     1  UNL1        0.0350
     27  C         24.5590  -21.6020  -15.7950 C.2     1  UNL1        0.0290
     28  C         25.5100  -21.2400  -16.7500 C.2     1  UNL1        0.0030
     29  C         26.3310  -20.1380  -16.5320 C.2     1  UNL1        0.0100
     30  C         26.2220  -19.3930  -15.3500 C.2     1  UNL1       -0.0280
     31  C         25.2490  -19.7600  -14.4030 C.2     1  UNL1        0.0390
     32  C         27.1120  -18.1970  -15.0930 C.3     1  UNL1        0.1470
     33  C         26.6970  -16.9520  -15.8670 C.3     1  UNL1        0.0440
     34  O         27.0990  -17.8960  -13.6980 O.3     1  UNL1       -0.3910
     35  H         27.2060  -16.9320  -13.6190 H       1  UNL1        0.2100
@<TRIPOS>BOND
     1    28    29    2
     2    28    27    1
     3    29    30    1
     4    33    32    1
     5    27    26    2
     6    30    32    1
     7    30    31    2
     8    32    34    1
     9    26    31    1
    10    26    23    1
    11    24    23    1
    12    23    22   am
    13    34    35    1
    14    22    25    2
    15    22     1    1
    16     2     1    2
    17     2     3    1
    18     1     6    1
    19     3     4    2
    20     6     5    2
    21     4     5    1
    22     4     7    1
    23     8     7    1
    24     8     9    1
    25     7    12   am
    26     9    10    1
    27    10    11    1
    28    12    11   am
    29    12    13    2
    30    11    14    1
    31    14    15    1
    32    21    20    1
    33    15    20    2
    34    15    16    1
    35    20    19    1
    36    16    17    2
    37    19    18    2
    38    17    18    1
