@<TRIPOS>MOLECULE
34050_out_ligand_01.pdbqt
 33 36 0 0 0
SMALL
GASTEIGER

@<TRIPOS>ATOM
      1  C         19.1950  -22.8920  -10.0380 C.2     1  UNL1       -0.0040
      2  C         19.2470  -21.7520  -11.0460 C.2     1  UNL1        0.0580
      3  C         17.9650  -21.0200  -11.3890 C.3     1  UNL1        0.0720
      4  N         20.3200  -21.3310  -11.6510 N.2     1  UNL1       -0.0650
      5  C         21.4880  -21.9560  -11.3420 C.cat   1  UNL1        0.7520
      6  N         22.7010  -21.6940  -11.7790 N.2     1  UNL1       -0.0330
      7  C         23.4650  -22.6230  -11.1410 C.2     1  UNL1        0.2270
      8  N         22.8170  -23.4510  -10.3300 N.pl3   1  UNL1       -0.1240
      9  N         21.5390  -23.0130  -10.4300 N.pl3   1  UNL1       -0.0610
     10  C         20.3910  -23.4730   -9.7680 C.3     1  UNL1        0.0590
     11  C         20.6030  -24.5980   -8.7910 C.3     1  UNL1        0.0720
     12  S         25.1880  -22.7340  -11.3510 S.3     1  UNL1       -0.0790
     13  C         25.6840  -21.0790  -10.8080 C.3     1  UNL1        0.1850
     14  C         26.0780  -20.2180  -12.0020 C.2     1  UNL1        0.2310
     15  O         26.7680  -19.2120  -11.8440 O.2     1  UNL1       -0.2720
     16  N         25.5930  -20.7060  -13.2090 N.am    1  UNL1       -0.3260
     17  H         24.9590  -21.4950  -13.1390 H       1  UNL1        0.1690
     18  C         25.7540  -20.1540  -14.5050 C.2     1  UNL1        0.0410
     19  C         26.3790  -18.9210  -14.7130 C.2     1  UNL1        0.0300
     20  C         26.4900  -18.3780  -15.9920 C.2     1  UNL1        0.0030
     21  C         25.9770  -19.0620  -17.0880 C.2     1  UNL1        0.0070
     22  C         25.3500  -20.3050  -16.9240 C.2     1  UNL1       -0.0540
     23  C         24.8350  -21.0050  -18.1530 C.3     1  UNL1        0.0490
     24  C         25.2520  -20.8720  -15.6250 C.2     1  UNL1       -0.0290
     25  C         24.6350  -22.2370  -15.4380 C.3     1  UNL1        0.0510
     26  C         17.8770  -23.2810   -9.4100 C.3     1  UNL1        0.0810
     27  C         17.8320  -23.1310   -7.9020 C.2     1  UNL1       -0.0540
     28  C         18.3540  -21.9990   -7.2590 C.2     1  UNL1        0.0080
     29  C         18.3230  -21.8930   -5.8660 C.2     1  UNL1        0.0070
     30  C         17.7790  -22.9190   -5.0870 C.2     1  UNL1       -0.0620
     31  C         17.7720  -22.7980   -3.5920 C.3     1  UNL1        0.0480
     32  C         17.2750  -24.0590   -5.7210 C.2     1  UNL1        0.0070
     33  C         17.3040  -24.1650   -7.1140 C.2     1  UNL1        0.0080
@<TRIPOS>BOND
     1    23    22    1
     2    21    22    2
     3    21    20    1
     4    22    24    1
     5    20    19    2
     6    24    25    1
     7    24    18    2
     8    19    18    1
     9    18    16    1
    10    16    17    1
    11    16    14   am
    12    14    15    2
    13    14    13    1
    14     6     5    1
    15     6     7    2
    16     4     5    2
    17     4     2    1
    18     3     2    1
    19    12     7    1
    20    12    13    1
    21     5     9    1
    22     7     8    1
    23     2     1    2
    24     9     8    1
    25     9    10    1
    26     1    10    1
    27     1    26    1
    28    10    11    1
    29    26    27    1
    30    27    28    2
    31    27    33    1
    32    28    29    1
    33    33    32    2
    34    29    30    2
    35    32    30    1
    36    30    31    1
