@<TRIPOS>MOLECULE
34062_out_ligand_01.pdbqt
 38 41 0 0 0
SMALL
GASTEIGER

@<TRIPOS>ATOM
      1  C         17.4100  -22.8140   -9.7170 C.2     1  UNL1        0.0810
      2  C         16.9960  -21.8100  -10.5950 C.2     1  UNL1        0.0270
      3  C         17.9430  -21.1130  -11.3510 C.2     1  UNL1        0.0320
      4  C         19.3020  -21.4050  -11.2220 C.2     1  UNL1        0.0460
      5  N         20.2630  -20.6910  -11.9460 N.pl3   1  UNL1       -0.3640
      6  C         21.6000  -20.9290  -11.7630 C.2     1  UNL1        0.1090
      7  C         22.1180  -21.8690  -10.9550 C.2     1  UNL1        0.0980
      8  C         21.1570  -22.7100  -10.1830 C.2     1  UNL1        0.2010
      9  O         21.5420  -23.5840   -9.4030 O.2     1  UNL1       -0.2860
     10  C         19.7030  -22.4290  -10.3420 C.2     1  UNL1        0.0430
     11  C         18.7610  -23.1420   -9.5900 C.2     1  UNL1        0.0430
     12  H         19.9810  -19.9270  -12.5520 H       1  UNL1        0.1650
     13  S         16.2020  -23.6810   -8.7440 S.O2    1  UNL1        0.2630
     14  O         16.9130  -24.5980   -7.8770 O.2     1  UNL1       -0.2000
     15  O         15.1520  -24.1420   -9.6220 O.2     1  UNL1       -0.2000
     16  N         15.5870  -22.4590   -7.7390 N.pl3   1  UNL1       -0.2810
     17  H         15.7840  -21.5440   -8.1440 H       1  UNL1        0.1790
     18  C         15.7770  -22.6120   -6.3360 C.2     1  UNL1        0.0430
     19  C         14.8300  -23.2860   -5.5660 C.2     1  UNL1        0.0300
     20  C         14.9890  -23.3610   -4.1810 C.2     1  UNL1        0.0040
     21  C         16.1030  -22.7770   -3.5710 C.2     1  UNL1        0.0180
     22  C         17.0580  -22.1140   -4.3450 C.2     1  UNL1        0.0020
     23  C         16.8940  -22.0390   -5.7350 C.2     1  UNL1        0.0480
     24  S         18.4810  -21.3650   -3.5770 S.3     1  UNL1       -0.1340
     25  C         19.2000  -20.5920   -5.0480 C.3     1  UNL1        0.0950
     26  C         23.5990  -21.9930  -10.8690 C.2     1  UNL1        0.2570
     27  O         24.2840  -21.1240  -10.3320 O.2     1  UNL1       -0.2670
     28  N         24.1170  -23.1270  -11.4520 N.am    1  UNL1       -0.3560
     29  H         23.4640  -23.8230  -11.8080 H       1  UNL1        0.1620
     30  C         25.5170  -23.4970  -11.3620 C.3     1  UNL1        0.1270
     31  C         26.3260  -22.8140  -12.4650 C.3     1  UNL1        0.0580
     32  C         25.7010  -22.9740  -13.8280 C.2     1  UNL1       -0.0570
     33  C         25.1560  -21.8710  -14.4970 C.2     1  UNL1        0.0070
     34  C         24.5940  -22.0190  -15.7680 C.2     1  UNL1        0.0070
     35  C         24.5610  -23.2740  -16.3880 C.2     1  UNL1       -0.0620
     36  C         23.9490  -23.4530  -17.7460 C.3     1  UNL1        0.0480
     37  C         25.1090  -24.3740  -15.7210 C.2     1  UNL1        0.0070
     38  C         25.6750  -24.2250  -14.4530 C.2     1  UNL1        0.0070
@<TRIPOS>BOND
     1    36    35    1
     2    35    34    2
     3    35    37    1
     4    34    33    1
     5    37    38    2
     6    33    32    2
     7    38    32    1
     8    32    31    1
     9    12     5    1
    10    31    30    1
    11     5     6    1
    12     5     4    1
    13    29    28    1
    14     6     7    2
    15    28    30    1
    16    28    26   am
    17     3     4    2
    18     3     2    1
    19     4    10    1
    20     7    26    1
    21     7     8    1
    22    26    27    2
    23     2     1    2
    24    10     8    1
    25    10    11    2
    26     8     9    2
    27     1    11    1
    28     1    13    1
    29    15    13    2
    30    13    14    2
    31    13    16    1
    32    17    16    1
    33    16    18    1
    34    18    23    2
    35    18    19    1
    36    23    22    1
    37    19    20    2
    38    25    24    1
    39    22    24    1
    40    22    21    2
    41    20    21    1
