@<TRIPOS>MOLECULE
34073_out_ligand_01.pdbqt
 38 42 0 0 0
SMALL
GASTEIGER

@<TRIPOS>ATOM
      1  C         20.1970  -21.5330  -11.7640 C.2     1  UNL1        0.0320
      2  C         19.7240  -22.7530  -11.2730 C.2     1  UNL1        0.0170
      3  C         18.4400  -22.8400  -10.7300 C.2     1  UNL1        0.0090
      4  C         17.6210  -21.7040  -10.6560 C.2     1  UNL1       -0.0480
      5  C         18.1070  -20.4800  -11.1410 C.2     1  UNL1        0.0090
      6  C         19.3870  -20.3930  -11.6930 C.2     1  UNL1        0.0170
      7  C         16.2620  -21.7840   -9.9970 C.3     1  UNL1        0.1210
      8  S         15.8890  -23.4730   -9.4340 S.3     1  UNL1       -0.0870
      9  C         16.0550  -23.2480   -7.7250 C.ar    1  UNL1        0.1700
     10  N         15.1920  -22.5850   -6.9890 N.ar    1  UNL1       -0.2220
     11  C         15.6580  -22.6950   -5.7040 C.ar    1  UNL1        0.0890
     12  C         15.1250  -22.1750   -4.5250 C.2     1  UNL1        0.0530
     13  C         16.8200  -23.4600   -5.6580 C.ar    1  UNL1        0.0830
     14  C         15.8210  -22.4790   -3.3670 C.2     1  UNL1        0.1180
     15  N         16.9450  -23.2310   -3.3140 N.2     1  UNL1       -0.2710
     16  C         17.4610  -23.7350   -4.4590 C.2     1  UNL1        0.1480
     17  N         17.0680  -23.7920   -6.9740 N.ar    1  UNL1       -0.3190
     18  C         18.1530  -24.6450   -7.4390 C.3     1  UNL1        0.1700
     19  C         19.4300  -23.8720   -7.6750 C.2     1  UNL1       -0.0400
     20  C         20.4970  -24.4340   -8.3960 C.2     1  UNL1        0.0120
     21  C         21.6690  -23.7060   -8.6140 C.2     1  UNL1        0.0430
     22  C         21.7750  -22.4130   -8.1190 C.2     1  UNL1        0.1160
     23  F         22.8990  -21.7140   -8.3290 F       1  UNL1       -0.2060
     24  C         20.7320  -21.8330   -7.4090 C.2     1  UNL1        0.0430
     25  C         19.5590  -22.5590   -7.1890 C.2     1  UNL1        0.0120
     26  C         21.5780  -21.4770  -12.3120 C.2     1  UNL1        0.2510
     27  N         22.5780  -21.9640  -11.4960 N.am    1  UNL1       -0.3570
     28  H         22.3750  -22.1410  -10.5220 H       1  UNL1        0.1620
     29  O         21.7770  -20.9930  -13.4200 O.2     1  UNL1       -0.2680
     30  C         23.9720  -21.8710  -11.8920 C.3     1  UNL1        0.1270
     31  C         24.4820  -23.1680  -12.5250 C.3     1  UNL1        0.0580
     32  C         24.8560  -22.9720  -13.9720 C.2     1  UNL1       -0.0570
     33  C         24.8280  -21.6900  -14.5370 C.2     1  UNL1        0.0070
     34  C         25.1550  -21.5020  -15.8820 C.2     1  UNL1        0.0070
     35  C         25.5020  -22.5920  -16.6860 C.2     1  UNL1       -0.0620
     36  C         25.8830  -22.3920  -18.1240 C.3     1  UNL1        0.0480
     37  C         25.5370  -23.8710  -16.1200 C.2     1  UNL1        0.0070
     38  C         25.2100  -24.0620  -14.7750 C.2     1  UNL1        0.0070
@<TRIPOS>BOND
     1    36    35    1
     2    35    37    2
     3    35    34    1
     4    37    38    1
     5    34    33    2
     6    38    32    2
     7    33    32    1
     8    32    31    1
     9    29    26    2
    10    31    30    1
    11    26     1    1
    12    26    27   am
    13    30    27    1
    14     1     6    2
    15     1     2    1
    16     6     5    1
    17    27    28    1
    18     2     3    2
    19     5     4    2
    20     3     4    1
    21     4     7    1
    22     7     8    1
    23     8     9    1
    24    21    20    1
    25    21    22    2
    26    20    19    2
    27    23    22    1
    28    22    24    1
    29     9    10   ar
    30     9    17   ar
    31    19    18    1
    32    19    25    1
    33    18    17    1
    34    24    25    2
    35    10    11   ar
    36    17    13   ar
    37    11    13   ar
    38    11    12    1
    39    13    16    1
    40    12    14    2
    41    16    15    2
    42    14    15    1
