@<TRIPOS>MOLECULE
34106_out_ligand_01.pdbqt
 30 33 0 0 0
SMALL
GASTEIGER

@<TRIPOS>ATOM
      1  C         18.4060  -22.1690  -10.4510 C.2     1  UNL1       -0.0400
      2  C         18.6950  -21.4870  -11.6500 C.2     1  UNL1        0.0110
      3  C         19.9920  -21.4590  -12.1740 C.2     1  UNL1        0.0310
      4  C         20.9950  -22.1170  -11.4880 C.2     1  UNL1        0.0430
      5  C         20.7210  -22.7880  -10.2950 C.2     1  UNL1       -0.0290
      6  C         19.4390  -22.8190   -9.7610 C.2     1  UNL1        0.0180
      7  C         21.9570  -23.3930   -9.7140 C.2     1  UNL1        0.0610
      8  C         23.0070  -23.0750  -10.7850 C.2     1  UNL1        0.1370
      9  N         22.3590  -22.2410  -11.8130 N.am    1  UNL1       -0.3130
     10  C         22.9860  -21.6310  -12.8870 C.2     1  UNL1        0.2580
     11  O         22.4800  -20.8480  -13.6860 O.2     1  UNL1       -0.2670
     12  C         17.0010  -22.1580   -9.9010 C.3     1  UNL1        0.1610
     13  N         17.0170  -22.1300   -8.4580 N.am    1  UNL1       -0.3530
     14  C         16.4350  -23.1100   -7.6910 C.2     1  UNL1        0.2540
     15  O         15.9820  -24.1420   -8.1760 O.2     1  UNL1       -0.2680
     16  H         17.2700  -21.2620   -8.0000 H       1  UNL1        0.1630
     17  C         16.3480  -22.8730   -6.2080 C.2     1  UNL1        0.0650
     18  C         15.0990  -23.1400   -5.6160 C.2     1  UNL1        0.0200
     19  C         14.8920  -22.9480   -4.2510 C.2     1  UNL1        0.0010
     20  C         15.9330  -22.4820   -3.4570 C.2     1  UNL1        0.0030
     21  C         17.1810  -22.2140   -4.0270 C.2     1  UNL1        0.0380
     22  C         17.4080  -22.4110   -5.3980 C.2     1  UNL1        0.0840
     23  O         18.6170  -22.1560   -5.9970 O.2     1  UNL1       -0.3550
     24  C         19.3010  -20.9620   -5.6300 C.3     1  UNL1        0.2100
     25  C         24.4180  -21.9380  -13.0800 C.2     1  UNL1        0.0320
     26  C         24.8050  -22.9920  -13.9120 C.2     1  UNL1        0.0170
     27  C         26.1610  -23.2610  -14.0940 C.2     1  UNL1        0.0010
     28  C         27.1200  -22.4740  -13.4530 C.2     1  UNL1        0.0000
     29  C         26.7290  -21.4090  -12.6370 C.2     1  UNL1        0.0010
     30  C         25.3740  -21.1340  -12.4530 C.2     1  UNL1        0.0170
@<TRIPOS>BOND
     1    27    26    1
     2    27    28    2
     3    26    25    2
     4    11    10    2
     5    28    29    1
     6    25    10    1
     7    25    30    1
     8    10     9   am
     9    29    30    2
    10     3     2    1
    11     3     4    2
    12     9     4    1
    13     9     8    1
    14     2     1    2
    15     4     5    1
    16     8     7    2
    17     1    12    1
    18     1     6    1
    19     5     6    2
    20     5     7    1
    21    12    13    1
    22    13    16    1
    23    13    14   am
    24    15    14    2
    25    14    17    1
    26    17    18    2
    27    17    22    1
    28    23    24    1
    29    23    22    1
    30    18    19    1
    31    22    21    2
    32    19    20    2
    33    21    20    1
