@<TRIPOS>MOLECULE
3411_out_ligand_01.pdbqt
 28 32 0 0 0
SMALL
GASTEIGER

@<TRIPOS>ATOM
      1  N         20.8690  -22.3140  -10.7230 N.pl3   1  UNL1       -0.3680
      2  C         19.5530  -21.8850  -10.8530 C.2     1  UNL1        0.0370
      3  C         19.0710  -20.7240  -11.4330 C.2     1  UNL1        0.0300
      4  C         17.6880  -20.5060  -11.4710 C.2     1  UNL1        0.0020
      5  C         16.7980  -21.4490  -10.9400 C.2     1  UNL1        0.0010
      6  C         17.2780  -22.6240  -10.3650 C.2     1  UNL1        0.0090
      7  C         18.6500  -22.8180  -10.3290 C.2     1  UNL1       -0.0300
      8  C         19.4000  -23.9950   -9.7910 C.3     1  UNL1        0.0660
      9  C         20.8400  -23.4220   -9.7330 C.3     1  UNL1        0.0930
     10  C         22.0320  -21.4610  -10.9140 C.3     1  UNL1        0.2040
     11  C         22.6740  -21.5790  -12.2550 C.ar    1  UNL1        0.1520
     12  N         23.8620  -22.2350  -12.4760 N.ar    1  UNL1       -0.2840
     13  C         24.7430  -22.9090  -11.6390 C.2     1  UNL1        0.1170
     14  C         24.0940  -22.1100  -13.8240 C.ar    1  UNL1        0.2260
     15  C         25.8480  -23.4600  -12.1650 C.2     1  UNL1        0.1090
     16  N         26.0990  -23.3530  -13.5180 N.am    1  UNL1       -0.3290
     17  C         25.2710  -22.6900  -14.4270 C.2     1  UNL1        0.2930
     18  H         26.9340  -23.7660  -13.9200 H       1  UNL1        0.1680
     19  O         25.5790  -22.6430  -15.6150 O.2     1  UNL1       -0.2640
     20  N         23.1270  -21.4240  -14.3910 N.ar    1  UNL1       -0.1240
     21  N         22.2320  -21.0860  -13.3980 N.ar    1  UNL1       -0.1320
     22  C         21.3020  -23.0290   -8.3040 C.3     1  UNL1        0.0640
     23  C         20.2570  -22.5670   -7.3110 C.2     1  UNL1       -0.0560
     24  C         20.3810  -21.3420   -6.6430 C.2     1  UNL1        0.0070
     25  C         19.4070  -20.9250   -5.7330 C.2     1  UNL1        0.0010
     26  C         18.3030  -21.7320   -5.4710 C.2     1  UNL1        0.0000
     27  C         18.1710  -22.9570   -6.1190 C.2     1  UNL1        0.0010
     28  C         19.1430  -23.3730   -7.0310 C.2     1  UNL1        0.0070
@<TRIPOS>BOND
     1    19    17    2
     2    17    14    1
     3    17    16   am
     4    20    14   ar
     5    20    21   ar
     6    18    16    1
     7    14    12   ar
     8    16    15    1
     9    21    11   ar
    10    12    11   ar
    11    12    13    1
    12    11    10    1
    13    15    13    2
    14     4     3    1
    15     4     5    2
    16     3     2    2
    17     5     6    1
    18    10     1    1
    19     2     1    1
    20     2     7    1
    21     1     9    1
    22     6     7    2
    23     7     8    1
    24     8     9    1
    25     9    22    1
    26    22    23    1
    27    23    28    2
    28    23    24    1
    29    28    27    1
    30    24    25    2
    31    27    26    2
    32    25    26    1
