@<TRIPOS>MOLECULE
34123_out_ligand_01.pdbqt
 36 40 0 0 0
SMALL
GASTEIGER

@<TRIPOS>ATOM
      1  C         16.6980  -21.6280   -9.9360 C.3     1  UNL1        0.1210
      2  C         18.0210  -21.5940  -10.6600 C.2     1  UNL1       -0.0480
      3  C         18.5560  -20.3810  -11.1240 C.2     1  UNL1        0.0090
      4  C         19.7970  -20.3480  -11.7720 C.2     1  UNL1        0.0170
      5  C         20.5280  -21.5300  -11.9530 C.2     1  UNL1        0.0320
      6  C         19.9850  -22.7460  -11.5180 C.2     1  UNL1        0.0170
      7  C         18.7440  -22.7780  -10.8770 C.2     1  UNL1        0.0090
      8  C         21.8690  -21.5530  -12.6090 C.2     1  UNL1        0.2510
      9  O         22.0440  -20.9680  -13.6740 O.2     1  UNL1       -0.2680
     10  N         22.8470  -22.3000  -11.9840 N.am    1  UNL1       -0.3530
     11  H         22.5750  -22.9470  -11.2580 H       1  UNL1        0.1630
     12  C         24.1250  -22.5470  -12.6160 C.3     1  UNL1        0.1610
     13  C         25.0610  -21.3840  -12.3990 C.2     1  UNL1       -0.0410
     14  C         25.4620  -20.5900  -13.4830 C.2     1  UNL1        0.0090
     15  C         26.3450  -19.5270  -13.2960 C.2     1  UNL1        0.0010
     16  C         26.8360  -19.2440  -12.0220 C.2     1  UNL1        0.0000
     17  C         26.4450  -20.0250  -10.9360 C.2     1  UNL1        0.0010
     18  C         25.5640  -21.0920  -11.1240 C.2     1  UNL1        0.0090
     19  S         16.1320  -23.2930   -9.4910 S.3     1  UNL1       -0.0870
     20  C         16.2110  -23.2080   -7.7640 C.ar    1  UNL1        0.1710
     21  N         15.3290  -22.5750   -7.0210 N.ar    1  UNL1       -0.2210
     22  C         15.7650  -22.7460   -5.7360 C.ar    1  UNL1        0.1050
     23  C         15.2350  -22.3040   -4.5190 C.2     1  UNL1        0.0370
     24  C         16.9320  -23.5020   -5.7010 C.ar    1  UNL1        0.1610
     25  C         15.9220  -22.6620   -3.3570 C.2     1  UNL1        0.0220
     26  C         17.0840  -23.4270   -3.4600 C.2     1  UNL1        0.1190
     27  N         17.6370  -23.8800   -4.6130 N.2     1  UNL1       -0.2410
     28  N         17.2090  -23.7820   -7.0160 N.ar    1  UNL1       -0.3040
     29  C         18.3140  -24.6130   -7.4630 C.3     1  UNL1        0.1740
     30  C         19.5560  -23.8150   -7.7570 C.2     1  UNL1       -0.0010
     31  C         19.7100  -22.5010   -7.2880 C.2     1  UNL1        0.0120
     32  C         20.8800  -21.7820   -7.5590 C.2     1  UNL1        0.0010
     33  C         21.9090  -22.3660   -8.2950 C.2     1  UNL1        0.0030
     34  C         21.7720  -23.6750   -8.7580 C.2     1  UNL1        0.0430
     35  C         20.6050  -24.3850   -8.4830 C.2     1  UNL1        0.1240
     36  F         20.5030  -25.6470   -8.9260 F       1  UNL1       -0.2050
@<TRIPOS>BOND
     1     9     8    2
     2    14    15    1
     3    14    13    2
     4    15    16    2
     5    12    13    1
     6    12    10    1
     7     8    10   am
     8     8     5    1
     9    13    18    1
    10    16    17    1
    11    10    11    1
    12     5     4    2
    13     5     6    1
    14     4     3    1
    15     6     7    2
    16    18    17    2
    17     3     2    2
    18     7     2    1
    19     2     1    1
    20     1    19    1
    21    19    20    1
    22    36    35    1
    23    34    35    1
    24    34    33    2
    25    35    30    2
    26    33    32    1
    27    20    21   ar
    28    20    28   ar
    29    30    29    1
    30    30    31    1
    31    32    31    2
    32    29    28    1
    33    21    22   ar
    34    28    24   ar
    35    22    24   ar
    36    22    23    1
    37    24    27    1
    38    27    26    2
    39    23    25    2
    40    26    25    1
