@<TRIPOS>MOLECULE
3412_out_ligand_01.pdbqt
 40 43 0 0 0
SMALL
GASTEIGER

@<TRIPOS>ATOM
      1  C         17.5970  -23.4040   -8.6830 C.2     1  UNL1        0.0810
      2  C         16.9510  -22.6320   -9.6500 C.2     1  UNL1        0.0270
      3  C         17.7090  -21.9730  -10.6210 C.2     1  UNL1        0.0260
      4  C         19.1070  -22.0750  -10.6220 C.2     1  UNL1        0.0490
      5 CL         19.9450  -21.2500  -11.8910 Cl      1  UNL1       -0.0830
      6  C         19.7550  -22.8470   -9.6450 C.2     1  UNL1        0.0550
      7  C         18.9880  -23.5370   -8.6910 C.2     1  UNL1        0.0440
      8  C         21.2290  -23.0030   -9.5340 C.2     1  UNL1        0.2530
      9  O         21.7020  -24.1190   -9.3480 O.2     1  UNL1       -0.2680
     10  N         21.9800  -21.8530   -9.5850 N.am    1  UNL1       -0.3530
     11  H         21.5370  -20.9950   -9.8890 H       1  UNL1        0.1630
     12  C         23.4230  -21.8930   -9.6410 C.3     1  UNL1        0.1610
     13  C         23.8860  -22.1970  -11.0430 C.2     1  UNL1       -0.0400
     14  C         23.1570  -21.7340  -12.1510 C.2     1  UNL1        0.0100
     15  C         23.5690  -22.0500  -13.4450 C.2     1  UNL1        0.0170
     16  C         24.7060  -22.8440  -13.6370 C.2     1  UNL1        0.0320
     17  C         25.4470  -23.2990  -12.5440 C.2     1  UNL1        0.0170
     18  C         25.0270  -22.9870  -11.2510 C.2     1  UNL1        0.0100
     19  C         25.1620  -23.1640  -15.0040 C.2     1  UNL1        0.2540
     20  O         25.1530  -24.3460  -15.3380 O.2     1  UNL1       -0.2670
     21  N         25.6020  -22.1210  -15.8290 N.am    1  UNL1       -0.3440
     22  C         25.1540  -20.7330  -15.6480 C.3     1  UNL1        0.1260
     23  C         26.0740  -22.4880  -17.1740 C.3     1  UNL1        0.0830
     24  C         26.1930  -19.7310  -16.1410 C.3     1  UNL1        0.0200
     25  C         26.6120  -20.0280  -17.5760 C.3     1  UNL1        0.0040
     26  C         27.0990  -21.4700  -17.6980 C.3     1  UNL1        0.0250
     27  C         24.9110  -22.6850  -18.1530 C.3     1  UNL1        0.0320
     28  S         16.6470  -24.2490   -7.4390 S.O2    1  UNL1        0.2630
     29  O         17.5770  -24.9980   -6.6230 O.2     1  UNL1       -0.2000
     30  O         15.5330  -24.8970   -8.0970 O.2     1  UNL1       -0.2000
     31  N         16.0690  -22.9880   -6.4760 N.pl3   1  UNL1       -0.2790
     32  H         15.0910  -23.1310   -6.2160 H       1  UNL1        0.1790
     33  C         16.9200  -22.4180   -5.4760 C.2     1  UNL1        0.0600
     34  C         16.7340  -22.7220   -4.1200 C.2     1  UNL1        0.0380
     35  C         17.5850  -22.1830   -3.1540 C.2     1  UNL1        0.0220
     36 BR         15.3330  -23.8650   -3.5400 Br      1  UNL1       -0.0490
     37  C         18.6250  -21.3360   -3.5380 C.2     1  UNL1        0.0080
     38  C         18.8230  -21.0210   -4.8870 C.2     1  UNL1       -0.0600
     39  C         19.9090  -20.0670   -5.2920 C.3     1  UNL1        0.0480
     40  C         17.9550  -21.5570   -5.8500 C.2     1  UNL1        0.0380
@<TRIPOS>BOND
     1    27    23    1
     2    26    25    1
     3    26    23    1
     4    25    24    1
     5    23    21    1
     6    24    22    1
     7    21    22    1
     8    21    19   am
     9    20    19    2
    10    19    16    1
    11    16    15    2
    12    16    17    1
    13    15    14    1
    14    17    18    2
    15    14    13    2
    16     5     4    1
    17    18    13    1
    18    13    12    1
    19     4     3    2
    20     4     6    1
    21     3     2    1
    22    11    10    1
    23     2     1    2
    24     6     8    1
    25     6     7    2
    26    12    10    1
    27    10     8   am
    28     8     9    2
    29     7     1    1
    30     1    28    1
    31    30    28    2
    32    28    29    2
    33    28    31    1
    34    31    32    1
    35    31    33    1
    36    40    33    2
    37    40    38    1
    38    33    34    1
    39    39    38    1
    40    38    37    2
    41    34    36    1
    42    34    35    2
    43    37    35    1
