@<TRIPOS>MOLECULE
34150_out_ligand_01.pdbqt
 34 36 0 0 0
SMALL
GASTEIGER

@<TRIPOS>ATOM
      1  C         26.3510  -18.4850  -16.1870 C.3     1  UNL1        0.0500
      2  C         26.0140  -19.4960  -15.1210 C.2     1  UNL1       -0.0340
      3  C         26.4480  -19.1420  -13.7830 C.2     1  UNL1        0.0330
      4  C         26.2490  -19.9550  -12.7320 C.2     1  UNL1        0.0120
      5  C         26.7120  -19.5440  -11.3590 C.3     1  UNL1        0.0680
      6  N         25.6000  -21.1760  -12.9210 N.am    1  UNL1       -0.3080
      7  C         25.0930  -21.5610  -14.1690 C.2     1  UNL1        0.2690
      8  O         24.4320  -22.5910  -14.3130 O.2     1  UNL1       -0.2660
      9  C         25.3590  -20.6560  -15.3270 C.2     1  UNL1        0.1180
     10  C         24.8940  -21.0680  -16.6060 C.1     1  UNL1        0.1050
     11  N         24.5330  -21.3650  -17.6680 N.1     1  UNL1       -0.1910
     12  C         25.3640  -22.1040  -11.8090 C.3     1  UNL1        0.2350
     13  C         24.0500  -21.7920  -11.0840 C.2     1  UNL1        0.2400
     14  O         24.0460  -21.1410  -10.0430 O.2     1  UNL1       -0.2710
     15  N         22.9410  -22.2980  -11.7430 N.am    1  UNL1       -0.3260
     16  H         23.1200  -22.7250  -12.6530 H       1  UNL1        0.1690
     17  C         21.5930  -22.2210  -11.3500 C.2     1  UNL1        0.0340
     18  C         20.6600  -21.3570  -11.9260 C.2     1  UNL1        0.0300
     19  C         19.3350  -21.3320  -11.4710 C.2     1  UNL1        0.0190
     20  C         18.9270  -22.1830  -10.4380 C.2     1  UNL1        0.0320
     21  C         19.8630  -23.0380   -9.8480 C.2     1  UNL1        0.0190
     22  C         21.1860  -23.0570  -10.3020 C.2     1  UNL1        0.0300
     23  C         17.5300  -22.1900   -9.9180 C.2     1  UNL1        0.2510
     24  O         16.6080  -21.7920  -10.6210 O.2     1  UNL1       -0.2680
     25  N         17.3570  -22.6350   -8.6260 N.am    1  UNL1       -0.3530
     26  H         18.1620  -22.6680   -8.0150 H       1  UNL1        0.1630
     27  C         16.0630  -22.5480   -7.9870 C.3     1  UNL1        0.1640
     28  C         16.1770  -22.8280   -6.5160 C.2     1  UNL1       -0.0020
     29  C         17.3300  -23.4340   -5.9930 C.2     1  UNL1        0.0120
     30  C         17.4430  -23.6760   -4.6220 C.2     1  UNL1        0.0010
     31  C         16.4110  -23.3090   -3.7580 C.2     1  UNL1        0.0030
     32  C         15.2650  -22.6990   -4.2670 C.2     1  UNL1        0.0430
     33  C         15.1580  -22.4610   -5.6340 C.2     1  UNL1        0.1240
     34  F         14.0540  -21.8600   -6.1000 F       1  UNL1       -0.2050
@<TRIPOS>BOND
     1    11    10    3
     2    10     9    1
     3     1     2    1
     4     9     2    2
     5     9     7    1
     6     2     3    1
     7     8     7    2
     8     7     6   am
     9     3     4    2
    10     6     4    1
    11     6    12    1
    12     4     5    1
    13    16    15    1
    14    18    19    1
    15    18    17    2
    16    12    13    1
    17    15    17    1
    18    15    13   am
    19    19    20    2
    20    17    22    1
    21    13    14    2
    22    24    23    2
    23    20    23    1
    24    20    21    1
    25    22    21    2
    26    23    25   am
    27    25    26    1
    28    25    27    1
    29    27    28    1
    30    28    29    2
    31    28    33    1
    32    34    33    1
    33    29    30    1
    34    33    32    2
    35    30    31    2
    36    32    31    1
