@<TRIPOS>MOLECULE
34158_out_ligand_01.pdbqt
 27 30 0 0 0
SMALL
GASTEIGER

@<TRIPOS>ATOM
      1  C         17.7440  -22.2650  -10.3650 C.2     1  UNL1       -0.0400
      2  C         18.7700  -23.1240   -9.9590 C.2     1  UNL1        0.0100
      3  C         20.0590  -22.9870  -10.4870 C.2     1  UNL1        0.0160
      4  C         20.3480  -21.9940  -11.4350 C.2     1  UNL1        0.0170
      5  C         19.3120  -21.1420  -11.8440 C.2     1  UNL1        0.0160
      6  C         18.0250  -21.2780  -11.3180 C.2     1  UNL1        0.0100
      7  C         16.3470  -22.4200   -9.8220 C.3     1  UNL1        0.1610
      8  N         16.3290  -22.2090   -8.3930 N.am    1  UNL1       -0.3530
      9  C         16.2650  -23.2510   -7.5000 C.2     1  UNL1        0.2530
     10  O         16.1680  -24.4280   -7.8280 O.2     1  UNL1       -0.2680
     11  H         16.5280  -21.2770   -8.0540 H       1  UNL1        0.1630
     12  C         16.4090  -22.8980   -6.0650 C.2     1  UNL1        0.0490
     13  C         15.2680  -23.0840   -5.2680 C.2     1  UNL1        0.0180
     14  C         15.2990  -22.8000   -3.9020 C.2     1  UNL1        0.0010
     15  C         16.4700  -22.3180   -3.3230 C.2     1  UNL1        0.0010
     16  C         17.6040  -22.1100   -4.1100 C.2     1  UNL1        0.0200
     17  C         17.5790  -22.3930   -5.4820 C.2     1  UNL1        0.0260
     18 BR         19.1580  -21.9950   -6.4600 Br      1  UNL1       -0.0500
     19  C         21.7050  -21.8800  -11.9670 C.2     1  UNL1        0.1820
     20  N         22.8380  -22.3060  -11.4370 N.2     1  UNL1       -0.2010
     21  C         23.7780  -21.9330  -12.3520 C.2     1  UNL1        0.1860
     22  N         25.1120  -22.1450  -12.2700 N.2     1  UNL1       -0.2390
     23  C         23.1780  -21.2880  -13.4190 C.2     1  UNL1        0.1250
     24  C         25.8050  -21.6650  -13.3300 C.2     1  UNL1        0.1190
     25  C         25.2590  -21.0060  -14.4330 C.3     1  UNL1        0.0220
     26  C         23.8820  -20.7950  -14.5050 C.2     1  UNL1        0.0430
     27  O         21.8380  -21.2470  -13.1830 O.2     1  UNL1       -0.2870
@<TRIPOS>BOND
     1    26    25    1
     2    26    23    2
     3    25    24    1
     4    23    27    1
     5    23    21    1
     6    24    22    2
     7    27    19    1
     8    21    22    1
     9    21    20    2
    10    19    20    2
    11    19     4    1
    12     5     4    2
    13     5     6    1
    14     4     3    1
    15     6     1    2
    16     3     2    2
    17     1     2    1
    18     1     7    1
    19     7     8    1
    20     8    11    1
    21     8     9   am
    22    10     9    2
    23     9    12    1
    24    18    17    1
    25    12    17    2
    26    12    13    1
    27    17    16    1
    28    13    14    2
    29    16    15    2
    30    14    15    1
