@<TRIPOS>MOLECULE
34185_out_ligand_01.pdbqt
 33 36 0 0 0
SMALL
GASTEIGER

@<TRIPOS>ATOM
      1  C         20.7900  -23.1150  -10.0640 C.2     1  UNL1        0.1020
      2  C         19.4460  -22.7710   -9.8880 C.2     1  UNL1        0.0480
      3  C         18.8100  -21.8830  -10.7740 C.2     1  UNL1       -0.0280
      4  C         19.5460  -21.3280  -11.8300 C.2     1  UNL1        0.0120
      5  C         20.8840  -21.6640  -12.0120 C.2     1  UNL1        0.0410
      6  C         21.5090  -22.5500  -11.1300 C.2     1  UNL1        0.1120
      7  C         17.3340  -21.5750  -10.6340 C.3     1  UNL1        0.3080
      8  N         16.8670  -21.9890   -9.3170 N.3     1  UNL1        0.0910
      9  H         16.1020  -21.3900   -9.0210 H       1  UNL1        0.3160
     10  C         16.4700  -23.3940   -9.1690 C.3     1  UNL1        0.2170
     11  C         15.2170  -23.7120   -9.9900 C.3     1  UNL1        0.0420
     12  C         16.3190  -23.8090   -7.6890 C.3     1  UNL1        0.0400
     13  C         17.6490  -24.0520   -6.9560 C.3     1  UNL1        0.0400
     14  C         17.9950  -22.9630   -5.9690 C.2     1  UNL1       -0.0580
     15  C         17.4990  -23.0010   -4.6590 C.2     1  UNL1        0.0070
     16  C         17.8570  -22.0150   -3.7380 C.2     1  UNL1        0.0010
     17  C         18.7130  -20.9810   -4.1170 C.2     1  UNL1        0.0000
     18  C         19.1950  -20.9260   -5.4180 C.2     1  UNL1        0.0010
     19  C         18.8360  -21.9110   -6.3380 C.2     1  UNL1        0.0070
     20  O         21.4800  -24.0050   -9.2790 O.2     1  UNL1       -0.3530
     21  C         20.7380  -25.0490   -8.6730 C.3     1  UNL1        0.2100
     22  O         22.8030  -22.9920  -11.3190 O.3     1  UNL1       -0.2730
     23  C         23.8440  -22.1670  -11.2750 C.ar    1  UNL1        0.2860
     24  N         24.2000  -21.3970  -10.2670 N.ar    1  UNL1       -0.1160
     25  N         25.3010  -20.7070  -10.6910 N.ar    1  UNL1        0.0200
     26  N         25.6290  -21.0430  -11.9280 N.ar    1  UNL1        0.0040
     27  N         24.7450  -22.0020  -12.3120 N.ar    1  UNL1       -0.2020
     28  C         24.8350  -22.6190  -13.5880 C.2     1  UNL1        0.0580
     29  C         24.4380  -21.8950  -14.7240 C.2     1  UNL1        0.0310
     30  C         24.5050  -22.4740  -15.9950 C.2     1  UNL1        0.0020
     31  C         24.9630  -23.7800  -16.1420 C.2     1  UNL1        0.0000
     32  C         25.3620  -24.5050  -15.0230 C.2     1  UNL1        0.0020
     33  C         25.3090  -23.9290  -13.7460 C.2     1  UNL1        0.0310
@<TRIPOS>BOND
     1    31    30    2
     2    31    32    1
     3    30    29    1
     4    32    33    2
     5    29    28    2
     6    33    28    1
     7    28    27    1
     8    27    26   ar
     9    27    23   ar
    10     5     4    2
    11     5     6    1
    12    26    25   ar
    13     4     3    1
    14    22    23    1
    15    22     6    1
    16    23    24   ar
    17     6     1    2
    18     3     7    1
    19     3     2    2
    20    25    24   ar
    21     7     8    1
    22     1     2    1
    23     1    20    1
    24    11    10    1
    25     8    10    1
    26     8     9    1
    27    20    21    1
    28    10    12    1
    29    12    13    1
    30    13    14    1
    31    19    14    2
    32    19    18    1
    33    14    15    1
    34    18    17    2
    35    15    16    2
    36    17    16    1
