@<TRIPOS>MOLECULE
34223_out_ligand_01.pdbqt
 31 33 0 0 0
SMALL
GASTEIGER

@<TRIPOS>ATOM
      1  C         18.6450  -22.4390   -9.4790 C.2     1  UNL1        0.0550
      2  C         19.9490  -22.1240   -9.9120 C.2     1  UNL1        0.0480
      3  C         20.1800  -21.4800  -11.1350 C.2     1  UNL1        0.0360
      4  C         19.0880  -21.1590  -11.9370 C.2     1  UNL1        0.0310
      5  C         17.7900  -21.4780  -11.5270 C.2     1  UNL1        0.0270
      6  C         17.5610  -22.1180  -10.3050 C.2     1  UNL1        0.0490
      7 CL         15.9160  -22.4990   -9.9340 Cl      1  UNL1       -0.0830
      8  N         21.5220  -21.2070  -11.4730 N.am    1  UNL1       -0.3230
      9  C         22.5620  -22.1080  -11.5810 C.2     1  UNL1        0.2570
     10  O         22.4860  -23.3190  -11.3960 O.2     1  UNL1       -0.2670
     11  H         21.7140  -20.2350  -11.7170 H       1  UNL1        0.1690
     12  C         23.9110  -21.5570  -11.9000 C.2     1  UNL1        0.0490
     13  C         24.8220  -21.5160  -10.8260 C.2     1  UNL1        0.0180
     14  C         26.1340  -21.0760  -11.0100 C.2     1  UNL1        0.0010
     15  C         26.5660  -20.6830  -12.2720 C.2     1  UNL1        0.0010
     16  C         25.6840  -20.7300  -13.3510 C.2     1  UNL1        0.0190
     17  C         24.3590  -21.1660  -13.1700 C.2     1  UNL1        0.0530
     18  C         23.4890  -21.1670  -14.3530 C.2     1  UNL1        0.1770
     19  O         23.5260  -21.9850  -15.2520 O.2     1  UNL1       -0.6460
     20  O         22.6160  -20.1480  -14.3280 O.3     1  UNL1       -0.7730
     21  H         21.8590  -20.4380  -14.8780 H       1  UNL1        0.1670
     22  C         18.5480  -23.1140   -8.1530 C.2     1  UNL1        0.2530
     23  O         19.1730  -24.1510   -7.9550 O.2     1  UNL1       -0.2680
     24  N         17.7920  -22.4980   -7.1810 N.am    1  UNL1       -0.3520
     25  H         17.3770  -21.5960   -7.3830 H       1  UNL1        0.1630
     26  C         17.7230  -22.9990   -5.8170 C.3     1  UNL1        0.0840
     27  C         18.0110  -21.8860   -4.8070 C.3     1  UNL1        0.0250
     28  C         18.0430  -22.4140   -3.3700 C.3     1  UNL1        0.0020
     29  C         17.1730  -23.6530   -3.1530 C.3     1  UNL1        0.0000
     30  C         15.9580  -23.6580   -4.0710 C.3     1  UNL1        0.0020
     31  C         16.3550  -23.6480   -5.5500 C.3     1  UNL1        0.0250
@<TRIPOS>BOND
     1    19    18    2
     2    21    20    1
     3    18    20    1
     4    18    17    1
     5    16    17    1
     6    16    15    2
     7    17    12    2
     8    15    14    1
     9     4     5    2
    10     4     3    1
    11    12     9    1
    12    12    13    1
    13    11     8    1
    14     9     8   am
    15     9    10    2
    16     5     6    1
    17     8     3    1
    18     3     2    2
    19    14    13    2
    20     6     7    1
    21     6     1    2
    22     2     1    1
    23     1    22    1
    24    22    23    2
    25    22    24   am
    26    25    24    1
    27    24    26    1
    28    26    31    1
    29    26    27    1
    30    31    30    1
    31    27    28    1
    32    30    29    1
    33    28    29    1
