@<TRIPOS>MOLECULE
34265_out_ligand_01.pdbqt
 30 34 0 0 0
SMALL
GASTEIGER

@<TRIPOS>ATOM
      1  C         24.3180  -22.3410  -12.0790 C.2     1  UNL1        0.1440
      2  N         24.1290  -21.8100  -13.3060 N.2     1  UNL1       -0.2230
      3  C         22.9040  -21.3750  -13.6390 C.2     1  UNL1        0.2360
      4  N         21.8030  -21.3960  -12.8870 N.2     1  UNL1       -0.2400
      5  C         21.9760  -21.9170  -11.6450 C.ar    1  UNL1        0.0920
      6  C         23.2130  -22.3910  -11.2160 C.ar    1  UNL1        0.0820
      7  S         23.1230  -22.9830   -9.6090 S.2     1  UNL1       -0.0630
      8  C         21.4720  -22.6070   -9.4860 C.ar    1  UNL1        0.1120
      9  N         20.8240  -22.8600   -8.3350 N.ar    1  UNL1       -0.2390
     10  C         19.5190  -22.5150   -8.3140 C.ar    1  UNL1        0.0750
     11  C         18.8450  -21.9780   -9.4150 C.ar    1  UNL1       -0.0210
     12  C         19.5630  -21.7210  -10.6090 C.ar    1  UNL1       -0.0340
     13  C         20.9450  -22.0460  -10.6410 C.ar    1  UNL1        0.0370
     14  C         18.7960  -21.0820  -11.7460 C.3     1  UNL1        0.0400
     15  C         17.4590  -21.7840  -11.9710 C.3     1  UNL1        0.0050
     16  C         16.6780  -22.0730  -10.6850 C.3     1  UNL1        0.0050
     17  C         17.3770  -21.6200   -9.4010 C.3     1  UNL1        0.0410
     18  N         25.5790  -22.7850  -11.6890 N.pl3   1  UNL1       -0.3730
     19  H         25.7960  -23.7100  -12.0500 H       1  UNL1        0.1610
     20  C         26.6820  -21.8360  -11.7270 C.3     1  UNL1        0.1230
     21  C         26.3210  -20.5440  -10.9950 C.3     1  UNL1        0.0450
     22  C         26.8060  -19.2730  -11.6830 C.3     1  UNL1        0.1650
     23  O         26.6970  -18.1510  -10.8190 O.3     1  UNL1       -0.4010
     24  H         25.9000  -18.3240  -10.2730 H       1  UNL1        0.2090
     25  C         18.8790  -22.7580   -7.0110 C.2     1  UNL1       -0.0070
     26  C         18.8530  -21.7540   -6.0300 C.2     1  UNL1        0.0140
     27  C         18.2500  -21.9760   -4.7910 C.2     1  UNL1        0.0010
     28  C         17.6540  -23.2040   -4.5160 C.2     1  UNL1        0.0000
     29  C         17.6550  -24.2090   -5.4810 C.2     1  UNL1        0.0010
     30  C         18.2600  -23.9850   -6.7210 C.2     1  UNL1        0.0140
@<TRIPOS>BOND
     1     3     2    1
     2     3     4    2
     3     2     1    2
     4     4     5    1
     5     1    18    1
     6     1     6    1
     7    19    18    1
     8    15    14    1
     9    15    16    1
    10    14    12    1
    11    20    18    1
    12    20    21    1
    13    22    21    1
    14    22    23    1
    15     5     6   ar
    16     5    13   ar
    17     6     7   ar
    18    23    24    1
    19    16    17    1
    20    13    12   ar
    21    13     8   ar
    22    12    11   ar
    23     7     8   ar
    24     8     9   ar
    25    11    17    1
    26    11    10   ar
    27     9    10   ar
    28    10    25    1
    29    25    30    2
    30    25    26    1
    31    30    29    1
    32    26    27    2
    33    29    28    2
    34    27    28    1
