@<TRIPOS>MOLECULE
34268_out_ligand_01.pdbqt
 27 29 0 0 0
SMALL
GASTEIGER

@<TRIPOS>ATOM
      1  C         20.0970  -23.2200   -9.2960 C.2     1  UNL1        0.2800
      2  O         20.0930  -24.3800   -8.8970 O.2     1  UNL1       -0.2650
      3  N         19.3350  -22.1990   -8.7450 N.am    1  UNL1       -0.3210
      4  H         19.5340  -21.2680   -9.0830 H       1  UNL1        0.1690
      5  C         18.3920  -22.2860   -7.7000 C.2     1  UNL1        0.0350
      6  C         17.0620  -22.5450   -8.0660 C.2     1  UNL1        0.0310
      7  C         16.0610  -22.6570   -7.0960 C.2     1  UNL1        0.0270
      8  C         16.3930  -22.5150   -5.7500 C.2     1  UNL1        0.0740
      9  C         17.7070  -22.2450   -5.3690 C.2     1  UNL1        0.0270
     10  C         18.7030  -22.1400   -6.3460 C.2     1  UNL1        0.0310
     11  S         15.1270  -22.6440   -4.5140 S.O2    1  UNL1        0.2390
     12  O         14.0950  -21.6790   -4.8110 O.2     1  UNL1       -0.2060
     13  O         14.8440  -24.0430   -4.2930 O.2     1  UNL1       -0.2060
     14  N         15.9270  -22.0580   -3.1530 N.3     1  UNL1       -0.2250
     15  H         15.4290  -21.3030   -2.6850 H       1  UNL1        0.1360
     16  H         16.1130  -22.8400   -2.5210 H       1  UNL1        0.1360
     17  C         20.9490  -22.7820  -10.3950 C.ar    1  UNL1        0.1500
     18  O         22.2130  -23.3090  -10.4420 O.2     1  UNL1       -0.3040
     19  C         22.8500  -22.7670  -11.5080 C.ar    1  UNL1        0.0870
     20  C         24.1630  -23.0370  -11.8820 C.2     1  UNL1        0.0390
     21  C         22.0080  -21.8960  -12.1810 C.ar    1  UNL1        0.0070
     22  C         24.6390  -22.3730  -13.0190 C.2     1  UNL1        0.0090
     23  C         23.8250  -21.4950  -13.7480 C.2     1  UNL1       -0.0610
     24  C         24.3790  -20.7780  -14.9470 C.3     1  UNL1        0.0480
     25  C         22.5050  -21.2420  -13.3260 C.2     1  UNL1        0.0210
     26  C         20.7640  -21.9170  -11.4720 C.ar    1  UNL1       -0.0090
     27  C         19.5320  -21.1800  -11.8560 C.3     1  UNL1        0.0520
@<TRIPOS>BOND
     1    24    23    1
     2    23    25    2
     3    23    22    1
     4    25    21    1
     5    22    20    2
     6    21    19   ar
     7    21    26   ar
     8    20    19    1
     9    27    26    1
    10    19    18   ar
    11    26    17   ar
    12    18    17   ar
    13    17     1    1
    14     1     2    2
    15     1     3   am
    16     4     3    1
    17     3     5    1
    18     6     5    2
    19     6     7    1
    20     5    10    1
    21     7     8    2
    22    10     9    2
    23     8     9    1
    24     8    11    1
    25    12    11    2
    26    11    13    2
    27    11    14    1
    28    14    15    1
    29    14    16    1
