@<TRIPOS>MOLECULE
34271_out_ligand_01.pdbqt
 27 30 0 0 0
SMALL
GASTEIGER

@<TRIPOS>ATOM
      1  C         18.0840  -22.9250   -9.1960 C.3     1  UNL1        0.1690
      2  C         19.5000  -22.4800   -8.8330 C.3     1  UNL1        0.0770
      3  C         20.2300  -22.1670  -10.1070 C.2     1  UNL1       -0.0380
      4  C         21.6150  -22.3460  -10.2180 C.2     1  UNL1        0.0250
      5  C         22.2790  -22.0200  -11.4100 C.2     1  UNL1        0.0320
      6  C         21.5490  -21.5250  -12.4980 C.2     1  UNL1        0.0180
      7  C         20.1690  -21.3310  -12.3830 C.2     1  UNL1        0.0190
      8  C         19.5100  -21.6480  -11.1900 C.2     1  UNL1        0.0450
      9  C         18.0470  -21.3970  -11.0750 C.2     1  UNL1        0.2940
     10  O         17.4520  -20.7370  -11.9150 O.2     1  UNL1       -0.2590
     11  O         17.4240  -21.9090   -9.9830 O.3     1  UNL1       -0.3070
     12  C         23.7480  -22.2470  -11.4790 C.2     1  UNL1        0.2520
     13  O         24.2580  -23.1470  -10.8230 O.2     1  UNL1       -0.2680
     14  N         24.4650  -21.3860  -12.2840 N.am    1  UNL1       -0.3520
     15  H         24.0030  -20.6100  -12.7340 H       1  UNL1        0.1630
     16  C         25.9030  -21.5320  -12.4570 C.3     1  UNL1        0.0840
     17  C         26.6770  -20.7830  -11.3760 C.3     1  UNL1        0.0250
     18  C         26.7170  -19.3330  -11.8550 C.3     1  UNL1        0.0020
     19  C         26.4940  -19.3750  -13.3670 C.3     1  UNL1        0.0020
     20  C         26.3890  -20.8520  -13.7350 C.3     1  UNL1        0.0250
     21  C         17.2730  -23.2070   -7.9470 C.2     1  UNL1       -0.0290
     22  C         17.7600  -24.1070   -6.9880 C.2     1  UNL1        0.0100
     23  C         17.0420  -24.3580   -5.8150 C.2     1  UNL1        0.0070
     24  C         15.8320  -23.7040   -5.5700 C.2     1  UNL1       -0.0620
     25  C         15.0430  -24.0000   -4.3300 C.3     1  UNL1        0.0480
     26  C         15.3370  -22.8120   -6.5280 C.2     1  UNL1        0.0070
     27  C         16.0540  -22.5600   -7.7000 C.2     1  UNL1        0.0100
@<TRIPOS>BOND
     1    20    19    1
     2    20    16    1
     3    19    18    1
     4    15    14    1
     5     6     7    2
     6     6     5    1
     7    16    14    1
     8    16    17    1
     9     7     8    1
    10    14    12   am
    11    10     9    2
    12    18    17    1
    13    12     5    1
    14    12    13    2
    15     5     4    2
    16     8     9    1
    17     8     3    2
    18     9    11    1
    19     4     3    1
    20     3     2    1
    21    11     1    1
    22     1     2    1
    23     1    21    1
    24    21    27    2
    25    21    22    1
    26    27    26    1
    27    22    23    2
    28    26    24    2
    29    23    24    1
    30    24    25    1
