@<TRIPOS>MOLECULE
34273_out_ligand_01.pdbqt
 27 29 0 0 0
SMALL
GASTEIGER

@<TRIPOS>ATOM
      1  N         19.7310  -22.4500   -8.6160 N.am    1  UNL1       -0.3260
      2  C         19.1980  -23.5920   -8.0270 C.2     1  UNL1        0.2350
      3  O         19.7280  -24.7000   -8.0250 O.2     1  UNL1       -0.2720
      4  H         19.1230  -21.6380   -8.6380 H       1  UNL1        0.1690
      5  C         20.9660  -22.3160   -9.2790 C.2     1  UNL1        0.0340
      6  C         22.0970  -22.0930   -8.4810 C.2     1  UNL1        0.0310
      7  C         23.3630  -21.9500   -9.0550 C.2     1  UNL1        0.0270
      8  C         23.4990  -22.0310  -10.4400 C.2     1  UNL1        0.0740
      9  C         22.3870  -22.2740  -11.2490 C.2     1  UNL1        0.0270
     10  C         21.1230  -22.4100  -10.6650 C.2     1  UNL1        0.0310
     11  S         25.0940  -21.8570  -11.1910 S.O2    1  UNL1        0.2390
     12  O         25.6150  -20.5540  -10.8580 O.2     1  UNL1       -0.2060
     13  O         25.0170  -22.3410  -12.5510 O.2     1  UNL1       -0.2060
     14  N         25.9900  -23.0130  -10.3550 N.3     1  UNL1       -0.2250
     15  H         26.9670  -23.0510  -10.6400 H       1  UNL1        0.1360
     16  H         25.8870  -22.8480   -9.3520 H       1  UNL1        0.1360
     17  C         17.8370  -23.3240   -7.3190 C.3     1  UNL1        0.0680
     18  C         17.0870  -24.6900   -7.2950 C.3     1  UNL1        0.0240
     19  C         15.6670  -24.3910   -7.7550 C.3     1  UNL1        0.0020
     20  C         15.8780  -23.3220   -8.8090 C.3     1  UNL1        0.0020
     21  C         16.9130  -22.4040   -8.1710 C.3     1  UNL1        0.0240
     22  C         18.0510  -22.6420   -5.9570 C.2     1  UNL1       -0.0400
     23  C         18.7120  -21.4110   -5.8150 C.2     1  UNL1        0.0080
     24  C         18.8910  -20.8310   -4.5550 C.2     1  UNL1        0.0010
     25  C         18.4270  -21.4750   -3.4120 C.2     1  UNL1        0.0000
     26  C         17.7940  -22.7080   -3.5250 C.2     1  UNL1        0.0010
     27  C         17.6150  -23.2890   -4.7820 C.2     1  UNL1        0.0080
@<TRIPOS>BOND
     1    13    11    2
     2     9    10    1
     3     9     8    2
     4    11    12    2
     5    11     8    1
     6    11    14    1
     7    10     5    2
     8    15    14    1
     9     8     7    1
    10    14    16    1
    11     5     1    1
    12     5     6    1
    13     7     6    2
    14    20    21    1
    15    20    19    1
    16     4     1    1
    17     1     2   am
    18    21    17    1
    19     2     3    2
    20     2    17    1
    21    19    18    1
    22    17    18    1
    23    17    22    1
    24    22    23    2
    25    22    27    1
    26    23    24    1
    27    27    26    2
    28    24    25    2
    29    26    25    1
