@<TRIPOS>MOLECULE
34275_out_ligand_01.pdbqt
 34 36 0 0 0
SMALL
GASTEIGER

@<TRIPOS>ATOM
      1  C         19.6820  -23.0510   -8.4700 C.3     1  UNL1        0.1800
      2  S         18.5740  -24.1760   -7.5370 S.3     1  UNL1       -0.0710
      3  C         18.2250  -23.1880   -6.1140 C.2     1  UNL1        0.1920
      4  N         18.8890  -22.0320   -5.9890 N.2     1  UNL1       -0.1990
      5  C         18.5850  -21.3300   -4.8980 C.2     1  UNL1        0.1660
      6  C         17.6910  -21.7030   -3.9310 C.3     1  UNL1        0.0840
      7  C         17.0770  -22.9170   -4.1410 C.2     1  UNL1        0.0370
      8  C         16.0770  -23.4370   -3.1530 C.3     1  UNL1        0.0700
      9  N         17.3330  -23.6780   -5.2280 N.2     1  UNL1       -0.2280
     10  O         19.2540  -20.1530   -4.7900 O.2     1  UNL1       -0.3450
     11  H         18.7090  -19.7000   -4.1210 H       1  UNL1        0.2190
     12  C         21.0430  -23.7040   -8.7670 C.2     1  UNL1        0.2360
     13  O         21.1360  -24.9120   -8.9960 O.2     1  UNL1       -0.2720
     14  N         22.1530  -22.8920   -8.7210 N.am    1  UNL1       -0.3560
     15  H         22.0060  -21.8860   -8.6530 H       1  UNL1        0.1620
     16  C         23.4630  -23.3440   -9.1200 C.3     1  UNL1        0.1610
     17  C         23.8770  -22.6950  -10.4180 C.2     1  UNL1       -0.0400
     18  C         23.1140  -22.8920  -11.5780 C.2     1  UNL1        0.0100
     19  C         23.4670  -22.2690  -12.7770 C.2     1  UNL1        0.0250
     20  C         24.5940  -21.4460  -12.8120 C.2     1  UNL1        0.0740
     21  C         25.3530  -21.2200  -11.6610 C.2     1  UNL1        0.0250
     22  C         24.9910  -21.8430  -10.4660 C.2     1  UNL1        0.0100
     23  S         25.0640  -20.6500  -14.3240 S.O2    1  UNL1        0.2390
     24  O         25.6260  -19.3560  -14.0130 O.2     1  UNL1       -0.2060
     25  O         25.7430  -21.6140  -15.1580 O.2     1  UNL1       -0.2060
     26  N         23.5600  -20.3290  -15.0140 N.3     1  UNL1       -0.2250
     27  H         23.6620  -20.3560  -16.0320 H       1  UNL1        0.1360
     28  H         23.1570  -19.4470  -14.7010 H       1  UNL1        0.1360
     29  C         19.0240  -22.3240   -9.6340 C.2     1  UNL1       -0.0350
     30  C         19.7520  -21.7780  -10.7030 C.2     1  UNL1        0.0090
     31  C         19.1010  -21.1460  -11.7650 C.2     1  UNL1        0.0010
     32  C         17.7120  -21.0490  -11.7770 C.2     1  UNL1        0.0000
     33  C         16.9720  -21.5830  -10.7280 C.2     1  UNL1        0.0010
     34  C         17.6210  -22.2160   -9.6670 C.2     1  UNL1        0.0090
@<TRIPOS>BOND
     1    27    26    1
     2    25    23    2
     3    26    28    1
     4    26    23    1
     5    23    24    2
     6    23    20    1
     7    20    19    2
     8    20    21    1
     9    19    18    1
    10    32    31    2
    11    32    33    1
    12    31    30    1
    13    21    22    2
    14    18    17    2
    15    33    34    2
    16    30    29    2
    17    22    17    1
    18    17    16    1
    19    34    29    1
    20    29     1    1
    21    16    14    1
    22    13    12    2
    23    12    14   am
    24    12     1    1
    25    14    15    1
    26     1     2    1
    27     2     3    1
    28     3     4    2
    29     3     9    1
    30     4     5    2
    31     9     7    2
    32     5    10    1
    33     5     6    1
    34    10    11    1
    35     7     6    1
    36     7     8    1
