@<TRIPOS>MOLECULE
34316_out_ligand_01.pdbqt
 30 33 0 0 0
SMALL
GASTEIGER

@<TRIPOS>ATOM
      1  C         23.2680  -22.4740  -12.2690 C.2     1  UNL1        0.0570
      2  C         24.5240  -22.4390  -12.8910 C.2     1  UNL1        0.0310
      3  C         24.7780  -21.5580  -13.9410 C.2     1  UNL1        0.0020
      4  C         23.7790  -20.6980  -14.3780 C.2     1  UNL1        0.0010
      5  C         22.5230  -20.7250  -13.7660 C.2     1  UNL1        0.0180
      6  C         22.2410  -21.6120  -12.7090 C.2     1  UNL1        0.0460
      7  C         20.9010  -21.5640  -12.1310 C.2     1  UNL1        0.2080
      8  N         20.1050  -22.5480  -11.7710 N.2     1  UNL1       -0.2020
      9  C         19.0050  -21.8790  -11.2870 C.2     1  UNL1        0.1800
     10  N         19.0920  -20.5420  -11.3510 N.4     1  UNL1       -0.1080
     11  O         20.3580  -20.3310  -11.8920 O.2     1  UNL1       -0.1910
     12  C         17.8040  -22.5830  -10.7560 C.3     1  UNL1        0.2580
     13  O         17.1120  -21.7730   -9.8000 O.2     1  UNL1       -0.3440
     14  C         16.6090  -22.4020   -8.6960 C.2     1  UNL1        0.0690
     15  C         16.2190  -23.7270   -8.9100 C.2     1  UNL1        0.0370
     16  C         15.6870  -24.4900   -7.8690 C.2     1  UNL1        0.0030
     17  C         15.5400  -23.9300   -6.6030 C.2     1  UNL1        0.0000
     18  C         15.9260  -22.6090   -6.3810 C.2     1  UNL1        0.0030
     19  C         16.4590  -21.8440   -7.4240 C.2     1  UNL1        0.0370
     20  N         23.1120  -23.3620  -11.1560 N.pl3   1  UNL1       -0.2800
     21  H         22.3180  -24.0060  -11.1620 H       1  UNL1        0.1790
     22  S         23.4150  -22.7820   -9.5950 S.O2    1  UNL1        0.2630
     23  O         24.3970  -23.6740   -9.0150 O.2     1  UNL1       -0.2000
     24  O         23.6430  -21.3530   -9.6490 O.2     1  UNL1       -0.2000
     25  C         21.8730  -23.0630   -8.7550 C.2     1  UNL1        0.0790
     26  C         21.1630  -24.2460   -8.9830 C.2     1  UNL1        0.0250
     27  C         19.9560  -24.4600   -8.3180 C.2     1  UNL1        0.0020
     28  C         19.4590  -23.4920   -7.4440 C.2     1  UNL1        0.0000
     29  C         20.1600  -22.3030   -7.2360 C.2     1  UNL1        0.0020
     30  C         21.3680  -22.0810   -7.8960 C.2     1  UNL1        0.0250
@<TRIPOS>BOND
     1     4     3    2
     2     4     5    1
     3     3     2    1
     4     5     6    2
     5     2     1    2
     6     6     1    1
     7     6     7    1
     8     1    20    1
     9     7    11    1
    10     7     8    2
    11    11    10    1
    12     8     9    2
    13    10     9    1
    14     9    12    1
    15    21    20    1
    16    20    22    1
    17    12    13    1
    18    13    14    1
    19    24    22    2
    20    22    23    2
    21    22    25    1
    22    26    25    2
    23    26    27    1
    24    15    14    2
    25    15    16    1
    26    25    30    1
    27    14    19    1
    28    27    28    2
    29    30    29    2
    30    16    17    2
    31    28    29    1
    32    19    18    2
    33    17    18    1
