@<TRIPOS>MOLECULE
3433_out_ligand_01.pdbqt
 32 35 0 0 0
SMALL
GASTEIGER

@<TRIPOS>ATOM
      1  C         21.6750  -22.7550   -9.9980 C.2     1  UNL1        0.0350
      2  C         20.3550  -22.7930  -10.4600 C.2     1  UNL1        0.0300
      3  C         19.2770  -22.7180   -9.5680 C.2     1  UNL1        0.0170
      4  C         19.4980  -22.6010   -8.1900 C.2     1  UNL1        0.0100
      5  C         20.8240  -22.5520   -7.7370 C.2     1  UNL1        0.0170
      6  C         21.9010  -22.6310   -8.6290 C.2     1  UNL1        0.0300
      7  N         22.7000  -22.8310  -10.9620 N.am    1  UNL1       -0.3230
      8  C         23.8330  -22.0460  -11.0400 C.2     1  UNL1        0.2560
      9  O         24.2060  -21.1680  -10.2780 O.2     1  UNL1       -0.2670
     10  H         22.6080  -23.5630  -11.6560 H       1  UNL1        0.1690
     11  C         24.6890  -22.3700  -12.2030 C.2     1  UNL1        0.0390
     12  C         24.2220  -21.9970  -13.4680 C.2     1  UNL1        0.0340
     13  C         24.9940  -22.2670  -14.5990 C.2     1  UNL1        0.0320
     14  C         26.2370  -22.8970  -14.4590 C.2     1  UNL1        0.0170
     15  C         26.6950  -23.2780  -13.1930 C.2     1  UNL1        0.0090
     16  C         25.9210  -23.0350  -12.0490 C.2     1  UNL1       -0.0460
     17  C         26.4280  -23.4710  -10.7030 C.3     1  UNL1        0.0490
     18  C         24.4810  -21.8400  -15.9250 C.2     1  UNL1        0.2490
     19  N         24.4370  -20.4970  -16.1760 N.am    1  UNL1       -0.3660
     20  H         24.2200  -20.2410  -17.1320 H       1  UNL1        0.1590
     21  H         24.9860  -19.8400  -15.6390 H       1  UNL1        0.1590
     22  O         24.1360  -22.6540  -16.7700 O.2     1  UNL1       -0.2680
     23  C         18.4040  -22.5190   -7.2170 C.ar    1  UNL1        0.1390
     24  N         18.5340  -22.5380   -5.9010 N.ar    1  UNL1       -0.2280
     25  C         17.2650  -22.4490   -5.3860 C.ar    1  UNL1        0.0860
     26  C         16.8360  -22.4210   -4.0530 C.2     1  UNL1        0.0340
     27  C         16.3240  -22.3840   -6.4040 C.ar    1  UNL1        0.0620
     28  C         15.4640  -22.3280   -3.7900 C.2     1  UNL1        0.0020
     29  C         14.5380  -22.2650   -4.8370 C.2     1  UNL1        0.0020
     30  C         14.9500  -22.2930   -6.1740 C.2     1  UNL1        0.0320
     31  N         17.0700  -22.4360   -7.5520 N.ar    1  UNL1       -0.3380
     32  H         16.7000  -22.4370   -8.4890 H       1  UNL1        0.1670
@<TRIPOS>BOND
     1    20    19    1
     2    22    18    2
     3    19    18   am
     4    19    21    1
     5    18    13    1
     6    13    14    2
     7    13    12    1
     8    14    15    1
     9    12    11    2
    10    15    16    2
    11    11    16    1
    12    11     8    1
    13    16    17    1
    14    10     7    1
    15     8     7   am
    16     8     9    2
    17     7     1    1
    18     2     1    2
    19     2     3    1
    20     1     6    1
    21     3     4    2
    22     6     5    2
    23    32    31    1
    24     4     5    1
    25     4    23    1
    26    31    23   ar
    27    31    27   ar
    28    23    24   ar
    29    27    30    1
    30    27    25   ar
    31    30    29    2
    32    24    25   ar
    33    25    26    1
    34    29    28    1
    35    26    28    2
