@<TRIPOS>MOLECULE
34339_out_ligand_01.pdbqt
 36 40 0 0 0
SMALL
GASTEIGER

@<TRIPOS>ATOM
      1  C         25.0120  -21.4810  -10.8680 C.ar    1  UNL1        0.1960
      2  N         24.4050  -20.9990   -9.8080 N.ar    1  UNL1       -0.1220
      3  N         23.0620  -21.2070   -9.9660 N.ar    1  UNL1       -0.1310
      4  C         22.8680  -21.8330  -11.1150 C.ar    1  UNL1        0.1590
      5  N         24.0900  -22.0140  -11.7500 N.ar    1  UNL1       -0.2740
      6  C         21.5610  -22.3500  -11.6110 C.3     1  UNL1        0.1680
      7  C         20.7740  -21.2400  -12.3350 C.3     1  UNL1        0.0350
      8  C         19.3240  -21.6290  -12.0980 C.3     1  UNL1        0.0230
      9  C         19.3460  -22.0970  -10.6490 C.3     1  UNL1        0.1360
     10  N         20.6340  -22.7830  -10.5440 N.3     1  UNL1       -0.2950
     11  S         21.0460  -23.7220   -9.2410 S.O2    1  UNL1        0.2610
     12  O         22.4380  -23.4760   -8.9290 O.2     1  UNL1       -0.2000
     13  O         20.5790  -25.0660   -9.5070 O.2     1  UNL1       -0.2000
     14  C         20.0530  -23.1040   -7.9050 C.2     1  UNL1        0.0800
     15  C         20.4320  -21.9490   -7.2210 C.2     1  UNL1        0.0260
     16  C         19.6590  -21.4930   -6.1540 C.2     1  UNL1        0.0140
     17  C         18.5220  -22.2010   -5.7360 C.2     1  UNL1       -0.0260
     18  C         17.7350  -21.7530   -4.6640 C.2     1  UNL1        0.0120
     19  C         18.1660  -23.3980   -6.4010 C.2     1  UNL1       -0.0250
     20  C         16.6190  -22.4790   -4.2480 C.2     1  UNL1        0.0010
     21  C         16.2780  -23.6610   -4.8940 C.2     1  UNL1        0.0010
     22  C         17.0460  -24.1180   -5.9640 C.2     1  UNL1        0.0120
     23  C         18.9440  -23.8430   -7.4820 C.2     1  UNL1        0.0370
     24  C         24.3280  -22.5730  -13.0280 C.2     1  UNL1        0.0430
     25  C         24.9460  -23.8230  -13.1360 C.2     1  UNL1        0.0300
     26  C         25.2080  -24.3530  -14.4000 C.2     1  UNL1        0.0020
     27  C         24.8670  -23.6360  -15.5470 C.2     1  UNL1        0.0000
     28  C         24.2550  -22.3880  -15.4370 C.2     1  UNL1        0.0020
     29  C         23.9820  -21.8530  -14.1780 C.2     1  UNL1        0.0300
     30  S         26.7030  -21.2330  -11.1680 S.3     1  UNL1       -0.0810
     31  C         26.7150  -19.5260  -11.7920 C.3     1  UNL1        0.1850
     32  C         26.9260  -19.4560  -13.2930 C.2     1  UNL1        0.2260
     33  N         26.9430  -18.1760  -13.8140 N.am    1  UNL1       -0.3650
     34  C         26.9480  -17.9980  -15.2480 C.3     1  UNL1        0.1490
     35  H         26.4250  -17.4910  -13.2820 H       1  UNL1        0.1610
     36  O         27.0720  -20.4680  -13.9770 O.2     1  UNL1       -0.2730
@<TRIPOS>BOND
     1    27    28    2
     2    27    26    1
     3    28    29    1
     4    34    33    1
     5    26    25    2
     6    29    24    2
     7    36    32    2
     8    33    32   am
     9    33    35    1
    10    32    31    1
    11    25    24    1
    12    24     5    1
    13     7     8    1
    14     7     6    1
    15     8     9    1
    16    31    30    1
    17     5     4   ar
    18     5     1   ar
    19     6     4    1
    20     6    10    1
    21    30     1    1
    22     4     3   ar
    23     1     2   ar
    24     9    10    1
    25    10    11    1
    26     3     2   ar
    27    13    11    2
    28    11    12    2
    29    11    14    1
    30    14    23    2
    31    14    15    1
    32    23    19    1
    33    15    16    2
    34    19    22    1
    35    19    17    2
    36    16    17    1
    37    22    21    2
    38    17    18    1
    39    21    20    1
    40    18    20    2
