@<TRIPOS>MOLECULE
34337_out_ligand_01.pdbqt
 31 33 0 0 0
SMALL
GASTEIGER

@<TRIPOS>ATOM
      1  S         20.3080  -23.2630   -9.4020 S.O2    1  UNL1        0.2460
      2  O         20.6200  -24.6610   -9.1950 O.2     1  UNL1       -0.2060
      3  O         18.9510  -22.8220   -9.6380 O.2     1  UNL1       -0.2060
      4  N         20.9810  -22.4200   -8.0740 N.pl3   1  UNL1       -0.1810
      5  H         21.7370  -23.0050   -7.7100 H       1  UNL1        0.1460
      6  C         20.0290  -22.1220   -7.0430 C.2     1  UNL1        0.0230
      7  C         20.2460  -21.0310   -6.2060 C.2     1  UNL1        0.0240
      8  C         19.3070  -20.7110   -5.2280 C.2     1  UNL1        0.0020
      9  C         18.1420  -21.4720   -5.0990 C.2     1  UNL1        0.0090
     10  C         17.8950  -22.5550   -5.9590 C.2     1  UNL1       -0.0340
     11  C         18.8570  -22.8730   -6.9330 C.2     1  UNL1        0.0330
     12  C         16.6390  -23.4020   -5.8420 C.3     1  UNL1        0.1130
     13  C         16.6800  -24.6490   -6.7310 C.3     1  UNL1        0.0370
     14  N         15.4760  -22.5800   -6.1380 N.am    1  UNL1       -0.3530
     15  C         14.6570  -22.0940   -5.1490 C.2     1  UNL1        0.2140
     16  C         13.4750  -21.3140   -5.6550 C.3     1  UNL1        0.1170
     17  O         14.8500  -22.2780   -3.9520 O.2     1  UNL1       -0.2740
     18  H         15.2090  -22.4680   -7.1060 H       1  UNL1        0.1630
     19  C         21.3390  -22.6420  -10.7280 C.2     1  UNL1        0.0830
     20  C         22.6870  -23.0550  -10.7530 C.2     1  UNL1        0.0550
     21  C         23.5610  -22.6330  -11.7620 C.2     1  UNL1        0.0380
     22  C         23.0360  -21.8010  -12.7600 C.2     1  UNL1        0.0300
     23  C         21.6990  -21.3860  -12.7410 C.2     1  UNL1        0.0100
     24  C         20.8310  -21.7860  -11.7190 C.2     1  UNL1       -0.0390
     25  C         19.4070  -21.3070  -11.7620 C.3     1  UNL1        0.0500
     26  N         24.9300  -23.0260  -11.7930 N.am    1  UNL1       -0.3180
     27  C         25.9270  -22.4470  -10.9220 C.3     1  UNL1        0.1330
     28  C         27.1210  -23.3710  -11.0410 C.3     1  UNL1        0.0290
     29  C         27.0160  -23.8970  -12.4570 C.3     1  UNL1        0.1050
     30  C         25.5280  -23.9070  -12.7100 C.2     1  UNL1        0.2240
     31  O         25.0150  -24.5660  -13.6000 O.2     1  UNL1       -0.2730
@<TRIPOS>BOND
     1    31    30    2
     2    22    23    2
     3    22    21    1
     4    23    24    1
     5    30    29    1
     6    30    26   am
     7    29    28    1
     8    26    21    1
     9    26    27    1
    10    25    24    1
    11    21    20    2
    12    24    19    2
    13    28    27    1
    14    20    19    1
    15    19     1    1
    16     3     1    2
    17     1     2    2
    18     1     4    1
    19     4     5    1
    20     4     6    1
    21    18    14    1
    22     6    11    2
    23     6     7    1
    24    11    10    1
    25    13    12    1
    26     7     8    2
    27    14    12    1
    28    14    15   am
    29    10    12    1
    30    10     9    2
    31    16    15    1
    32     8     9    1
    33    15    17    2
