@<TRIPOS>MOLECULE
34356_out_ligand_01.pdbqt
 31 35 0 0 0
SMALL
GASTEIGER

@<TRIPOS>ATOM
      1  N         23.1800  -22.2650  -11.5940 N.am    1  UNL1       -0.3210
      2  C         21.8200  -22.1710  -11.3200 C.2     1  UNL1        0.2790
      3  O         20.9510  -22.0850  -12.1830 O.2     1  UNL1       -0.2650
      4  H         23.7910  -22.3870  -10.8010 H       1  UNL1        0.1690
      5  C         21.4980  -22.2010   -9.8980 C.2     1  UNL1        0.1430
      6  C         22.2260  -21.9670   -8.7430 C.2     1  UNL1        0.0450
      7  C         21.3420  -22.1590   -7.6500 C.2     1  UNL1        0.0360
      8  C         20.1180  -22.4980   -8.1870 C.2     1  UNL1        0.0620
      9  O         20.2130  -22.5180   -9.5470 O.2     1  UNL1       -0.3090
     10  C         18.7700  -22.8310   -7.6110 C.3     1  UNL1        0.0100
     11  C         18.5420  -22.0500   -6.2900 C.3     1  UNL1        0.0210
     12  C         17.1730  -22.3970   -5.6800 C.3     1  UNL1       -0.0130
     13  C         17.1150  -23.9080   -5.3970 C.3     1  UNL1        0.0090
     14  C         16.0640  -22.0260   -6.6780 C.3     1  UNL1        0.0090
     15  C         17.3060  -24.6990   -6.7010 C.3     1  UNL1       -0.0130
     16  C         16.1960  -24.3140   -7.6940 C.3     1  UNL1        0.0090
     17  C         18.6750  -24.3500   -7.3110 C.3     1  UNL1        0.0210
     18  C         16.2520  -22.8080   -7.9880 C.3     1  UNL1       -0.0130
     19  C         17.6250  -22.4610   -8.5920 C.3     1  UNL1        0.0210
     20  C         23.8130  -22.2460  -12.8550 C.2     1  UNL1        0.0350
     21  C         23.6450  -21.2350  -13.8060 C.2     1  UNL1        0.0310
     22  C         24.3110  -21.2940  -15.0340 C.2     1  UNL1        0.0270
     23  C         25.1430  -22.3780  -15.3190 C.2     1  UNL1        0.0740
     24  C         25.3350  -23.3890  -14.3770 C.2     1  UNL1        0.0270
     25  C         24.6680  -23.3200  -13.1510 C.2     1  UNL1        0.0310
     26  S         25.9790  -22.4430  -16.8810 S.O2    1  UNL1        0.2390
     27  O         26.0810  -21.0990  -17.3980 O.2     1  UNL1       -0.2060
     28  O         27.1210  -23.3190  -16.7530 O.2     1  UNL1       -0.2060
     29  N         24.8680  -23.2870  -17.8240 N.3     1  UNL1       -0.2250
     30  H         24.2040  -22.6250  -18.2270 H       1  UNL1        0.1360
     31  H         25.3020  -23.8770  -18.5330 H       1  UNL1        0.1360
@<TRIPOS>BOND
     1    31    29    1
     2    30    29    1
     3    29    26    1
     4    27    26    2
     5    26    28    2
     6    26    23    1
     7    23    22    2
     8    23    24    1
     9    22    21    1
    10    24    25    2
    11    21    20    2
    12    25    20    1
    13    20     1    1
    14     3     2    2
    15     1     2   am
    16     1     4    1
    17     2     5    1
    18     5     9    1
    19     5     6    2
    20     9     8    1
    21     6     7    1
    22    19    18    1
    23    19    10    1
    24     8     7    2
    25     8    10    1
    26    18    16    1
    27    18    14    1
    28    16    15    1
    29    10    17    1
    30    10    11    1
    31    17    15    1
    32    15    13    1
    33    14    12    1
    34    11    12    1
    35    12    13    1
