@<TRIPOS>MOLECULE
34357_out_ligand_01.pdbqt
 34 38 0 0 0
SMALL
GASTEIGER

@<TRIPOS>ATOM
      1  C         21.0990  -22.4220  -10.9230 C.2     1  UNL1        0.0350
      2  C         22.3230  -22.8590  -10.3940 C.2     1  UNL1        0.0310
      3  C         23.5210  -22.6270  -11.0750 C.2     1  UNL1        0.0270
      4  C         23.4950  -21.9560  -12.2990 C.2     1  UNL1        0.0750
      5  C         22.2890  -21.4980  -12.8290 C.2     1  UNL1        0.0270
      6  C         21.0930  -21.7390  -12.1420 C.2     1  UNL1        0.0310
      7  N         19.9420  -22.7020  -10.1690 N.am    1  UNL1       -0.3230
      8  C         18.6870  -22.1370  -10.2930 C.2     1  UNL1        0.2590
      9  O         18.3600  -21.2810  -11.1100 O.2     1  UNL1       -0.2670
     10  H         20.0480  -23.4110   -9.4490 H       1  UNL1        0.1690
     11  C         17.6480  -22.6230   -9.3450 C.2     1  UNL1        0.0670
     12  C         16.5420  -23.3490   -9.8280 C.2     1  UNL1        0.0200
     13  C         15.5450  -23.8250   -8.9740 C.2     1  UNL1        0.0020
     14  C         15.6140  -23.5920   -7.5970 C.2     1  UNL1        0.0150
     15  C         16.7070  -22.8690   -7.0790 C.ar    1  UNL1        0.0120
     16  C         17.6840  -22.4110   -7.9620 C.ar    1  UNL1        0.1030
     17  C         17.1110  -22.4470   -5.7790 C.ar    1  UNL1        0.0110
     18  O         18.6540  -21.7380   -7.2690 O.2     1  UNL1       -0.3080
     19  C         18.3060  -21.7610   -5.9540 C.ar    1  UNL1        0.0870
     20  C         19.0360  -21.1810   -4.9190 C.2     1  UNL1        0.0380
     21  C         18.5070  -21.3160   -3.6320 C.2     1  UNL1        0.0030
     22  C         17.3090  -21.9990   -3.4100 C.2     1  UNL1        0.0010
     23  C         16.5970  -22.5720   -4.4740 C.2     1  UNL1        0.0150
     24  S         25.0220  -21.6320  -13.1450 S.O2    1  UNL1        0.2480
     25  O         25.8000  -20.6710  -12.3930 O.2     1  UNL1       -0.2050
     26  O         25.5910  -22.9270  -13.4700 O.2     1  UNL1       -0.2050
     27  N         24.5450  -20.9750  -14.5940 N.pl3   1  UNL1       -0.1480
     28  H         23.5630  -20.7280  -14.6230 H       1  UNL1        0.1490
     29  C         24.9830  -21.6040  -15.7540 C.cat   1  UNL1        0.2150
     30  N         26.0770  -21.1510  -16.3640 N.2     1  UNL1       -0.2300
     31  C         26.3510  -21.7080  -17.5570 C.2     1  UNL1        0.1210
     32  C         25.5470  -22.6510  -18.1530 C.2     1  UNL1        0.0390
     33  C         24.4160  -22.9960  -17.4500 C.2     1  UNL1        0.1210
     34  N         24.0960  -22.4700  -16.2530 N.2     1  UNL1       -0.2300
@<TRIPOS>BOND
     1    32    31    2
     2    32    33    1
     3    31    30    1
     4    33    34    2
     5    30    29    2
     6    34    29    1
     7    29    27    1
     8    28    27    1
     9    27    24    1
    10    26    24    2
    11    24    25    2
    12    24     4    1
    13     5     4    2
    14     5     6    1
    15     4     3    1
    16     6     1    2
    17     9     8    2
    18     3     2    2
    19     1     2    1
    20     1     7    1
    21     8     7   am
    22     8    11    1
    23     7    10    1
    24    12    11    2
    25    12    13    1
    26    11    16    1
    27    13    14    2
    28    16    18   ar
    29    16    15   ar
    30    14    15    1
    31    18    19   ar
    32    15    17   ar
    33    19    17   ar
    34    19    20    1
    35    17    23    1
    36    20    21    2
    37    23    22    2
    38    21    22    1
