@<TRIPOS>MOLECULE
34390_out_ligand_01.pdbqt
 33 36 0 0 0
SMALL
GASTEIGER

@<TRIPOS>ATOM
      1  C         23.2370  -22.0000  -11.4050 C.2     1  UNL1        0.0750
      2  C         23.4980  -21.9940  -10.0340 C.2     1  UNL1        0.0270
      3  C         22.4410  -22.1010   -9.1240 C.2     1  UNL1        0.0310
      4  C         21.1250  -22.2250   -9.5770 C.2     1  UNL1        0.0350
      5  C         20.8790  -22.2490  -10.9580 C.2     1  UNL1        0.0310
      6  C         21.9300  -22.1400  -11.8740 C.2     1  UNL1        0.0270
      7  N         20.0070  -22.3350   -8.7300 N.am    1  UNL1       -0.3210
      8  C         19.4220  -23.4790   -8.2160 C.2     1  UNL1        0.2800
      9  O         19.8070  -24.6270   -8.4210 O.2     1  UNL1       -0.2650
     10  H         19.5590  -21.4720   -8.4430 H       1  UNL1        0.1690
     11  C         18.2700  -23.1850   -7.3770 C.ar    1  UNL1        0.1500
     12  O         18.4440  -23.1460   -6.0170 O.2     1  UNL1       -0.3040
     13  C         17.2390  -22.8560   -5.4610 C.ar    1  UNL1        0.0870
     14  C         16.9950  -22.7260   -4.0950 C.2     1  UNL1        0.0380
     15  C         16.2750  -22.7040   -6.4470 C.ar    1  UNL1        0.0070
     16  C         15.6810  -22.4230   -3.7220 C.2     1  UNL1        0.0030
     17  C         14.6790  -22.2610   -4.6810 C.2     1  UNL1        0.0010
     18  C         14.9590  -22.3980   -6.0480 C.2     1  UNL1        0.0150
     19  C         16.9430  -22.9170   -7.6920 C.ar    1  UNL1       -0.0090
     20  C         16.3530  -22.8650   -9.0550 C.3     1  UNL1        0.0520
     21  S         24.5730  -21.8910  -12.5690 S.O2    1  UNL1        0.2480
     22  O         25.5960  -21.0070  -12.0510 O.2     1  UNL1       -0.2050
     23  O         24.9110  -23.2550  -12.9300 O.2     1  UNL1       -0.2050
     24  N         23.8730  -21.2260  -13.9210 N.pl3   1  UNL1       -0.1480
     25  H         22.8930  -21.4630  -14.0290 H       1  UNL1        0.1490
     26  C         24.5840  -21.3100  -15.1110 C.cat   1  UNL1        0.2160
     27  N         25.4920  -20.3740  -15.3870 N.2     1  UNL1       -0.2230
     28  C         26.0370  -20.4230  -16.6170 C.2     1  UNL1        0.0360
     29  C         25.6490  -21.3560  -17.5600 C.2     1  UNL1        0.0530
     30  C         27.0910  -19.4080  -16.9430 C.3     1  UNL1        0.0700
     31  C         24.6570  -22.2430  -17.1830 C.2     1  UNL1        0.0360
     32  C         24.1610  -23.2760  -18.1500 C.3     1  UNL1        0.0700
     33  N         24.0930  -22.2180  -15.9580 N.2     1  UNL1       -0.2230
@<TRIPOS>BOND
     1    32    31    1
     2    29    31    1
     3    29    28    2
     4    31    33    2
     5    30    28    1
     6    28    27    1
     7    33    26    1
     8    27    26    2
     9    26    24    1
    10    25    24    1
    11    24    21    1
    12    23    21    2
    13    21    22    2
    14    21     1    1
    15     6     1    2
    16     6     5    1
    17     1     2    1
    18     5     4    2
    19     2     3    2
    20     4     3    1
    21     4     7    1
    22    20    19    1
    23     7    10    1
    24     7     8   am
    25     9     8    2
    26     8    11    1
    27    19    11   ar
    28    19    15   ar
    29    11    12   ar
    30    15    18    1
    31    15    13   ar
    32    18    17    2
    33    12    13   ar
    34    13    14    1
    35    17    16    1
    36    14    16    2
