@<TRIPOS>MOLECULE
34398_out_ligand_01.pdbqt
 28 31 0 0 0
SMALL
GASTEIGER

@<TRIPOS>ATOM
      1  C         22.2490  -23.4210   -8.8160 C.2     1  UNL1       -0.0400
      2  C         21.9580  -22.2590   -8.0900 C.2     1  UNL1        0.0100
      3  C         20.6950  -22.0740   -7.5210 C.2     1  UNL1        0.0160
      4  C         19.6910  -23.0430   -7.6660 C.2     1  UNL1        0.0170
      5  C         19.9870  -24.2040   -8.3950 C.2     1  UNL1        0.0160
      6  C         21.2490  -24.3890   -8.9690 C.2     1  UNL1        0.0100
      7  C         23.6030  -23.6020   -9.4470 C.3     1  UNL1        0.1610
      8  N         23.5870  -23.1820  -10.8300 N.am    1  UNL1       -0.3530
      9  C         24.0590  -21.9460  -11.1870 C.2     1  UNL1        0.2410
     10  O         24.4950  -21.1250  -10.3930 O.2     1  UNL1       -0.2690
     11  H         23.3130  -23.8560  -11.5320 H       1  UNL1        0.1630
     12  C         23.9910  -21.7010  -12.6500 C.2     1  UNL1        0.0750
     13  C         24.6750  -22.4980  -13.4850 C.2     1  UNL1        0.0170
     14  C         24.7140  -22.3150  -14.9420 C.2     1  UNL1       -0.0360
     15  C         24.8080  -21.0130  -15.4530 C.2     1  UNL1        0.0110
     16  C         24.8670  -20.7930  -16.8320 C.2     1  UNL1        0.0010
     17  C         24.8430  -21.8730  -17.7120 C.2     1  UNL1        0.0000
     18  C         24.7660  -23.1740  -17.2150 C.2     1  UNL1        0.0010
     19  C         24.7060  -23.3960  -15.8360 C.2     1  UNL1        0.0110
     20  C         18.3800  -22.8180   -7.0590 C.2     1  UNL1        0.1820
     21  N         17.2170  -22.6180   -7.6590 N.2     1  UNL1       -0.2010
     22  C         16.3450  -22.4790   -6.6180 C.2     1  UNL1        0.1860
     23  N         15.0150  -22.2540   -6.7090 N.2     1  UNL1       -0.2390
     24  C         17.0140  -22.5980   -5.4110 C.2     1  UNL1        0.1250
     25  C         14.3970  -22.1540   -5.5060 C.2     1  UNL1        0.1190
     26  C         15.0150  -22.2640   -4.2580 C.3     1  UNL1        0.0220
     27  C         16.3880  -22.4980   -4.1810 C.2     1  UNL1        0.0430
     28  O         18.3300  -22.8180   -5.6830 O.2     1  UNL1       -0.2870
@<TRIPOS>BOND
     1    17    18    2
     2    17    16    1
     3    18    19    1
     4    16    15    2
     5    19    14    2
     6    15    14    1
     7    14    13    1
     8    13    12    2
     9    12     9    1
    10    11     8    1
    11     9     8   am
    12     9    10    2
    13     8     7    1
    14     7     1    1
    15     6     1    2
    16     6     5    1
    17     1     2    1
    18     5     4    2
    19     2     3    2
    20     4     3    1
    21     4    20    1
    22    21    20    2
    23    21    22    2
    24    20    28    1
    25    23    22    1
    26    23    25    2
    27    22    24    1
    28    28    24    1
    29    25    26    1
    30    24    27    2
    31    26    27    1
