@<TRIPOS>MOLECULE
343_out_ligand_01.pdbqt
 42 45 0 0 0
SMALL
GASTEIGER

@<TRIPOS>ATOM
      1  C         20.5960  -23.1070  -10.2520 C.2     1  UNL1        0.2560
      2  O         20.8720  -24.2740  -10.0030 O.2     1  UNL1       -0.2670
      3  N         21.4420  -22.1030  -10.6780 N.am    1  UNL1       -0.3230
      4  H         21.0090  -21.2190  -10.9170 H       1  UNL1        0.1690
      5  C         19.1720  -22.6960  -10.1500 C.2     1  UNL1        0.0390
      6  C         18.5910  -21.7400  -11.0060 C.2     1  UNL1       -0.0460
      7  C         17.2270  -21.4390  -10.8470 C.2     1  UNL1        0.0090
      8  C         19.3720  -21.0290  -12.0760 C.3     1  UNL1        0.0490
      9  C         16.4750  -22.0340   -9.8310 C.2     1  UNL1        0.0260
     10  C         17.0870  -22.9380   -8.9600 C.2     1  UNL1        0.0800
     11  C         18.4270  -23.2880   -9.1230 C.2     1  UNL1        0.0420
     12  S         16.1610  -23.6630   -7.6260 S.O2    1  UNL1        0.2630
     13  O         15.6100  -24.9090   -8.1220 O.2     1  UNL1       -0.2000
     14  O         15.3090  -22.6390   -7.0600 O.2     1  UNL1       -0.2000
     15  N         17.3640  -24.0790   -6.5140 N.pl3   1  UNL1       -0.2810
     16  H         18.1210  -24.6030   -6.9510 H       1  UNL1        0.1790
     17  C         17.7120  -23.1480   -5.4940 C.2     1  UNL1        0.0430
     18  C         17.3590  -23.4300   -4.1740 C.2     1  UNL1        0.0300
     19  C         17.7360  -22.5550   -3.1530 C.2     1  UNL1        0.0030
     20  C         18.4600  -21.4010   -3.4530 C.2     1  UNL1        0.0070
     21  C         18.8010  -21.1010   -4.7780 C.2     1  UNL1       -0.0600
     22  C         19.6010  -19.8730   -5.0980 C.3     1  UNL1        0.0480
     23  C         18.4310  -21.9910   -5.7950 C.2     1  UNL1        0.0370
     24  C         22.8350  -22.1830  -10.8720 C.2     1  UNL1        0.0360
     25  C         23.6870  -22.9560  -10.0890 C.2     1  UNL1        0.0300
     26  C         25.0630  -22.9720  -10.3430 C.2     1  UNL1        0.0100
     27  C         25.6300  -22.2270  -11.3910 C.2     1  UNL1       -0.0390
     28  C         27.1200  -22.2820  -11.5650 C.3     1  UNL1        0.0500
     29  C         24.7640  -21.4620  -12.1900 C.2     1  UNL1        0.0870
     30  C         23.3820  -21.4310  -11.9150 C.2     1  UNL1        0.0550
     31  S         25.3070  -20.4350  -13.5510 S.O2    1  UNL1        0.2630
     32  O         26.2200  -19.4180  -13.0760 O.2     1  UNL1       -0.2000
     33  O         24.1160  -20.0650  -14.2940 O.2     1  UNL1       -0.2000
     34  N         26.1470  -21.5130  -14.5470 N.pl3   1  UNL1       -0.2790
     35  H         27.1250  -21.2360  -14.6530 H       1  UNL1        0.1790
     36  C         25.5080  -22.0440  -15.7130 C.2     1  UNL1        0.0640
     37  C         25.4080  -21.2610  -16.8660 C.2     1  UNL1        0.0320
     38  C         24.8090  -21.7800  -18.0160 C.2     1  UNL1        0.0020
     39  C         24.3020  -23.0800  -18.0170 C.2     1  UNL1        0.0020
     40  C         24.3860  -23.8630  -16.8640 C.2     1  UNL1        0.0260
     41  C         24.9840  -23.3460  -15.7130 C.2     1  UNL1        0.0610
     42 CL         25.0480  -24.3360  -14.2980 Cl      1  UNL1       -0.0820
@<TRIPOS>BOND
     1    39    38    2
     2    39    40    1
     3    38    37    1
     4    37    36    2
     5    40    41    2
     6    41    36    1
     7    41    42    1
     8    36    34    1
     9    35    34    1
    10    34    31    1
    11    33    31    2
    12    31    32    2
    13    31    29    1
    14    29    30    1
    15    29    27    2
    16     8     6    1
    17    30    24    2
    18    28    27    1
    19    27    26    1
    20     6     7    1
    21     6     5    2
    22     4     3    1
    23    24     3    1
    24    24    25    1
    25     7     9    2
    26     3     1   am
    27    26    25    2
    28     1     5    1
    29     1     2    2
    30     5    11    1
    31     9    10    1
    32    11    10    2
    33    10    12    1
    34    13    12    2
    35    12    14    2
    36    12    15    1
    37    16    15    1
    38    15    17    1
    39    23    17    2
    40    23    21    1
    41    17    18    1
    42    22    21    1
    43    21    20    2
    44    18    19    2
    45    20    19    1
