@<TRIPOS>MOLECULE
34414_out_ligand_01.pdbqt
 31 34 0 0 0
SMALL
GASTEIGER

@<TRIPOS>ATOM
      1  C         19.4930  -22.2720  -10.1900 C.2     1  UNL1        0.0320
      2  C         20.0130  -23.1690   -9.2440 C.2     1  UNL1        0.0180
      3  C         19.1660  -23.8160   -8.3420 C.2     1  UNL1        0.0260
      4  C         17.7940  -23.5620   -8.3920 C.2     1  UNL1        0.0750
      5  C         17.2650  -22.6500   -9.3130 C.2     1  UNL1        0.0260
      6  C         18.1170  -22.0010  -10.2110 C.2     1  UNL1        0.0180
      7  C         20.4420  -21.6010  -11.1270 C.2     1  UNL1        0.2560
      8  O         20.1240  -20.5140  -11.5940 O.2     1  UNL1       -0.2670
      9  N         21.6310  -22.2760  -11.3420 N.am    1  UNL1       -0.3230
     10  H         21.8030  -23.0950  -10.7750 H       1  UNL1        0.1690
     11  C         22.6840  -21.8970  -12.2020 C.2     1  UNL1        0.0350
     12  C         22.4960  -21.4080  -13.4980 C.2     1  UNL1        0.0320
     13  C         23.5920  -21.0570  -14.2960 C.2     1  UNL1        0.0380
     14  C         24.8890  -21.1970  -13.7920 C.2     1  UNL1        0.1030
     15  C         25.0940  -21.6880  -12.4980 C.2     1  UNL1        0.0380
     16  C         23.9900  -22.0360  -11.7110 C.2     1  UNL1        0.0320
     17  N         26.0410  -20.8290  -14.6240 N.pl3   1  UNL1       -0.1160
     18  O         26.3420  -21.5870  -15.5570 O.2     1  UNL1       -0.5320
     19  O         26.6450  -19.7830  -14.3450 O.2     1  UNL1       -0.5320
     20  S         16.6870  -24.3640   -7.2460 S.O2    1  UNL1        0.2480
     21  O         15.6030  -24.9480   -8.0100 O.2     1  UNL1       -0.2050
     22  O         17.5210  -25.1700   -6.3790 O.2     1  UNL1       -0.2050
     23  N         16.0690  -23.0240   -6.3800 N.pl3   1  UNL1       -0.1710
     24  C         14.8420  -23.2990   -5.5500 C.3     1  UNL1        0.1180
     25  C         15.2380  -23.1060   -4.0780 C.3     1  UNL1        0.0560
     26  C         16.5310  -22.3730   -4.1880 C.2     1  UNL1       -0.0350
     27  C         17.2660  -21.7840   -3.1720 C.2     1  UNL1        0.0090
     28  C         17.0050  -22.3920   -5.4970 C.2     1  UNL1        0.0310
     29  C         18.4880  -21.1900   -3.4970 C.2     1  UNL1        0.0010
     30  C         18.9570  -21.1970   -4.8190 C.2     1  UNL1        0.0020
     31  C         18.2090  -21.8000   -5.8340 C.2     1  UNL1        0.0250
@<TRIPOS>BOND
     1    18    17    2
     2    17    19    2
     3    17    14    1
     4    13    14    2
     5    13    12    1
     6    14    15    1
     7    12    11    2
     8    15    16    2
     9    11    16    1
    10    11     9    1
    11     8     7    2
    12     9     7   am
    13     9    10    1
    14     7     1    1
    15     6     1    2
    16     6     5    1
    17     1     2    1
    18     5     4    2
    19     2     3    2
    20     4     3    1
    21     4    20    1
    22    21    20    2
    23    20    23    1
    24    20    22    2
    25    23    24    1
    26    23    28    1
    27    31    28    1
    28    31    30    2
    29    24    25    1
    30    28    26    2
    31    30    29    1
    32    26    25    1
    33    26    27    1
    34    29    27    2
