@<TRIPOS>MOLECULE
34415_out_ligand_01.pdbqt
 34 37 0 0 0
SMALL
GASTEIGER

@<TRIPOS>ATOM
      1  C         17.1180  -22.8350   -9.7280 C.2     1  UNL1       -0.0400
      2  C         18.3760  -23.3710   -9.4090 C.2     1  UNL1        0.0100
      3  C         19.5360  -22.8670  -10.0020 C.2     1  UNL1        0.0170
      4  C         19.4510  -21.8070  -10.9130 C.2     1  UNL1        0.0320
      5  C         18.1980  -21.2760  -11.2430 C.2     1  UNL1        0.0170
      6  C         17.0400  -21.7810  -10.6480 C.2     1  UNL1        0.0100
      7  C         15.8760  -23.3850   -9.0690 C.3     1  UNL1        0.1700
      8  N         15.7170  -22.8310   -7.7320 N.3     1  UNL1       -0.3110
      9  H         15.1030  -22.0320   -7.6020 H       1  UNL1        0.1720
     10  S         15.8900  -23.8310   -6.4040 S.O2    1  UNL1        0.2590
     11  O         16.6180  -24.9990   -6.8480 O.2     1  UNL1       -0.2010
     12  O         14.5880  -23.9480   -5.7860 O.2     1  UNL1       -0.2010
     13  C         16.9430  -22.8750   -5.3210 C.2     1  UNL1        0.0860
     14  C         16.7780  -22.8780   -3.9220 C.2     1  UNL1       -0.0390
     15  C         17.6540  -22.0950   -3.1530 C.2     1  UNL1        0.0090
     16  C         15.6940  -23.6390   -3.2120 C.3     1  UNL1        0.0500
     17  C         18.6660  -21.3380   -3.7520 C.2     1  UNL1        0.0070
     18  C         18.8150  -21.3240   -5.1390 C.2     1  UNL1       -0.0600
     19  C         19.9140  -20.5290   -5.7810 C.3     1  UNL1        0.0480
     20  C         17.9540  -22.1040   -5.9200 C.2     1  UNL1        0.0320
     21  C         20.6600  -21.2370  -11.5740 C.2     1  UNL1        0.2560
     22  O         20.6440  -20.0540  -11.8880 O.2     1  UNL1       -0.2670
     23  N         21.7120  -22.1230  -11.7250 N.am    1  UNL1       -0.3230
     24  H         21.6150  -23.0300  -11.2890 H       1  UNL1        0.1690
     25  C         22.9560  -21.8780  -12.3450 C.2     1  UNL1        0.0370
     26  C         24.1810  -21.8960  -11.6720 C.2     1  UNL1        0.0320
     27  C         25.3740  -21.6410  -12.3580 C.2     1  UNL1        0.0420
     28  C         25.3500  -21.3690  -13.7220 C.2     1  UNL1        0.1020
     29  C         24.1270  -21.3180  -14.3960 C.2     1  UNL1        0.1040
     30  O         26.5570  -21.1520  -14.3330 O.2     1  UNL1       -0.3460
     31  C         22.9400  -21.5850  -13.7150 C.2     1  UNL1        0.0690
     32  O         24.0180  -21.0210  -15.7310 O.2     1  UNL1       -0.3460
     33  C         25.2280  -20.4410  -16.2360 C.3     1  UNL1        0.2020
     34  C         26.4400  -21.2240  -15.7580 C.3     1  UNL1        0.2020
@<TRIPOS>BOND
     1    33    34    1
     2    33    32    1
     3    34    30    1
     4    32    29    1
     5    29    28    2
     6    29    31    1
     7    30    28    1
     8    28    27    1
     9    31    25    2
    10    27    26    2
    11    25    23    1
    12    25    26    1
    13    22    21    2
    14    23    21   am
    15    23    24    1
    16    21     4    1
    17     5     4    2
    18     5     6    1
    19     4     3    1
    20     6     1    2
    21     3     2    2
    22     1     2    1
    23     1     7    1
    24     7     8    1
    25     8     9    1
    26     8    10    1
    27    11    10    2
    28    10    12    2
    29    10    13    1
    30    20    13    2
    31    20    18    1
    32    19    18    1
    33    13    14    1
    34    18    17    2
    35    14    16    1
    36    14    15    2
    37    17    15    1
