@<TRIPOS>MOLECULE
3441_out_ligand_01.pdbqt
 35 38 0 0 0
SMALL
GASTEIGER

@<TRIPOS>ATOM
      1  O         16.4710  -21.9210  -10.1960 O.2     1  UNL1       -0.2680
      2  C         17.3300  -22.7000   -9.7980 C.2     1  UNL1        0.2510
      3  N         17.0760  -23.7180   -8.9010 N.am    1  UNL1       -0.3570
      4  H         17.8530  -24.1860   -8.4540 H       1  UNL1        0.1620
      5  C         18.7420  -22.5540  -10.2460 C.2     1  UNL1        0.0320
      6  C         19.7140  -23.3830   -9.6780 C.2     1  UNL1        0.0190
      7  C         21.0540  -23.2780  -10.0710 C.2     1  UNL1        0.0300
      8  C         21.4430  -22.3360  -11.0250 C.2     1  UNL1        0.0350
      9  C         20.4660  -21.4930  -11.5770 C.2     1  UNL1        0.0300
     10  C         19.1240  -21.5980  -11.1910 C.2     1  UNL1        0.0190
     11  N         22.7690  -22.1570  -11.4740 N.am    1  UNL1       -0.3210
     12  C         23.8350  -21.5980  -10.7810 C.2     1  UNL1        0.2800
     13  O         23.7690  -21.1940   -9.6240 O.2     1  UNL1       -0.2650
     14  H         22.9610  -22.4980  -12.4040 H       1  UNL1        0.1690
     15  C         25.0750  -21.5360  -11.5500 C.2     1  UNL1        0.1440
     16  C         26.2340  -20.7830  -11.4450 C.2     1  UNL1        0.0460
     17  C         27.0890  -21.1880  -12.5010 C.2     1  UNL1        0.0480
     18  C         26.4100  -22.1640  -13.1900 C.2     1  UNL1        0.1220
     19 BR         27.0630  -23.0880  -14.7180 Br      1  UNL1       -0.0230
     20  O         25.1970  -22.3810  -12.6240 O.2     1  UNL1       -0.2980
     21  C         15.7510  -23.9070   -8.3360 C.3     1  UNL1        0.1270
     22  C         15.6050  -23.1900   -6.9960 C.3     1  UNL1        0.0730
     23  C         16.6490  -23.5970   -5.9460 C.3     1  UNL1        0.1690
     24  C         15.9310  -23.6650   -4.5530 C.2     1  UNL1        0.2610
     25  O         15.0610  -24.4540   -4.2200 O.2     1  UNL1       -0.2690
     26  N         16.4730  -22.6700   -3.7500 N.am    1  UNL1       -0.3240
     27  C         17.5240  -22.0310   -4.3890 C.2     1  UNL1        0.0440
     28  H         16.1930  -22.5290   -2.7920 H       1  UNL1        0.1690
     29  C         18.3360  -21.0490   -3.8610 C.2     1  UNL1        0.0300
     30  C         17.7010  -22.5490   -5.6740 C.2     1  UNL1        0.0120
     31  C         19.3800  -20.5810   -4.6600 C.2     1  UNL1        0.0020
     32  C         19.5910  -21.1100   -5.9460 C.2     1  UNL1        0.0010
     33  C         18.7540  -22.1070   -6.4580 C.2     1  UNL1        0.0130
     34  O         17.2660  -24.8270   -6.2820 O.3     1  UNL1       -0.3750
     35  H         18.1460  -24.8150   -5.8600 H       1  UNL1        0.2110
@<TRIPOS>BOND
     1    19    18    1
     2    18    20    1
     3    18    17    2
     4    20    15    1
     5    17    16    1
     6    14    11    1
     7     9    10    1
     8     9     8    2
     9    15    16    2
    10    15    12    1
    11    11     8    1
    12    11    12   am
    13    10     5    2
    14     8     7    1
    15    12    13    2
    16     5     2    1
    17     5     6    1
    18     1     2    2
    19     7     6    2
    20     2     3   am
    21     3     4    1
    22     3    21    1
    23    21    22    1
    24    22    23    1
    25    33    32    2
    26    33    30    1
    27    34    23    1
    28    34    35    1
    29    23    30    1
    30    23    24    1
    31    32    31    1
    32    30    27    2
    33    31    29    2
    34    24    25    2
    35    24    26   am
    36    27    29    1
    37    27    26    1
    38    26    28    1
