@<TRIPOS>MOLECULE
34433_out_ligand_01.pdbqt
 34 37 0 0 0
SMALL
GASTEIGER

@<TRIPOS>ATOM
      1  C         15.2370  -24.1780   -5.8570 C.3     1  UNL1        0.0490
      2  C         15.3240  -22.6410   -5.8090 C.3     1  UNL1        0.1550
      3  C         13.9380  -22.1150   -5.3820 C.3     1  UNL1        0.0490
      4  C         15.6520  -22.0670   -7.2180 C.3     1  UNL1        0.0820
      5  C         17.1100  -22.2200   -7.5450 C.ar    1  UNL1       -0.0160
      6  C         18.0450  -22.3580   -6.5340 C.ar    1  UNL1        0.0300
      7  S         19.6240  -22.4950   -7.1660 S.2     1  UNL1       -0.0720
      8  C         19.0690  -22.4080   -8.7780 C.ar    1  UNL1        0.0980
      9  C         17.7070  -22.2130   -8.8550 C.ar    1  UNL1        0.0860
     10  C         16.9420  -21.9600  -10.0440 C.1     1  UNL1        0.1030
     11  N         16.2340  -21.6900  -10.9250 N.1     1  UNL1       -0.1910
     12  C         17.7350  -22.3910   -5.0440 C.3     1  UNL1        0.1850
     13  C         18.4810  -21.2430   -4.3220 C.3     1  UNL1        0.0540
     14  C         18.1680  -23.7180   -4.3950 C.3     1  UNL1        0.0540
     15  N         16.2860  -22.1650   -4.7820 N.3     1  UNL1        0.1060
     16  H         16.1420  -21.1600   -4.6750 H       1  UNL1        0.3180
     17  N         20.1180  -22.5300   -9.6660 N.am    1  UNL1       -0.3160
     18  C         20.3780  -21.6450  -10.6900 C.2     1  UNL1        0.2560
     19  O         19.6740  -20.6990  -11.0130 O.2     1  UNL1       -0.2670
     20  H         20.5750  -23.4320   -9.6730 H       1  UNL1        0.1690
     21  C         21.5910  -21.9530  -11.5010 C.2     1  UNL1        0.0320
     22  C         21.7300  -21.3440  -12.7550 C.2     1  UNL1        0.0180
     23  C         22.8540  -21.6030  -13.5450 C.2     1  UNL1        0.0160
     24  C         23.8460  -22.4780  -13.0880 C.2     1  UNL1        0.0150
     25  C         23.7290  -23.0610  -11.8200 C.2     1  UNL1        0.0160
     26  C         22.6040  -22.8010  -11.0280 C.2     1  UNL1        0.0180
     27  C         25.0350  -22.7120  -13.9490 C.2     1  UNL1        0.1920
     28  O         26.0750  -23.1160  -13.4380 O.2     1  UNL1       -0.2870
     29  C         24.9900  -22.4740  -15.4130 C.2     1  UNL1        0.0150
     30  C         25.4390  -21.2420  -15.9020 C.2     1  UNL1        0.0150
     31  C         25.4030  -20.9790  -17.2720 C.2     1  UNL1        0.0010
     32  C         24.9070  -21.9400  -18.1530 C.2     1  UNL1        0.0000
     33  C         24.4380  -23.1610  -17.6670 C.2     1  UNL1        0.0010
     34  C         24.4730  -23.4290  -16.2970 C.2     1  UNL1        0.0150
@<TRIPOS>BOND
     1    32    33    2
     2    32    31    1
     3    33    34    1
     4    31    30    2
     5    34    29    2
     6    30    29    1
     7    29    27    1
     8    27    28    2
     9    27    24    1
    10    23    24    2
    11    23    22    1
    12    24    25    1
    13    22    21    2
    14    25    26    2
    15    21    26    1
    16    21    18    1
    17    19    18    2
    18    11    10    3
    19    18    17   am
    20    10     9    1
    21    20    17    1
    22    17     8    1
    23     9     8   ar
    24     9     5   ar
    25     8     7   ar
    26     5     4    1
    27     5     6   ar
    28     4     2    1
    29     7     6   ar
    30     6    12    1
    31     1     2    1
    32     2     3    1
    33     2    15    1
    34    12    15    1
    35    12    14    1
    36    12    13    1
    37    15    16    1
