@<TRIPOS>MOLECULE
34440_out_ligand_01.pdbqt
 31 33 0 0 0
SMALL
GASTEIGER

@<TRIPOS>ATOM
      1  C         19.1710  -22.2270  -10.3610 C.2     1  UNL1        0.0720
      2  C         20.4720  -22.5370   -9.9360 C.2     1  UNL1        0.0450
      3  C         21.5710  -22.1950  -10.7320 C.2     1  UNL1        0.0800
      4  C         21.3930  -21.5160  -11.9410 C.2     1  UNL1        0.0280
      5  C         20.1040  -21.1970  -12.3620 C.2     1  UNL1        0.0450
      6  C         19.0070  -21.5550  -11.5770 C.2     1  UNL1        0.1320
      7  F         17.7850  -21.2310  -12.0270 F       1  UNL1       -0.2050
      8  C         18.0240  -22.6460   -9.4960 C.2     1  UNL1        0.2590
      9  N         18.2280  -22.5920   -8.1290 N.am    1  UNL1       -0.3220
     10  H         19.1350  -22.2570   -7.8290 H       1  UNL1        0.1690
     11  O         16.9920  -22.9970  -10.0590 O.2     1  UNL1       -0.2670
     12  C         17.3250  -22.9350   -7.0880 C.2     1  UNL1        0.0420
     13  C         16.2520  -23.8120   -7.2970 C.2     1  UNL1        0.0300
     14  C         15.3760  -24.1410   -6.2650 C.2     1  UNL1        0.0040
     15  C         15.5600  -23.5970   -5.0020 C.2     1  UNL1        0.0240
     16  C         16.6220  -22.7220   -4.7660 C.2     1  UNL1        0.0420
     17  C         17.5220  -22.3740   -5.7970 C.2     1  UNL1       -0.0130
     18 CL         16.7620  -22.1020   -3.1560 Cl      1  UNL1       -0.0840
     19  C         18.6700  -21.4280   -5.5440 C.3     1  UNL1        0.0520
     20  S         23.2150  -22.5880  -10.1810 S.O2    1  UNL1        0.2590
     21  O         23.1370  -23.6680   -9.2260 O.2     1  UNL1       -0.2010
     22  O         23.8780  -21.3410   -9.8720 O.2     1  UNL1       -0.2010
     23  N         23.9190  -23.1530  -11.5910 N.3     1  UNL1       -0.3100
     24  H         23.3250  -23.7980  -12.1110 H       1  UNL1        0.1720
     25  C         24.8890  -22.3200  -12.3240 C.3     1  UNL1        0.0970
     26  C         24.4010  -22.1170  -13.7700 C.3     1  UNL1        0.0260
     27  C         25.1020  -23.0060  -14.8000 C.3     1  UNL1        0.0020
     28  C         25.4050  -24.3920  -14.2480 C.3     1  UNL1        0.0010
     29  C         26.2980  -24.3430  -13.0070 C.3     1  UNL1        0.0060
     30  C         26.2770  -22.9860  -12.2820 C.3     1  UNL1        0.0050
     31  C         26.8220  -23.1220  -10.8580 C.3     1  UNL1        0.0120
@<TRIPOS>BOND
     1    27    28    1
     2    27    26    1
     3    28    29    1
     4    26    25    1
     5    29    30    1
     6     5     4    2
     7     5     6    1
     8    25    30    1
     9    25    23    1
    10    30    31    1
    11    24    23    1
    12     7     6    1
    13     4     3    1
    14    23    20    1
    15     6     1    2
    16     3    20    1
    17     3     2    2
    18     1     2    1
    19     1     8    1
    20    20    22    2
    21    20    21    2
    22    11     8    2
    23     8     9   am
    24     9    10    1
    25     9    12    1
    26    13    12    2
    27    13    14    1
    28    12    17    1
    29    14    15    2
    30    17    19    1
    31    17    16    2
    32    15    16    1
    33    16    18    1
