@<TRIPOS>MOLECULE
34453_out_ligand_01.pdbqt
 35 38 0 0 0
SMALL
GASTEIGER

@<TRIPOS>ATOM
      1  C         20.1140  -20.9440  -12.4000 C.3     1  UNL1        0.0690
      2  C         21.5230  -21.3450  -12.7010 C.2     1  UNL1        0.0440
      3  N         22.1360  -22.2840  -11.8840 N.2     1  UNL1       -0.2330
      4  C         23.3550  -22.4990  -12.3070 C.2     1  UNL1        0.1590
      5  S         23.8380  -21.6570  -13.7090 S.3     1  UNL1       -0.0670
      6  C         22.3080  -20.8870  -13.7440 C.2     1  UNL1        0.0800
      7  N         24.1030  -23.5700  -11.6760 N.pl3   1  UNL1       -0.1590
      8  H         23.4220  -24.3070  -11.4780 H       1  UNL1        0.1480
      9  S         24.7730  -23.1130  -10.1950 S.O2    1  UNL1        0.2470
     10  O         25.3720  -21.8120  -10.4040 O.2     1  UNL1       -0.2050
     11  O         25.4960  -24.1980   -9.5710 O.2     1  UNL1       -0.2050
     12  C         23.2820  -22.8760   -9.2560 C.2     1  UNL1        0.0740
     13  C         23.0950  -21.6690   -8.5750 C.2     1  UNL1        0.0250
     14  C         21.9280  -21.4720   -7.8370 C.2     1  UNL1        0.0080
     15  C         20.9430  -22.4680   -7.7880 C.2     1  UNL1       -0.0620
     16  C         19.7000  -22.2570   -6.9720 C.3     1  UNL1        0.0480
     17  C         21.1480  -23.6730   -8.4730 C.2     1  UNL1        0.0080
     18  C         22.3120  -23.8790   -9.2130 C.2     1  UNL1        0.0250
     19  C         19.5980  -21.5550  -11.1020 C.3     1  UNL1        0.1090
     20  C         18.0860  -21.5170  -11.0220 C.2     1  UNL1        0.2170
     21  O         17.3910  -20.8690  -11.7970 O.2     1  UNL1       -0.2740
     22  N         17.5780  -22.2160   -9.9490 N.am    1  UNL1       -0.3610
     23  H         18.1630  -22.9290   -9.5330 H       1  UNL1        0.1620
     24  C         16.1500  -22.3400   -9.7230 C.3     1  UNL1        0.1270
     25  C         15.7340  -23.6770   -9.0970 C.3     1  UNL1        0.0600
     26  C         16.2340  -23.8800   -7.6980 C.2     1  UNL1       -0.0290
     27  C         17.2820  -24.7060   -7.3360 C.2     1  UNL1        0.0960
     28  N         17.4610  -24.6180   -5.9840 N.pl3   1  UNL1       -0.3650
     29  C         16.5430  -23.7500   -5.4420 C.2     1  UNL1        0.0420
     30  H         18.1630  -25.1190   -5.4560 H       1  UNL1        0.1650
     31  C         16.3570  -23.3520   -4.1120 C.2     1  UNL1        0.0300
     32  C         15.7440  -23.2860   -6.4900 C.2     1  UNL1       -0.0020
     33  C         15.3190  -22.4540   -3.8430 C.2     1  UNL1        0.0020
     34  C         14.4970  -21.9830   -4.8620 C.2     1  UNL1        0.0010
     35  C         14.6970  -22.3910   -6.1870 C.2     1  UNL1        0.0140
@<TRIPOS>BOND
     1     6     5    1
     2     6     2    2
     3     5     4    1
     4     2     1    1
     5     2     3    1
     6     1    19    1
     7     4     3    2
     8     4     7    1
     9    21    20    2
    10     7     8    1
    11     7     9    1
    12    19    20    1
    13    20    22   am
    14    10     9    2
    15     9    11    2
    16     9    12    1
    17    22    24    1
    18    22    23    1
    19    24    25    1
    20    12    18    2
    21    12    13    1
    22    18    17    1
    23    25    26    1
    24    13    14    2
    25    17    15    2
    26    14    15    1
    27    15    16    1
    28    26    27    2
    29    26    32    1
    30    27    28    1
    31    32    35    1
    32    32    29    2
    33    35    34    2
    34    28    30    1
    35    28    29    1
    36    29    31    1
    37    34    33    1
    38    31    33    2
