@<TRIPOS>MOLECULE
34478_out_ligand_01.pdbqt
 34 37 0 0 0
SMALL
GASTEIGER

@<TRIPOS>ATOM
      1  C         18.1970  -23.5210   -8.2040 C.2     1  UNL1        0.0800
      2  C         19.4600  -23.9520   -7.7820 C.2     1  UNL1        0.0260
      3  C         20.6010  -23.4980   -8.4460 C.2     1  UNL1        0.0180
      4  C         20.4740  -22.6240   -9.5360 C.2     1  UNL1        0.0320
      5  C         19.2040  -22.1910   -9.9450 C.2     1  UNL1        0.0180
      6  C         18.0600  -22.6470   -9.2860 C.2     1  UNL1        0.0260
      7  C         21.6670  -22.1080  -10.2650 C.2     1  UNL1        0.2560
      8  O         22.4430  -21.3800   -9.6610 O.2     1  UNL1       -0.2670
      9  N         21.7480  -22.4920  -11.5920 N.am    1  UNL1       -0.3230
     10  H         20.9490  -22.9860  -11.9720 H       1  UNL1        0.1690
     11  C         22.7760  -22.1870  -12.5090 C.2     1  UNL1        0.0360
     12  C         22.6390  -21.2460  -13.5540 C.2     1  UNL1        0.0300
     13  C         23.6940  -20.9720  -14.4390 C.2     1  UNL1        0.0200
     14  C         24.8720  -21.6570  -14.2460 C.2     1  UNL1        0.0480
     15  C         25.0170  -22.5760  -13.2230 C.2     1  UNL1        0.0500
     16  C         26.1400  -21.6070  -14.9730 C.2     1  UNL1        0.2590
     17  C         23.9930  -22.8640  -12.3390 C.2     1  UNL1        0.0470
     18  C         26.3750  -23.1090  -13.3000 C.2     1  UNL1        0.2590
     19  O         26.8460  -23.9370  -12.5480 O.2     1  UNL1       -0.2670
     20  N         26.9700  -22.4920  -14.3570 N.am    1  UNL1       -0.2890
     21  H         27.9190  -22.6640  -14.6470 H       1  UNL1        0.1720
     22  O         26.3770  -20.9020  -15.9330 O.2     1  UNL1       -0.2670
     23  S         16.7540  -24.1260   -7.3480 S.O2    1  UNL1        0.2650
     24  O         17.2310  -25.1640   -6.4570 O.2     1  UNL1       -0.2000
     25  O         15.7370  -24.4040   -8.3410 O.2     1  UNL1       -0.2000
     26  N         16.2760  -22.7590   -6.4430 N.pl3   1  UNL1       -0.2720
     27  C         14.8280  -22.6100   -6.1220 C.3     1  UNL1        0.1370
     28  C         14.2470  -23.7730   -5.3350 C.3     1  UNL1        0.0280
     29  C         17.2060  -22.2970   -5.4440 C.2     1  UNL1        0.0450
     30  C         18.1420  -21.3290   -5.8180 C.2     1  UNL1        0.0300
     31  C         19.0110  -20.7850   -4.8700 C.2     1  UNL1        0.0020
     32  C         18.9320  -21.1910   -3.5390 C.2     1  UNL1        0.0000
     33  C         17.9790  -22.1330   -3.1540 C.2     1  UNL1        0.0020
     34  C         17.1090  -22.6770   -4.1010 C.2     1  UNL1        0.0300
@<TRIPOS>BOND
     1    22    16    2
     2    16    20   am
     3    16    14    1
     4    21    20    1
     5    13    14    2
     6    13    12    1
     7    20    18   am
     8    14    15    1
     9    12    11    2
    10    18    15    1
    11    18    19    2
    12    15    17    2
    13    11    17    1
    14    11     9    1
    15    10     9    1
    16     9     7   am
    17     7     8    2
    18     7     4    1
    19     5     4    2
    20     5     6    1
    21     4     3    1
    22     6     1    2
    23     3     2    2
    24    25    23    2
    25     1     2    1
    26     1    23    1
    27    23    24    2
    28    23    26    1
    29    26    27    1
    30    26    29    1
    31    27    28    1
    32    30    29    2
    33    30    31    1
    34    29    34    1
    35    31    32    2
    36    34    33    2
    37    32    33    1
