@<TRIPOS>MOLECULE
34472_out_ligand_01.pdbqt
 31 33 0 0 0
SMALL
GASTEIGER

@<TRIPOS>ATOM
      1  C         20.4530  -22.5890  -10.2270 C.2     1  UNL1        0.0340
      2  C         21.1490  -23.5490   -9.4770 C.2     1  UNL1        0.0200
      3  C         20.4780  -24.3230   -8.5250 C.2     1  UNL1        0.0450
      4  C         19.1160  -24.1320   -8.3150 C.2     1  UNL1        0.1390
      5  F         18.5020  -24.8740   -7.3850 F       1  UNL1       -0.2040
      6  C         18.4270  -23.1700   -9.0420 C.2     1  UNL1        0.1180
      7  C         19.0860  -22.3890  -10.0010 C.2     1  UNL1        0.0450
      8  C         21.2140  -21.7780  -11.2210 C.2     1  UNL1        0.2560
      9  N         22.4350  -22.3050  -11.6010 N.am    1  UNL1       -0.3230
     10  H         22.7610  -23.1290  -11.1110 H       1  UNL1        0.1690
     11  O         20.7180  -20.7220  -11.5930 O.2     1  UNL1       -0.2670
     12  C         23.3370  -21.7740  -12.5490 C.2     1  UNL1        0.0370
     13  C         22.9770  -21.3990  -13.8450 C.2     1  UNL1        0.0300
     14  C         23.9320  -20.8830  -14.7330 C.2     1  UNL1        0.0120
     15  C         25.2660  -20.7460  -14.3390 C.2     1  UNL1       -0.0230
     16  C         26.2910  -20.1690  -15.2640 C.3     1  UNL1        0.0510
     17  C         25.6130  -21.1150  -13.0400 C.2     1  UNL1        0.1240
     18  C         24.6690  -21.6280  -12.1520 C.2     1  UNL1        0.0720
     19  F         26.8800  -20.9770  -12.6240 F       1  UNL1       -0.2050
     20  S         16.7070  -22.9440   -8.7490 S.O2    1  UNL1        0.2620
     21  O         16.1370  -24.2380   -8.4490 O.2     1  UNL1       -0.2000
     22  O         16.1810  -22.1220   -9.8180 O.2     1  UNL1       -0.2000
     23  N         16.6780  -22.0430   -7.3470 N.3     1  UNL1       -0.3100
     24  H         16.9760  -21.0730   -7.4390 H       1  UNL1        0.1720
     25  C         16.5760  -22.6770   -6.0330 C.3     1  UNL1        0.0970
     26  C         15.4060  -22.0530   -5.2730 C.3     1  UNL1        0.0260
     27  C         15.1430  -22.7810   -3.9510 C.3     1  UNL1        0.0020
     28  C         16.3900  -23.4460   -3.3670 C.3     1  UNL1        0.0010
     29  C         17.6510  -22.6620   -3.7060 C.3     1  UNL1        0.0060
     30  C         17.8970  -22.5730   -5.2280 C.3     1  UNL1        0.0050
     31  C         18.7320  -21.3210   -5.5240 C.3     1  UNL1        0.0120
@<TRIPOS>BOND
     1    16    15    1
     2    14    15    2
     3    14    13    1
     4    15    17    1
     5    13    12    2
     6    17    19    1
     7    17    18    2
     8    12    18    1
     9    12     9    1
    10     9     8   am
    11     9    10    1
    12    11     8    2
    13     8     1    1
    14     1     7    2
    15     1     2    1
    16     7     6    1
    17    22    20    2
    18     2     3    2
    19     6    20    1
    20     6     4    2
    21    20    21    2
    22    20    23    1
    23     3     4    1
    24     4     5    1
    25    24    23    1
    26    23    25    1
    27    25    26    1
    28    25    30    1
    29    31    30    1
    30    26    27    1
    31    30    29    1
    32    27    28    1
    33    29    28    1
