@<TRIPOS>MOLECULE
34473_out_ligand_01.pdbqt
 32 34 0 0 0
SMALL
GASTEIGER

@<TRIPOS>ATOM
      1  C         18.5040  -22.1980   -9.6660 C.2     1  UNL1        0.0720
      2  C         19.7940  -22.3970   -9.1490 C.2     1  UNL1        0.0450
      3  C         20.9160  -22.1600   -9.9530 C.2     1  UNL1        0.0800
      4  C         20.7740  -21.7150  -11.2690 C.2     1  UNL1        0.0280
      5  C         19.4950  -21.5090  -11.7830 C.2     1  UNL1        0.0450
      6  C         18.3740  -21.7520  -10.9850 C.2     1  UNL1        0.1320
      7  F         17.1660  -21.5440  -11.5310 F       1  UNL1       -0.2050
      8  S         22.5350  -22.4380   -9.2770 S.O2    1  UNL1        0.2590
      9  O         22.6590  -21.6680   -8.0610 O.2     1  UNL1       -0.2010
     10  O         22.7710  -23.8620   -9.3130 O.2     1  UNL1       -0.2010
     11  N         23.5210  -21.7510  -10.4340 N.3     1  UNL1       -0.3100
     12  H         23.1420  -20.9310  -10.9060 H       1  UNL1        0.1720
     13  C         24.6610  -22.4780  -10.9940 C.3     1  UNL1        0.0970
     14  C         25.8790  -21.5480  -11.0060 C.3     1  UNL1        0.0260
     15  C         27.1060  -22.2510  -11.5780 C.3     1  UNL1        0.0020
     16  C         26.8370  -22.8610  -12.9510 C.3     1  UNL1        0.0050
     17  C         25.6000  -23.7740  -12.9410 C.3     1  UNL1       -0.0130
     18  C         25.3860  -24.4030  -14.3190 C.3     1  UNL1        0.0100
     19  C         24.3420  -23.0400  -12.4010 C.3     1  UNL1        0.0090
     20  C         23.8080  -21.9740  -13.3710 C.3     1  UNL1        0.0120
     21  C         17.3360  -22.4890   -8.7790 C.2     1  UNL1        0.2590
     22  N         17.6010  -22.6240   -7.4330 N.am    1  UNL1       -0.3200
     23  H         18.5600  -22.5090   -7.1100 H       1  UNL1        0.1690
     24  O         16.2320  -22.5860   -9.3060 O.2     1  UNL1       -0.2670
     25  C         16.6980  -22.9070   -6.3820 C.2     1  UNL1        0.0680
     26  C         15.5370  -23.6670   -6.5400 C.2     1  UNL1        0.0320
     27  C         14.6960  -23.9020   -5.4510 C.2     1  UNL1        0.0020
     28  C         15.0070  -23.3790   -4.1990 C.2     1  UNL1        0.0030
     29  C         16.1650  -22.6180   -4.0260 C.2     1  UNL1        0.0390
     30  C         17.0150  -22.3780   -5.1110 C.2     1  UNL1        0.0950
     31  O         18.1780  -21.6440   -5.0510 O.2     1  UNL1       -0.3540
     32  C         18.5320  -21.0940   -3.7870 C.3     1  UNL1        0.2100
@<TRIPOS>BOND
     1    18    17    1
     2    20    19    1
     3    16    17    1
     4    16    15    1
     5    17    19    1
     6    19    13    1
     7     5     4    2
     8     5     6    1
     9    15    14    1
    10     7     6    1
    11     4     3    1
    12    14    13    1
    13    13    11    1
    14     6     1    2
    15    12    11    1
    16    11     8    1
    17     3     8    1
    18     3     2    2
    19     1     2    1
    20     1    21    1
    21    10     8    2
    22    24    21    2
    23     8     9    2
    24    21    22   am
    25    22    23    1
    26    22    25    1
    27    26    25    2
    28    26    27    1
    29    25    30    1
    30    27    28    2
    31    30    31    1
    32    30    29    2
    33    31    32    1
    34    28    29    1
