@<TRIPOS>MOLECULE
34475_out_ligand_01.pdbqt
 33 36 0 0 0
SMALL
GASTEIGER

@<TRIPOS>ATOM
      1  C         21.6940  -22.2120   -9.4590 C.2     1  UNL1       -0.0210
      2  C         21.3390  -23.2010   -8.5640 C.2     1  UNL1        0.1000
      3  N         20.0310  -23.5480   -8.7920 N.pl3   1  UNL1       -0.3510
      4  C         19.5080  -22.7760   -9.8100 C.2     1  UNL1        0.0450
      5  C         18.2250  -22.7430  -10.3800 C.2     1  UNL1        0.0300
      6  C         17.9900  -21.8470  -11.4270 C.2     1  UNL1        0.0020
      7  C         18.9990  -21.0120  -11.8950 C.2     1  UNL1        0.0010
      8  C         20.2740  -21.0510  -11.3220 C.2     1  UNL1        0.0140
      9  C         20.5390  -21.9440  -10.2610 C.2     1  UNL1       -0.0010
     10  C         23.0310  -21.5420   -9.5550 C.3     1  UNL1        0.1440
     11  C         23.9120  -22.0930  -10.6730 C.2     1  UNL1        0.2260
     12  N         23.5640  -21.6520  -11.9390 N.am    1  UNL1       -0.3270
     13  H         22.8470  -20.9360  -11.9830 H       1  UNL1        0.1690
     14  O         24.8000  -22.9030  -10.4140 O.2     1  UNL1       -0.2730
     15  C         24.1350  -22.0190  -13.1720 C.2     1  UNL1        0.0340
     16  C         24.0450  -21.0900  -14.2160 C.2     1  UNL1        0.0300
     17  C         24.5840  -21.3770  -15.4760 C.2     1  UNL1        0.0190
     18  C         25.2260  -22.5980  -15.7050 C.2     1  UNL1        0.0320
     19  C         25.3050  -23.5340  -14.6700 C.2     1  UNL1        0.0190
     20  C         24.7640  -23.2420  -13.4100 C.2     1  UNL1        0.0300
     21  C         25.7830  -22.8600  -17.0600 C.2     1  UNL1        0.2490
     22  N         24.9040  -22.9310  -18.1040 N.am    1  UNL1       -0.3660
     23  H         23.9130  -23.0680  -17.9650 H       1  UNL1        0.1590
     24  H         25.2940  -23.2330  -18.9870 H       1  UNL1        0.1590
     25  O         26.9810  -23.0400  -17.2370 O.2     1  UNL1       -0.2680
     26  C         19.3010  -24.5480   -8.0160 C.3     1  UNL1        0.1670
     27  C         18.2180  -23.9410   -7.1530 C.2     1  UNL1       -0.0400
     28  C         18.4810  -22.8390   -6.3220 C.2     1  UNL1        0.0100
     29  C         17.4650  -22.2760   -5.5450 C.2     1  UNL1        0.0240
     30  C         16.1780  -22.8010   -5.6010 C.2     1  UNL1        0.0340
     31 CL         14.9270  -22.1070   -4.6460 Cl      1  UNL1       -0.0840
     32  C         15.8960  -23.8840   -6.4290 C.2     1  UNL1        0.0240
     33  C         16.9110  -24.4500   -7.2060 C.2     1  UNL1        0.0100
@<TRIPOS>BOND
     1    24    22    1
     2    22    23    1
     3    22    21   am
     4    25    21    2
     5    21    18    1
     6    18    17    2
     7    18    19    1
     8    17    16    1
     9    19    20    2
    10    16    15    2
    11    20    15    1
    12    15    12    1
    13    13    12    1
    14    12    11   am
    15     7     6    2
    16     7     8    1
    17     6     5    1
    18     8     9    2
    19    11    14    2
    20    11    10    1
    21     5     4    2
    22     9     4    1
    23     9     1    1
    24     4     3    1
    25    10     1    1
    26     1     2    2
    27     3     2    1
    28     3    26    1
    29    26    27    1
    30    33    27    2
    31    33    32    1
    32    27    28    1
    33    32    30    2
    34    28    29    2
    35    30    29    1
    36    30    31    1
