@<TRIPOS>MOLECULE
34484_out_ligand_01.pdbqt
 34 37 0 0 0
SMALL
GASTEIGER

@<TRIPOS>ATOM
      1  C         19.2410  -23.5500   -7.2700 C.2     1  UNL1        0.0790
      2  C         19.7710  -24.6170   -8.0030 C.2     1  UNL1        0.0260
      3  C         20.9420  -24.4300   -8.7390 C.2     1  UNL1        0.0180
      4  C         21.5990  -23.1940   -8.7150 C.2     1  UNL1        0.0320
      5  C         21.0720  -22.1320   -7.9650 C.2     1  UNL1        0.0180
      6  C         19.8970  -22.3130   -7.2320 C.2     1  UNL1        0.0260
      7  S         17.7630  -23.7940   -6.2980 S.O2    1  UNL1        0.2610
      8  O         17.6120  -25.2220   -6.1160 O.2     1  UNL1       -0.2000
      9  O         17.8730  -22.9100   -5.1580 O.2     1  UNL1       -0.2000
     10  N         16.5180  -23.2530   -7.3210 N.3     1  UNL1       -0.2980
     11  C         15.1940  -22.9420   -6.7110 C.3     1  UNL1        0.0880
     12  C         15.1760  -21.6120   -5.9600 C.3     1  UNL1        0.0320
     13  C         14.7720  -24.0950   -5.8020 C.3     1  UNL1        0.0320
     14  C         16.5350  -23.7080   -8.7290 C.3     1  UNL1        0.1740
     15  C         17.0590  -22.6970   -9.7260 C.2     1  UNL1       -0.0400
     16  C         18.2130  -22.9890  -10.4700 C.2     1  UNL1        0.0090
     17  C         18.6870  -22.0930  -11.4310 C.2     1  UNL1        0.0010
     18  C         18.0110  -20.8980  -11.6640 C.2     1  UNL1        0.0000
     19  C         16.8600  -20.6000  -10.9400 C.2     1  UNL1        0.0010
     20  C         16.3830  -21.4960   -9.9820 C.2     1  UNL1        0.0090
     21  C         22.8450  -23.0370   -9.5150 C.2     1  UNL1        0.2560
     22  O         23.8270  -23.6870   -9.1810 O.2     1  UNL1       -0.2670
     23  N         22.7550  -22.1260  -10.5510 N.am    1  UNL1       -0.3230
     24  H         21.9030  -21.5830  -10.6130 H       1  UNL1        0.1690
     25  C         23.7560  -21.7940  -11.4890 C.2     1  UNL1        0.0370
     26  C         25.0570  -21.4190  -11.1430 C.2     1  UNL1        0.0320
     27  C         25.9960  -21.1150  -12.1340 C.2     1  UNL1        0.0420
     28  C         25.6430  -21.1880  -13.4770 C.2     1  UNL1        0.1020
     29  C         24.3390  -21.5380  -13.8310 C.2     1  UNL1        0.1040
     30  O         26.6200  -20.8960  -14.3930 O.2     1  UNL1       -0.3460
     31  C         23.4040  -21.8550  -12.8440 C.2     1  UNL1        0.0690
     32  O         23.9040  -21.5990  -15.1310 O.2     1  UNL1       -0.3460
     33  C         24.8130  -20.9320  -16.0150 C.3     1  UNL1        0.2020
     34  C         26.2480  -21.3270  -15.7070 C.3     1  UNL1        0.2020
@<TRIPOS>BOND
     1    33    34    1
     2    33    32    1
     3    34    30    1
     4    32    29    1
     5    30    28    1
     6    29    28    2
     7    29    31    1
     8    28    27    1
     9    31    25    2
    10    27    26    2
    11    18    17    2
    12    18    19    1
    13    25    26    1
    14    25    23    1
    15    17    16    1
    16    19    20    2
    17    24    23    1
    18    23    21   am
    19    16    15    2
    20    20    15    1
    21    15    14    1
    22    21    22    2
    23    21     4    1
    24     3     4    2
    25     3     2    1
    26    14    10    1
    27     4     5    1
    28     2     1    2
    29     5     6    2
    30    10    11    1
    31    10     7    1
    32     1     6    1
    33     1     7    1
    34    11    12    1
    35    11    13    1
    36     7     8    2
    37     7     9    2
