@<TRIPOS>MOLECULE
34486_out_ligand_01.pdbqt
 30 33 0 0 0
SMALL
GASTEIGER

@<TRIPOS>ATOM
      1  C         20.1260  -22.1390  -11.2090 C.2     1  UNL1        0.0320
      2  C         19.0380  -21.3470  -11.6030 C.2     1  UNL1        0.0180
      3  C         17.7600  -21.6110  -11.1060 C.2     1  UNL1        0.0260
      4  C         17.5680  -22.6900  -10.2370 C.2     1  UNL1        0.0790
      5  C         18.6500  -23.4820   -9.8330 C.2     1  UNL1        0.0260
      6  C         19.9280  -23.2130  -10.3290 C.2     1  UNL1        0.0180
      7  S         15.9410  -23.0090   -9.5750 S.O2    1  UNL1        0.2610
      8  O         15.0930  -21.9120   -9.9890 O.2     1  UNL1       -0.2000
      9  O         15.6090  -24.3780   -9.9110 O.2     1  UNL1       -0.2000
     10  N         16.1630  -22.9070   -7.9020 N.3     1  UNL1       -0.3020
     11  C         15.8700  -24.1110   -7.0950 C.3     1  UNL1        0.1400
     12  C         15.5650  -23.6910   -5.6570 C.3     1  UNL1        0.0600
     13  C         16.6700  -22.8410   -5.0820 C.2     1  UNL1       -0.0490
     14  C         16.8270  -22.7400   -3.6920 C.2     1  UNL1        0.0080
     15  C         17.5070  -22.1000   -5.9340 C.2     1  UNL1       -0.0330
     16  C         17.8260  -21.9320   -3.1530 C.2     1  UNL1        0.0010
     17  C         18.6690  -21.2110   -3.9940 C.2     1  UNL1        0.0010
     18  C         18.5120  -21.2940   -5.3780 C.2     1  UNL1        0.0090
     19  C         17.3690  -22.1820   -7.4420 C.3     1  UNL1        0.1740
     20  C         21.4700  -21.8270  -11.7690 C.2     1  UNL1        0.2560
     21  O         21.5270  -21.1060  -12.7580 O.2     1  UNL1       -0.2670
     22  N         22.5300  -22.3720  -11.0680 N.am    1  UNL1       -0.3230
     23  H         22.3150  -22.8300  -10.1930 H       1  UNL1        0.1690
     24  C         23.9020  -22.2780  -11.3870 C.2     1  UNL1        0.0360
     25  C         24.7900  -21.4010  -10.7620 C.2     1  UNL1        0.0290
     26  C         26.1380  -21.3610  -11.1380 C.2     1  UNL1        0.0040
     27  C         26.6080  -22.1970  -12.1470 C.2     1  UNL1        0.0190
     28  C         25.7260  -23.0710  -12.7770 C.2     1  UNL1        0.0130
     29 BR         26.3560  -24.2090  -14.1490 Br      1  UNL1       -0.0510
     30  C         24.3810  -23.1140  -12.4040 C.2     1  UNL1        0.0480
@<TRIPOS>BOND
     1    29    28    1
     2    28    30    1
     3    28    27    2
     4    21    20    2
     5    30    24    2
     6    27    26    1
     7    20     1    1
     8    20    22   am
     9     2     1    2
    10     2     3    1
    11    24    22    1
    12    24    25    1
    13     1     6    1
    14    26    25    2
    15     3     4    2
    16    22    23    1
    17     6     5    2
    18     4     5    1
    19     4     7    1
    20     8     7    2
    21     9     7    2
    22     7    10    1
    23    10    19    1
    24    10    11    1
    25    19    15    1
    26    11    12    1
    27    15    18    1
    28    15    13    2
    29    12    13    1
    30    18    17    2
    31    13    14    1
    32    17    16    1
    33    14    16    2
