@<TRIPOS>MOLECULE
34496_out_ligand_01.pdbqt
 35 39 0 0 0
SMALL
GASTEIGER

@<TRIPOS>ATOM
      1  N         17.7340  -23.5030   -8.1180 N.am    1  UNL1       -0.3030
      2  C         19.0960  -23.2180   -8.2050 C.2     1  UNL1        0.2150
      3  N         19.6640  -22.4540   -9.0900 N.2     1  UNL1       -0.2230
      4  C         18.7840  -21.9370   -9.9790 C.2     1  UNL1        0.1640
      5  C         17.4270  -22.1360  -10.0150 C.2     1  UNL1        0.0990
      6  C         16.9650  -21.3950  -11.1060 C.2     1  UNL1        0.1600
      7  N         17.9620  -20.7720  -11.7480 N.2     1  UNL1       -0.1820
      8  N         19.0690  -21.1170  -11.0370 N.pl3   1  UNL1       -0.2500
      9  C         16.8110  -22.9760   -9.0290 C.2     1  UNL1        0.2640
     10  O         15.6040  -23.1890   -9.0060 O.2     1  UNL1       -0.2670
     11  C         20.3770  -20.6910  -11.4930 C.3     1  UNL1        0.1720
     12  C         21.1540  -21.8010  -12.1980 C.3     1  UNL1        0.1440
     13  N         22.5900  -21.7570  -11.9760 N.am    1  UNL1       -0.3560
     14  C         23.2120  -22.6370  -11.1360 C.2     1  UNL1        0.2410
     15  O         22.6180  -23.4940  -10.4910 O.2     1  UNL1       -0.2690
     16  H         23.1360  -21.1030  -12.5210 H       1  UNL1        0.1620
     17  C         24.6960  -22.5870  -11.0910 C.2     1  UNL1        0.0750
     18  C         25.6120  -22.7920  -12.0490 C.2     1  UNL1        0.0170
     19  C         25.3890  -23.0950  -13.4630 C.2     1  UNL1       -0.0330
     20  C         25.4370  -24.4240  -13.9340 C.2     1  UNL1        0.0140
     21  C         25.1980  -24.7120  -15.2820 C.2     1  UNL1        0.0400
     22  C         24.9300  -23.6590  -16.1270 C.2     1  UNL1        0.1050
     23  C         24.8790  -22.3630  -15.6700 C.2     1  UNL1        0.1050
     24  O         24.6810  -23.7510  -17.4580 O.2     1  UNL1       -0.3230
     25  C         25.0960  -22.0480  -14.3460 C.2     1  UNL1        0.0510
     26  O         24.5950  -21.4770  -16.6600 O.2     1  UNL1       -0.3230
     27  C         24.4940  -22.3610  -17.7950 C.3     1  UNL1        0.3520
     28  C         17.2530  -24.3590   -7.0450 C.3     1  UNL1        0.1720
     29  C         16.9860  -23.5910   -5.7640 C.2     1  UNL1       -0.0340
     30  C         18.0690  -22.9500   -5.1310 C.2     1  UNL1        0.0090
     31  C         17.8920  -22.2220   -3.9550 C.2     1  UNL1        0.0010
     32  C         16.6290  -22.1280   -3.3860 C.2     1  UNL1        0.0010
     33  C         15.5460  -22.7650   -3.9880 C.2     1  UNL1        0.0070
     34  C         15.7050  -23.5040   -5.1750 C.2     1  UNL1       -0.0540
     35  C         14.4980  -24.1820   -5.7620 C.3     1  UNL1        0.0490
@<TRIPOS>BOND
     1    27    24    1
     2    27    26    1
     3    24    22    1
     4    26    23    1
     5    22    23    2
     6    22    21    1
     7    23    25    1
     8    21    20    2
     9    25    19    2
    10    20    19    1
    11    19    18    1
    12    16    13    1
    13    12    13    1
    14    12    11    1
    15    18    17    2
    16    13    14   am
    17     7     6    2
    18     7     8    1
    19    11     8    1
    20    14    17    1
    21    14    15    2
    22     6     5    1
    23     8     4    1
    24     5     4    2
    25     5     9    1
    26     4     3    1
    27     3     2    2
    28     9    10    2
    29     9     1   am
    30     2     1    1
    31     1    28    1
    32    28    29    1
    33    29    34    2
    34    29    30    1
    35    35    34    1
    36    34    33    1
    37    30    31    2
    38    33    32    2
    39    31    32    1
