@<TRIPOS>MOLECULE
34498_out_ligand_01.pdbqt
 35 39 0 0 0
SMALL
GASTEIGER

@<TRIPOS>ATOM
      1  N         18.8470  -21.6560  -11.4070 N.pl3   1  UNL1       -0.2500
      2  N         17.7000  -21.0200  -11.7800 N.2     1  UNL1       -0.1820
      3  C         16.8250  -21.3640  -10.8240 C.2     1  UNL1        0.1600
      4  C         17.4050  -22.1910   -9.8550 C.2     1  UNL1        0.0990
      5  C         16.9400  -22.8250   -8.6550 C.2     1  UNL1        0.2640
      6  O         15.7850  -22.7180   -8.2570 O.2     1  UNL1       -0.2670
      7  N         17.9420  -23.5670   -8.0160 N.am    1  UNL1       -0.3030
      8  C         19.2370  -23.6460   -8.5260 C.2     1  UNL1        0.2150
      9  N         19.6680  -23.0800   -9.6150 N.2     1  UNL1       -0.2230
     10  C         18.7090  -22.3620  -10.2440 C.2     1  UNL1        0.1640
     11  C         20.0420  -21.5240  -12.2190 C.3     1  UNL1        0.1720
     12  C         21.2150  -20.9640  -11.4220 C.3     1  UNL1        0.1440
     13  N         22.2880  -21.9310  -11.2590 N.am    1  UNL1       -0.3560
     14  C         23.1720  -21.8490  -10.2120 C.2     1  UNL1        0.2410
     15  O         23.0570  -21.0520   -9.2940 O.2     1  UNL1       -0.2690
     16  H         22.5200  -22.4860  -12.0810 H       1  UNL1        0.1620
     17  C         24.2760  -22.8420  -10.3260 C.2     1  UNL1        0.0750
     18  C         25.4170  -22.6920  -11.0170 C.2     1  UNL1        0.0170
     19  C         25.8150  -21.5480  -11.8390 C.2     1  UNL1       -0.0330
     20  C         26.3840  -20.3980  -11.2480 C.2     1  UNL1        0.0140
     21  C         26.7330  -19.2910  -12.0270 C.2     1  UNL1        0.0400
     22  C         26.5000  -19.3620  -13.3820 C.2     1  UNL1        0.1050
     23  C         25.9460  -20.4790  -13.9640 C.2     1  UNL1        0.1050
     24  O         26.7710  -18.3840  -14.2880 O.2     1  UNL1       -0.3230
     25  C         25.5900  -21.5860  -13.2230 C.2     1  UNL1        0.0510
     26  O         25.7970  -20.3440  -15.3090 O.2     1  UNL1       -0.3230
     27  C         26.3420  -19.0230  -15.5100 C.3     1  UNL1        0.3520
     28  C         17.6150  -24.2610   -6.7840 C.3     1  UNL1        0.1710
     29  C         17.8450  -23.3930   -5.5670 C.2     1  UNL1       -0.0370
     30  C         17.5710  -23.8840   -4.2800 C.2     1  UNL1        0.0090
     31  C         17.7610  -23.0780   -3.1540 C.2     1  UNL1        0.0040
     32  C         18.2250  -21.7730   -3.3010 C.2     1  UNL1        0.0420
     33  C         18.4940  -21.2850   -4.5730 C.2     1  UNL1        0.1170
     34  F         18.9390  -20.0300   -4.7170 F       1  UNL1       -0.2060
     35  C         18.3090  -22.0770   -5.7030 C.2     1  UNL1        0.0510
@<TRIPOS>BOND
     1    27    26    1
     2    27    24    1
     3    26    23    1
     4    24    22    1
     5    23    22    2
     6    23    25    1
     7    22    21    1
     8    25    19    2
     9    11    12    1
    10    11     1    1
    11    16    13    1
    12    21    20    2
    13    19    20    1
    14    19    18    1
    15     2     1    1
    16     2     3    2
    17    12    13    1
    18     1    10    1
    19    13    14   am
    20    18    17    2
    21     3     4    1
    22    17    14    1
    23    10     4    2
    24    10     9    1
    25    14    15    2
    26     4     5    1
    27     9     8    2
    28     5     6    2
    29     5     7   am
    30     8     7    1
    31     7    28    1
    32    28    29    1
    33    35    29    2
    34    35    33    1
    35    29    30    1
    36    34    33    1
    37    33    32    2
    38    30    31    2
    39    32    31    1
