@<TRIPOS>MOLECULE
34503_out_ligand_01.pdbqt
 35 39 0 0 0
SMALL
GASTEIGER

@<TRIPOS>ATOM
      1  N         19.2970  -21.2140  -11.0010 N.pl3   1  UNL1       -0.2500
      2  N         18.3960  -20.7170  -11.8910 N.2     1  UNL1       -0.1820
      3  C         17.2240  -21.2090  -11.4630 C.2     1  UNL1        0.1600
      4  C         17.3790  -22.0280  -10.3410 C.2     1  UNL1        0.0990
      5  C         16.4870  -22.7870   -9.5110 C.2     1  UNL1        0.2640
      6  O         15.2710  -22.7690   -9.6670 O.2     1  UNL1       -0.2670
      7  N         17.1610  -23.5000   -8.5110 N.am    1  UNL1       -0.3030
      8  C         18.5400  -23.3910   -8.3340 C.2     1  UNL1        0.2150
      9  N         19.3550  -22.6850   -9.0640 N.2     1  UNL1       -0.2230
     10  C         18.7220  -22.0260  -10.0610 C.2     1  UNL1        0.1640
     11  C         20.7080  -20.8990  -11.1360 C.3     1  UNL1        0.1720
     12  C         21.4850  -22.0690  -11.7360 C.3     1  UNL1        0.1440
     13  N         22.9190  -21.8330  -11.7710 N.am    1  UNL1       -0.3560
     14  C         23.7430  -22.4520  -10.8630 C.2     1  UNL1        0.2410
     15  O         23.4000  -23.3540  -10.1130 O.2     1  UNL1       -0.2690
     16  H         23.2210  -20.9340  -12.1300 H       1  UNL1        0.1620
     17  C         25.1130  -21.8920  -10.8810 C.2     1  UNL1        0.0750
     18  C         25.9150  -21.9130  -11.9560 C.2     1  UNL1        0.0170
     19  C         25.6090  -22.5450  -13.2430 C.2     1  UNL1       -0.0330
     20  C         25.7710  -23.9380  -13.4170 C.2     1  UNL1        0.0140
     21  C         25.5000  -24.5420  -14.6500 C.2     1  UNL1        0.0400
     22  C         25.0780  -23.7310  -15.6800 C.2     1  UNL1        0.1050
     23  C         24.9260  -22.3740  -15.5180 C.2     1  UNL1        0.1050
     24  O         24.7720  -24.1410  -16.9400 O.2     1  UNL1       -0.3230
     25  C         25.1870  -21.7500  -14.3150 C.2     1  UNL1        0.0510
     26  O         24.5080  -21.7580  -16.6570 O.2     1  UNL1       -0.3230
     27  C         24.3890  -22.8880  -17.5460 C.3     1  UNL1        0.3520
     28  C         16.3860  -24.3190   -7.5940 C.3     1  UNL1        0.1740
     29  C         16.1020  -23.6250   -6.2840 C.2     1  UNL1       -0.0010
     30  C         14.9820  -22.7910   -6.1350 C.2     1  UNL1        0.0120
     31  C         14.7290  -22.1570   -4.9160 C.2     1  UNL1        0.0010
     32  C         15.5880  -22.3480   -3.8330 C.2     1  UNL1        0.0030
     33  C         16.7020  -23.1750   -3.9690 C.2     1  UNL1        0.0430
     34  C         16.9490  -23.8050   -5.1860 C.2     1  UNL1        0.1240
     35  F         18.0260  -24.5940   -5.2940 F       1  UNL1       -0.2050
@<TRIPOS>BOND
     1    27    24    1
     2    27    26    1
     3    24    22    1
     4    26    23    1
     5    22    23    2
     6    22    21    1
     7    23    25    1
     8    21    20    2
     9    25    19    2
    10    20    19    1
    11    19    18    1
    12    16    13    1
    13    18    17    2
    14     2     3    2
    15     2     1    1
    16    13    12    1
    17    13    14   am
    18    12    11    1
    19     3     4    1
    20    11     1    1
    21     1    10    1
    22    17    14    1
    23    14    15    2
    24     4    10    2
    25     4     5    1
    26    10     9    1
    27     6     5    2
    28     5     7   am
    29     9     8    2
    30     7     8    1
    31     7    28    1
    32    28    29    1
    33    29    30    2
    34    29    34    1
    35    30    31    1
    36    35    34    1
    37    34    33    2
    38    31    32    2
    39    33    32    1
