@<TRIPOS>MOLECULE
34520_out_ligand_01.pdbqt
 31 34 0 0 0
SMALL
GASTEIGER

@<TRIPOS>ATOM
      1  C         19.9500  -21.8870  -11.1710 C.2     1  UNL1        0.0320
      2  C         18.8060  -21.6470  -11.9430 C.2     1  UNL1        0.0180
      3  C         17.5370  -21.8220  -11.3830 C.2     1  UNL1        0.0190
      4  C         17.4060  -22.2200  -10.0460 C.2     1  UNL1        0.0450
      5  C         18.5480  -22.4340   -9.2620 C.2     1  UNL1       -0.0380
      6  C         19.8180  -22.2730   -9.8300 C.2     1  UNL1        0.0250
      7  C         18.3770  -22.8740   -7.8380 C.3     1  UNL1        0.0770
      8  C         17.0870  -22.2520   -7.3010 C.3     1  UNL1        0.1690
      9  O         15.9670  -22.6170   -8.1380 O.3     1  UNL1       -0.3070
     10  C         16.0480  -22.4400   -9.4800 C.2     1  UNL1        0.2940
     11  O         15.0640  -22.4870  -10.2050 O.2     1  UNL1       -0.2590
     12  C         21.3230  -21.7120  -11.7260 C.2     1  UNL1        0.2560
     13  O         21.4500  -21.0460  -12.7460 O.2     1  UNL1       -0.2670
     14  N         22.3320  -22.3020  -10.9880 N.am    1  UNL1       -0.3230
     15  H         22.0770  -22.7000  -10.0930 H       1  UNL1        0.1690
     16  C         23.7090  -22.3300  -11.2940 C.2     1  UNL1        0.0350
     17  C         24.5400  -21.4570  -10.5820 C.2     1  UNL1        0.0290
     18  C         25.9150  -21.4220  -10.8230 C.2     1  UNL1        0.0030
     19  C         26.4750  -22.2670  -11.7780 C.2     1  UNL1        0.0160
     20  C         25.6660  -23.1580  -12.4950 C.2     1  UNL1        0.0500
     21  C         24.2810  -23.1770  -12.2470 C.2     1  UNL1        0.0450
     22  C         26.2520  -24.0720  -13.5430 C.3     1  UNL1        0.4170
     23  F         27.1210  -24.9840  -13.0260 F       1  UNL1       -0.1660
     24  F         26.9500  -23.4050  -14.5070 F       1  UNL1       -0.1660
     25  F         25.3010  -24.7860  -14.2030 F       1  UNL1       -0.1660
     26  C         16.8270  -22.7000   -5.8770 C.2     1  UNL1       -0.0290
     27  C         17.8410  -23.3470   -5.1520 C.2     1  UNL1        0.0100
     28  C         17.6110  -23.7930   -3.8500 C.2     1  UNL1        0.0010
     29  C         16.3650  -23.6030   -3.2560 C.2     1  UNL1        0.0000
     30  C         15.3480  -22.9660   -3.9640 C.2     1  UNL1        0.0010
     31  C         15.5760  -22.5200   -5.2670 C.2     1  UNL1        0.0100
@<TRIPOS>BOND
     1    24    22    1
     2    25    22    1
     3    22    23    1
     4    22    20    1
     5    13    12    2
     6    20    21    1
     7    20    19    2
     8    21    16    2
     9     2     3    1
    10     2     1    2
    11    19    18    1
    12    12     1    1
    13    12    14   am
    14     3     4    2
    15    16    14    1
    16    16    17    1
    17     1     6    1
    18    14    15    1
    19    18    17    2
    20    11    10    2
    21     4    10    1
    22     4     5    1
    23     6     5    2
    24    10     9    1
    25     5     7    1
    26     9     8    1
    27     7     8    1
    28     8    26    1
    29    26    31    2
    30    26    27    1
    31    31    30    1
    32    27    28    2
    33    30    29    2
    34    28    29    1
