@<TRIPOS>MOLECULE
34535_out_ligand_01.pdbqt
 35 39 0 0 0
SMALL
GASTEIGER

@<TRIPOS>ATOM
      1  N         17.6710  -23.5760   -8.2460 N.am    1  UNL1       -0.3030
      2  C         19.0430  -23.3440   -8.3380 C.2     1  UNL1        0.2150
      3  N         19.6350  -22.5620   -9.1920 N.2     1  UNL1       -0.2230
      4  C         18.7610  -21.9710  -10.0410 C.2     1  UNL1        0.1640
      5  C         17.3950  -22.0890  -10.0530 C.2     1  UNL1        0.0990
      6  C         16.9540  -21.2680  -11.0950 C.2     1  UNL1        0.1600
      7  N         17.9710  -20.6590  -11.7220 N.2     1  UNL1       -0.1820
      8  N         19.0700  -21.1540  -11.0940 N.pl3   1  UNL1       -0.2500
      9  C         16.7560  -22.9430   -9.0940 C.2     1  UNL1        0.2640
     10  O         15.5380  -23.0850   -9.0450 O.2     1  UNL1       -0.2670
     11  C         20.3960  -20.7490  -11.5100 C.3     1  UNL1        0.1720
     12  C         21.1550  -21.8210  -12.2910 C.3     1  UNL1        0.1440
     13  N         22.5970  -21.7620  -12.1170 N.am    1  UNL1       -0.3560
     14  C         23.2640  -22.5960  -11.2600 C.2     1  UNL1        0.2410
     15  O         22.7180  -23.3760  -10.4880 O.2     1  UNL1       -0.2690
     16  H         23.1290  -21.1470  -12.7170 H       1  UNL1        0.1620
     17  C         24.7420  -22.4450  -11.2250 C.2     1  UNL1        0.0750
     18  C         25.6450  -22.5630  -12.2120 C.2     1  UNL1        0.0170
     19  C         25.4040  -22.9170  -13.6130 C.2     1  UNL1       -0.0330
     20  C         25.4530  -24.2600  -14.0400 C.2     1  UNL1        0.0140
     21  C         25.2190  -24.6000  -15.3770 C.2     1  UNL1        0.0400
     22  C         24.9560  -23.5760  -16.2590 C.2     1  UNL1        0.1050
     23  C         24.9240  -22.2630  -15.8530 C.2     1  UNL1        0.1050
     24  O         24.7060  -23.7150  -17.5890 O.2     1  UNL1       -0.3230
     25  C         25.1460  -21.8990  -14.5410 C.2     1  UNL1        0.0510
     26  O         24.6500  -21.4110  -16.8770 O.2     1  UNL1       -0.3230
     27  C         24.5320  -22.3360  -17.9770 C.3     1  UNL1        0.3520
     28  C         17.1690  -24.4850   -7.2310 C.3     1  UNL1        0.1710
     29  C         16.7760  -23.7580   -5.9650 C.2     1  UNL1       -0.0390
     30  C         15.4500  -23.7920   -5.5140 C.2     1  UNL1        0.0090
     31  C         15.0800  -23.1110   -4.3540 C.2     1  UNL1        0.0010
     32  C         16.0300  -22.3830   -3.6370 C.2     1  UNL1        0.0070
     33  C         17.3550  -22.3200   -4.0790 C.2     1  UNL1       -0.0610
     34  C         18.3840  -21.5610   -3.2940 C.3     1  UNL1        0.0480
     35  C         17.7220  -23.0200   -5.2370 C.2     1  UNL1        0.0150
@<TRIPOS>BOND
     1    27    24    1
     2    27    26    1
     3    24    22    1
     4    26    23    1
     5    22    23    2
     6    22    21    1
     7    23    25    1
     8    21    20    2
     9    25    19    2
    10    20    19    1
    11    19    18    1
    12    16    13    1
    13    12    13    1
    14    12    11    1
    15    18    17    2
    16    13    14   am
    17     7     6    2
    18     7     8    1
    19    11     8    1
    20    14    17    1
    21    14    15    2
    22     6     5    1
    23     8     4    1
    24     5     4    2
    25     5     9    1
    26     4     3    1
    27     3     2    2
    28     9    10    2
    29     9     1   am
    30     2     1    1
    31     1    28    1
    32    28    29    1
    33    29    30    2
    34    29    35    1
    35    30    31    1
    36    35    33    2
    37    31    32    2
    38    33    32    1
    39    33    34    1
