@<TRIPOS>MOLECULE
34558_out_ligand_01.pdbqt
 32 35 0 0 0
SMALL
GASTEIGER

@<TRIPOS>ATOM
      1  C         24.2500  -22.5620  -10.1200 C.ar    1  UNL1        0.1600
      2  N         24.1260  -21.2550  -10.0150 N.ar    1  UNL1       -0.1330
      3  N         23.0660  -20.9020   -9.2070 N.ar    1  UNL1       -0.1220
      4  C         22.4480  -21.9560   -8.7170 C.ar    1  UNL1        0.1970
      5  S         23.1040  -23.4480   -9.2110 S.2     1  UNL1       -0.0220
      6  N         21.3720  -21.8420   -7.8730 N.am    1  UNL1       -0.3000
      7  C         20.4320  -22.8090   -7.6050 C.2     1  UNL1        0.2580
      8  O         20.3380  -23.9270   -8.0900 O.2     1  UNL1       -0.2670
      9  H         21.2880  -20.9330   -7.4350 H       1  UNL1        0.1710
     10  C         19.3860  -22.3670   -6.6470 C.2     1  UNL1        0.0430
     11  C         19.7390  -21.3090   -5.7990 C.2     1  UNL1        0.0180
     12  C         18.8450  -20.8750   -4.8280 C.2     1  UNL1        0.0020
     13  C         17.6010  -21.4930   -4.7070 C.2     1  UNL1        0.0120
     14  C         17.2210  -22.5400   -5.5650 C.2     1  UNL1       -0.0250
     15  C         15.9550  -23.1340   -5.4350 C.2     1  UNL1        0.0120
     16  C         18.1120  -22.9890   -6.5710 C.2     1  UNL1       -0.0100
     17  C         15.5490  -24.1540   -6.2940 C.2     1  UNL1        0.0010
     18  C         16.4000  -24.5890   -7.3010 C.2     1  UNL1        0.0010
     19  C         17.6620  -24.0120   -7.4420 C.2     1  UNL1        0.0130
     20  S         25.4810  -23.3200  -11.1000 S.3     1  UNL1       -0.0920
     21  C         24.6540  -23.4050  -12.7120 C.3     1  UNL1        0.1840
     22  C         23.8470  -22.1450  -12.9730 C.2     1  UNL1        0.2270
     23  O         24.3420  -21.1500  -13.4980 O.2     1  UNL1       -0.2730
     24  N         22.5330  -22.2140  -12.5750 N.am    1  UNL1       -0.3560
     25  H         22.1760  -23.0800  -12.1780 H       1  UNL1        0.1620
     26  C         21.6270  -21.0970  -12.6780 C.3     1  UNL1        0.1610
     27  C         20.3330  -21.4000  -11.9690 C.2     1  UNL1       -0.0410
     28  C         20.1580  -22.6300  -11.3180 C.2     1  UNL1        0.0090
     29  C         18.9540  -22.9280  -10.6790 C.2     1  UNL1        0.0010
     30  C         17.9090  -22.0050  -10.6930 C.2     1  UNL1        0.0000
     31  C         18.0680  -20.7840  -11.3480 C.2     1  UNL1        0.0010
     32  C         19.2710  -20.4830  -11.9880 C.2     1  UNL1        0.0090
@<TRIPOS>BOND
     1    23    22    2
     2    22    21    1
     3    22    24   am
     4    21    20    1
     5    26    24    1
     6    26    27    1
     7    24    25    1
     8    32    27    2
     9    32    31    1
    10    27    28    1
    11    31    30    2
    12    28    29    2
    13    20     1    1
    14    30    29    1
    15     1     2   ar
    16     1     5   ar
    17     2     3   ar
    18     5     4   ar
    19     3     4   ar
    20     4     6    1
    21     8     7    2
    22     6     7   am
    23     6     9    1
    24     7    10    1
    25    19    18    2
    26    19    16    1
    27    18    17    1
    28    10    16    2
    29    10    11    1
    30    16    14    1
    31    17    15    2
    32    11    12    2
    33    14    15    1
    34    14    13    2
    35    12    13    1
