@<TRIPOS>MOLECULE
34566_out_ligand_01.pdbqt
 33 36 0 0 0
SMALL
GASTEIGER

@<TRIPOS>ATOM
      1  C         23.5990  -22.6300  -10.3430 C.ar    1  UNL1        0.1970
      2  N         23.8250  -21.4110   -9.9170 N.ar    1  UNL1       -0.1220
      3  N         25.0020  -20.9020  -10.4310 N.ar    1  UNL1       -0.1330
      4  C         25.6080  -21.7640  -11.2160 C.ar    1  UNL1        0.1600
      5  S         24.7910  -23.2610  -11.3900 S.2     1  UNL1       -0.0220
      6  N         22.5570  -23.4770  -10.0980 N.am    1  UNL1       -0.3040
      7  C         21.7560  -23.3510   -8.9860 C.2     1  UNL1        0.2270
      8  O         21.8520  -22.4960   -8.1130 O.2     1  UNL1       -0.2730
      9  H         22.4010  -24.2170  -10.7680 H       1  UNL1        0.1710
     10  C         20.6540  -24.3990   -8.9260 C.3     1  UNL1        0.1420
     11  C         19.2850  -23.7810   -8.7420 C.2     1  UNL1       -0.0380
     12  C         18.5520  -24.1950   -7.6120 C.2     1  UNL1        0.0080
     13  C         17.2660  -23.7280   -7.3820 C.2     1  UNL1        0.0010
     14  C         16.6840  -22.8450   -8.2860 C.2     1  UNL1        0.0120
     15  C         17.3790  -22.4140   -9.4250 C.2     1  UNL1       -0.0250
     16  C         16.7560  -21.5330  -10.3250 C.2     1  UNL1        0.0120
     17  C         18.7000  -22.8690   -9.6680 C.2     1  UNL1       -0.0190
     18  C         17.4160  -21.0870  -11.4680 C.2     1  UNL1        0.0010
     19  C         18.7150  -21.5080  -11.7190 C.2     1  UNL1        0.0010
     20  C         19.3500  -22.3810  -10.8310 C.2     1  UNL1        0.0130
     21  S         27.1080  -21.3920  -12.0260 S.3     1  UNL1       -0.0920
     22  C         26.6570  -19.8600  -12.8940 C.3     1  UNL1        0.1840
     23  C         25.7780  -20.1780  -14.0930 C.2     1  UNL1        0.2310
     24  O         24.8300  -19.4490  -14.3730 O.2     1  UNL1       -0.2720
     25  N         26.1590  -21.3170  -14.7780 N.am    1  UNL1       -0.3240
     26  H         26.9540  -21.8490  -14.4170 H       1  UNL1        0.1690
     27  C         25.5160  -21.9100  -15.8890 C.2     1  UNL1        0.0730
     28  C         25.3120  -21.2770  -17.1140 C.2     1  UNL1        0.0330
     29  C         24.6330  -21.9370  -18.1480 C.2     1  UNL1        0.0020
     30  C         24.1560  -23.2360  -17.9680 C.2     1  UNL1        0.0030
     31  C         24.3690  -23.8830  -16.7550 C.2     1  UNL1        0.0440
     32  C         25.0410  -23.2170  -15.7320 C.2     1  UNL1        0.1430
     33  F         25.2300  -23.8540  -14.5670 F       1  UNL1       -0.2040
@<TRIPOS>BOND
     1    29    30    2
     2    29    28    1
     3    30    31    1
     4    28    27    2
     5    31    32    2
     6    27    32    1
     7    27    25    1
     8    32    33    1
     9    25    26    1
    10    25    23   am
    11    24    23    2
    12    23    22    1
    13    22    21    1
    14    21     4    1
    15    19    18    1
    16    19    20    2
    17    18    16    2
    18     5     4   ar
    19     5     1   ar
    20     4     3   ar
    21    20    17    1
    22     9     6    1
    23     3     2   ar
    24     1     6    1
    25     1     2   ar
    26    16    15    1
    27     6     7   am
    28    17    15    1
    29    17    11    2
    30    15    14    2
    31     7    10    1
    32     7     8    2
    33    10    11    1
    34    11    12    1
    35    14    13    1
    36    12    13    2
