@<TRIPOS>MOLECULE
34564_out_ligand_01.pdbqt
 35 39 0 0 0
SMALL
GASTEIGER

@<TRIPOS>ATOM
      1  C         21.4840  -22.3850  -10.7660 C.2     1  UNL1        0.0320
      2  C         22.6150  -23.0960  -10.3400 C.2     1  UNL1        0.0180
      3  C         23.7700  -23.1170  -11.1230 C.2     1  UNL1        0.0260
      4  C         23.7790  -22.4390  -12.3450 C.2     1  UNL1        0.0800
      5  C         22.6520  -21.7340  -12.7860 C.2     1  UNL1        0.0260
      6  C         21.5000  -21.7120  -11.9970 C.2     1  UNL1        0.0180
      7  C         20.2730  -22.3940   -9.8990 C.2     1  UNL1        0.2560
      8  O         19.2410  -21.9060  -10.3410 O.2     1  UNL1       -0.2670
      9  N         20.4440  -23.0020   -8.6680 N.am    1  UNL1       -0.3230
     10  H         21.3230  -23.4810   -8.5130 H       1  UNL1        0.1690
     11  C         19.4870  -23.1190   -7.6380 C.2     1  UNL1        0.0360
     12  C         18.6380  -24.2550   -7.6850 C.2     1  UNL1        0.0300
     13  C         17.6540  -24.4760   -6.7130 C.2     1  UNL1        0.0200
     14  C         17.5500  -23.5440   -5.7040 C.2     1  UNL1        0.0480
     15  C         18.3760  -22.4350   -5.6460 C.2     1  UNL1        0.0500
     16  C         16.6480  -23.4840   -4.5560 C.2     1  UNL1        0.2590
     17  C         19.3540  -22.1940   -6.5950 C.2     1  UNL1        0.0470
     18  C         17.9980  -21.6730   -4.4560 C.2     1  UNL1        0.2590
     19  O         18.5150  -20.6420   -4.0760 O.2     1  UNL1       -0.2670
     20  N         16.9720  -22.3520   -3.8740 N.am    1  UNL1       -0.2890
     21  H         16.5150  -22.0560   -3.0270 H       1  UNL1        0.1720
     22  O         15.7910  -24.3030   -4.2920 O.2     1  UNL1       -0.2670
     23  S         25.2410  -22.4450  -13.3700 S.O2    1  UNL1        0.2650
     24  O         26.1760  -21.5650  -12.7010 O.2     1  UNL1       -0.2000
     25  O         25.5790  -23.8280  -13.6370 O.2     1  UNL1       -0.2000
     26  N         24.6560  -21.7270  -14.8290 N.pl3   1  UNL1       -0.2710
     27  C         24.2010  -22.6880  -15.8750 C.3     1  UNL1        0.1420
     28  C         25.3480  -23.0900  -16.7880 C.3     1  UNL1        0.0260
     29  C         25.9110  -21.8680  -17.4950 C.3     1  UNL1        0.0420
     30  C         26.0890  -20.6900  -16.5760 C.2     1  UNL1       -0.0310
     31  C         26.8550  -19.6010  -17.0240 C.2     1  UNL1        0.0090
     32  C         25.4490  -20.6170  -15.3270 C.2     1  UNL1        0.0510
     33  C         26.9850  -18.4540  -16.2430 C.2     1  UNL1        0.0010
     34  C         26.3360  -18.3750  -15.0160 C.2     1  UNL1        0.0020
     35  C         25.5670  -19.4500  -14.5650 C.2     1  UNL1        0.0310
@<TRIPOS>BOND
     1    29    28    1
     2    29    30    1
     3    31    30    2
     4    31    33    1
     5    28    27    1
     6    30    32    1
     7    33    34    2
     8    27    26    1
     9    32    26    1
    10    32    35    2
    11    34    35    1
    12    26    23    1
    13    25    23    2
    14    23    24    2
    15    23     4    1
    16     5     4    2
    17     5     6    1
    18     4     3    1
    19     6     1    2
    20     3     2    2
    21     1     2    1
    22     1     7    1
    23     8     7    2
    24     7     9   am
    25     9    10    1
    26     9    11    1
    27    12    11    2
    28    12    13    1
    29    11    17    1
    30    13    14    2
    31    17    15    2
    32    14    15    1
    33    14    16    1
    34    15    18    1
    35    16    22    2
    36    16    20   am
    37    18    19    2
    38    18    20   am
    39    20    21    1
