@<TRIPOS>MOLECULE
34579_out_ligand_01.pdbqt
 33 37 0 0 0
SMALL
GASTEIGER

@<TRIPOS>ATOM
      1  C         21.2230  -22.4630  -10.9630 C.2     1  UNL1        0.0320
      2  C         20.9800  -23.4430   -9.9880 C.2     1  UNL1        0.0180
      3  C         19.7230  -23.5340   -9.3870 C.2     1  UNL1        0.0260
      4  C         18.7110  -22.6420   -9.7580 C.2     1  UNL1        0.0800
      5  C         18.9480  -21.6450  -10.7080 C.2     1  UNL1        0.0260
      6  C         20.2060  -21.5590  -11.3080 C.2     1  UNL1        0.0180
      7  C         22.5490  -22.3210  -11.6350 C.2     1  UNL1        0.2580
      8  O         23.5480  -22.6970  -11.0340 O.2     1  UNL1       -0.2670
      9  N         22.5150  -21.7320  -12.8750 N.am    1  UNL1       -0.2850
     10  H         21.6700  -21.3450  -13.2620 H       1  UNL1        0.1720
     11  C         23.6300  -21.5330  -13.6370 C.ar    1  UNL1        0.2750
     12  N         24.4620  -22.4690  -14.0380 N.ar    1  UNL1       -0.1020
     13  N         25.4420  -21.8290  -14.7670 N.ar    1  UNL1       -0.1170
     14  C         25.1420  -20.5400  -14.7600 C.ar    1  UNL1        0.2280
     15  O         23.9940  -20.2890  -14.0500 O.2     1  UNL1       -0.2530
     16  C         25.9180  -19.5280  -15.4090 C.2     1  UNL1        0.1290
     17  C         26.3510  -19.4840  -16.7260 C.2     1  UNL1        0.0430
     18  C         27.0830  -18.2820  -16.8900 C.2     1  UNL1        0.0270
     19  C         27.0580  -17.6570  -15.6680 C.2     1  UNL1        0.1420
     20  O         26.3600  -18.3960  -14.7700 O.2     1  UNL1       -0.3180
     21  S         17.1160  -22.7710   -8.9640 S.O2    1  UNL1        0.2650
     22  O         16.3000  -23.6570   -9.7670 O.2     1  UNL1       -0.2000
     23  O         16.7080  -21.4060   -8.7060 O.2     1  UNL1       -0.2000
     24  N         17.5230  -23.5800   -7.4910 N.pl3   1  UNL1       -0.2710
     25  C         16.6550  -24.7420   -7.1430 C.3     1  UNL1        0.1420
     26  C         15.4580  -24.3050   -6.3140 C.3     1  UNL1        0.0260
     27  C         15.9210  -23.6670   -5.0150 C.3     1  UNL1        0.0420
     28  C         17.0640  -22.7070   -5.2090 C.2     1  UNL1       -0.0310
     29  C         17.4000  -21.8440   -4.1520 C.2     1  UNL1        0.0090
     30  C         17.8450  -22.7060   -6.3780 C.2     1  UNL1        0.0510
     31  C         18.4980  -20.9910   -4.2530 C.2     1  UNL1        0.0010
     32  C         19.2810  -21.0040   -5.4020 C.2     1  UNL1        0.0020
     33  C         18.9600  -21.8630   -6.4550 C.2     1  UNL1        0.0310
@<TRIPOS>BOND
     1    18    17    1
     2    18    19    2
     3    17    16    2
     4    19    20    1
     5    16    20    1
     6    16    14    1
     7    13    14   ar
     8    13    12   ar
     9    14    15   ar
    10    15    11   ar
    11    12    11   ar
    12    11     9    1
    13    10     9    1
    14     9     7   am
    15     7     8    2
    16     7     1    1
    17     6     1    2
    18     6     5    1
    19     1     2    1
    20     5     4    2
    21     2     3    2
    22    22    21    2
    23     4     3    1
    24     4    21    1
    25    21    23    2
    26    21    24    1
    27    24    25    1
    28    24    30    1
    29    25    26    1
    30    33    30    1
    31    33    32    2
    32    30    28    2
    33    26    27    1
    34    32    31    1
    35    28    27    1
    36    28    29    1
    37    31    29    2
