@<TRIPOS>MOLECULE
34587_out_ligand_01.pdbqt
 36 39 0 0 0
SMALL
GASTEIGER

@<TRIPOS>ATOM
      1  C         18.9120  -21.8690  -11.1220 C.2     1  UNL1        0.0320
      2  C         17.7100  -21.1640  -10.9910 C.2     1  UNL1        0.0170
      3  C         16.6580  -21.7090  -10.2500 C.2     1  UNL1        0.0100
      4  C         16.7880  -22.9690   -9.6440 C.2     1  UNL1       -0.0400
      5  C         17.9900  -23.6730   -9.7880 C.2     1  UNL1        0.0100
      6  C         19.0430  -23.1300  -10.5290 C.2     1  UNL1        0.0170
      7  C         15.6470  -23.5360   -8.8350 C.3     1  UNL1        0.1700
      8  N         15.6140  -22.9410   -7.5080 N.3     1  UNL1       -0.3110
      9  H         15.4490  -21.9400   -7.4210 H       1  UNL1        0.1720
     10  S         16.4670  -23.6420   -6.2600 S.O2    1  UNL1        0.2590
     11  O         15.6610  -23.4920   -5.0690 O.2     1  UNL1       -0.2010
     12  O         16.9370  -24.9330   -6.7100 O.2     1  UNL1       -0.2010
     13  C         17.8730  -22.5680   -6.1000 C.2     1  UNL1        0.0800
     14  C         17.8690  -21.5830   -5.1080 C.2     1  UNL1        0.0250
     15  C         18.9710  -20.7410   -4.9730 C.2     1  UNL1        0.0020
     16  C         20.0750  -20.8890   -5.8180 C.2     1  UNL1        0.0160
     17  C         20.0960  -21.8900   -6.8030 C.2     1  UNL1        0.0490
     18  C         18.9810  -22.7330   -6.9400 C.2     1  UNL1        0.0410
     19  C         21.2840  -22.0520   -7.7230 C.3     1  UNL1        0.4170
     20  F         21.5710  -23.3560   -7.9860 F       1  UNL1       -0.1660
     21  F         21.0760  -21.4610   -8.9320 F       1  UNL1       -0.1660
     22  F         22.4300  -21.5080   -7.2310 F       1  UNL1       -0.1660
     23  C         20.0620  -21.3300  -11.9030 C.2     1  UNL1        0.2560
     24  O         19.8900  -20.3060  -12.5510 O.2     1  UNL1       -0.2670
     25  N         21.2170  -22.0900  -11.8390 N.am    1  UNL1       -0.3230
     26  H         21.1520  -22.9820  -11.3680 H       1  UNL1        0.1690
     27  C         22.4630  -21.8070  -12.4380 C.2     1  UNL1        0.0370
     28  C         23.5900  -21.8340  -11.6040 C.2     1  UNL1        0.0320
     29  C         24.8640  -21.5690  -12.1140 C.2     1  UNL1        0.0420
     30  C         25.0200  -21.2720  -13.4640 C.2     1  UNL1        0.1020
     31  C         23.8980  -21.2110  -14.2960 C.2     1  UNL1        0.1040
     32  O         26.2990  -21.0420  -13.9020 O.2     1  UNL1       -0.3460
     33  C         22.6270  -21.4910  -13.7890 C.2     1  UNL1        0.0690
     34  O         23.9740  -20.8890  -15.6290 O.2     1  UNL1       -0.3460
     35  C         25.2340  -20.2940  -15.9540 C.3     1  UNL1        0.2020
     36  C         26.3740  -21.0850  -15.3320 C.3     1  UNL1        0.2020
@<TRIPOS>BOND
     1    35    34    1
     2    35    36    1
     3    34    31    1
     4    36    32    1
     5    31    33    1
     6    31    30    2
     7    32    30    1
     8    33    27    2
     9    30    29    1
    10    24    23    2
    11    27    25    1
    12    27    28    1
    13    29    28    2
    14    23    25   am
    15    23     1    1
    16    25    26    1
    17     1     2    2
    18     1     6    1
    19     2     3    1
    20     6     5    2
    21     3     4    2
    22     5     4    1
    23     4     7    1
    24    21    19    1
    25     7     8    1
    26    20    19    1
    27    19    22    1
    28    19    17    1
    29     8     9    1
    30     8    10    1
    31    18    17    1
    32    18    13    2
    33    17    16    2
    34    12    10    2
    35    10    13    1
    36    10    11    2
    37    13    14    1
    38    16    15    1
    39    14    15    2
