@<TRIPOS>MOLECULE
34597_out_ligand_01.pdbqt
 29 32 0 0 0
SMALL
GASTEIGER

@<TRIPOS>ATOM
      1  C         21.6020  -22.1340  -11.6440 C.2     1  UNL1        0.0320
      2  C         20.6950  -21.4000  -12.4200 C.2     1  UNL1        0.0180
      3  C         19.3670  -21.2660  -12.0010 C.2     1  UNL1        0.0190
      4  C         18.9460  -21.8450  -10.7970 C.2     1  UNL1        0.0450
      5  C         19.8560  -22.5550  -10.0030 C.2     1  UNL1       -0.0380
      6  C         21.1820  -22.7030  -10.4330 C.2     1  UNL1        0.0250
      7  C         19.3720  -23.1770   -8.7240 C.3     1  UNL1        0.0770
      8  C         18.2620  -22.2950   -8.1500 C.3     1  UNL1        0.1690
      9  O         17.2140  -22.1440   -9.1350 O.3     1  UNL1       -0.3070
     10  C         17.5220  -21.7250  -10.3880 C.2     1  UNL1        0.2940
     11  O         16.6760  -21.2960  -11.1600 O.2     1  UNL1       -0.2590
     12  C         23.0260  -22.3060  -12.0490 C.2     1  UNL1        0.2560
     13  O         23.7520  -22.9710  -11.3210 O.2     1  UNL1       -0.2670
     14  N         23.3690  -21.7130  -13.2510 N.am    1  UNL1       -0.3230
     15  H         22.6180  -21.3150  -13.7990 H       1  UNL1        0.1690
     16  C         24.6440  -21.6820  -13.8540 C.2     1  UNL1        0.0370
     17  C         25.7620  -21.0600  -13.2900 C.2     1  UNL1        0.0290
     18  C         26.9950  -21.0650  -13.9530 C.2     1  UNL1        0.0050
     19  C         27.1200  -21.6920  -15.1890 C.2     1  UNL1        0.0420
     20  C         26.0090  -22.3060  -15.7500 C.2     1  UNL1        0.1180
     21  F         26.1210  -22.9100  -16.9410 F       1  UNL1       -0.2060
     22  C         24.7780  -22.3070  -15.0990 C.2     1  UNL1        0.0710
     23  C         17.6090  -22.7880   -6.8680 C.2     1  UNL1       -0.0280
     24  C         18.1780  -22.6240   -5.5940 C.2     1  UNL1        0.0110
     25  C         17.5190  -23.0870   -4.4490 C.2     1  UNL1        0.0240
     26  C         16.2840  -23.7180   -4.5630 C.2     1  UNL1        0.0340
     27 CL         15.4780  -24.2850   -3.1530 Cl      1  UNL1       -0.0840
     28  C         15.6980  -23.8900   -5.8130 C.2     1  UNL1        0.0240
     29  C         16.3570  -23.4270   -6.9550 C.2     1  UNL1        0.0110
@<TRIPOS>BOND
     1    21    20    1
     2    20    19    2
     3    20    22    1
     4    19    18    1
     5    22    16    2
     6    18    17    2
     7    16    17    1
     8    16    14    1
     9    15    14    1
    10    14    12   am
    11     2     3    1
    12     2     1    2
    13    12     1    1
    14    12    13    2
    15     3     4    2
    16     1     6    1
    17    11    10    2
    18     4    10    1
    19     4     5    1
    20     6     5    2
    21    10     9    1
    22     5     7    1
    23     9     8    1
    24     7     8    1
    25     8    23    1
    26    29    23    2
    27    29    28    1
    28    23    24    1
    29    28    26    2
    30    24    25    2
    31    26    25    1
    32    26    27    1
