@<TRIPOS>MOLECULE
34619_out_ligand_01.pdbqt
 32 35 0 0 0
SMALL
GASTEIGER

@<TRIPOS>ATOM
      1  C         23.7640  -21.9310  -11.3420 C.2     1  UNL1        0.0750
      2  C         23.9990  -21.6360   -9.9990 C.2     1  UNL1        0.0270
      3  C         23.0160  -21.9170   -9.0440 C.2     1  UNL1        0.0310
      4  C         21.7930  -22.4760   -9.4270 C.2     1  UNL1        0.0350
      5  C         21.5640  -22.7480  -10.7850 C.2     1  UNL1        0.0310
      6  C         22.5430  -22.4750  -11.7430 C.2     1  UNL1        0.0270
      7  N         20.7580  -22.7930   -8.5270 N.am    1  UNL1       -0.3230
      8  C         19.4230  -22.4500   -8.6260 C.2     1  UNL1        0.2570
      9  O         18.8670  -21.8430   -9.5310 O.2     1  UNL1       -0.2670
     10  H         21.0210  -23.3470   -7.7200 H       1  UNL1        0.1690
     11  C         18.5950  -22.9450   -7.4980 C.2     1  UNL1        0.0430
     12  C         17.8490  -24.1060   -7.7430 C.2     1  UNL1        0.0180
     13  C         17.0950  -24.6720   -6.7240 C.2     1  UNL1        0.0020
     14  C         17.0840  -24.0790   -5.4620 C.2     1  UNL1        0.0120
     15  C         17.8080  -22.9020   -5.2030 C.2     1  UNL1       -0.0250
     16  C         17.7670  -22.3140   -3.9280 C.2     1  UNL1        0.0120
     17  C         18.5740  -22.3020   -6.2320 C.2     1  UNL1       -0.0100
     18  C         18.4590  -21.1340   -3.6590 C.2     1  UNL1        0.0010
     19  C         19.1940  -20.5190   -4.6630 C.2     1  UNL1        0.0010
     20  C         19.2480  -21.0920   -5.9360 C.2     1  UNL1        0.0130
     21  S         24.9960  -21.5570  -12.5660 S.O2    1  UNL1        0.2480
     22  O         25.7060  -22.7670  -12.9240 O.2     1  UNL1       -0.2050
     23  O         25.7290  -20.4080  -12.0680 O.2     1  UNL1       -0.2050
     24  N         24.1180  -21.0030  -13.8620 N.pl3   1  UNL1       -0.1480
     25  H         23.7240  -20.0800  -13.7180 H       1  UNL1        0.1490
     26  C         24.6800  -21.1630  -15.1230 C.cat   1  UNL1        0.2150
     27  N         25.4760  -20.1520  -15.4810 N.2     1  UNL1       -0.2300
     28  C         25.9270  -20.2030  -16.7470 C.2     1  UNL1        0.1220
     29  C         25.5740  -21.1870  -17.6430 C.2     1  UNL1        0.0460
     30  C         24.7000  -22.1480  -17.1770 C.2     1  UNL1        0.0350
     31  C         24.2350  -23.2550  -18.0750 C.3     1  UNL1        0.0700
     32  N         24.2230  -22.1340  -15.9160 N.2     1  UNL1       -0.2230
@<TRIPOS>BOND
     1    31    30    1
     2    29    30    1
     3    29    28    2
     4    30    32    2
     5    28    27    1
     6    32    26    1
     7    27    26    2
     8    26    24    1
     9    24    25    1
    10    24    21    1
    11    22    21    2
    12    21    23    2
    13    21     1    1
    14     6     1    2
    15     6     5    1
    16     1     2    1
    17     5     4    2
    18     2     3    2
    19     9     8    2
    20     4     3    1
    21     4     7    1
    22     8     7   am
    23     8    11    1
    24     7    10    1
    25    12    11    2
    26    12    13    1
    27    11    17    1
    28    13    14    2
    29    17    20    1
    30    17    15    2
    31    20    19    2
    32    14    15    1
    33    15    16    1
    34    19    18    1
    35    16    18    2
