@<TRIPOS>MOLECULE
34620_out_ligand_01.pdbqt
 32 35 0 0 0
SMALL
GASTEIGER

@<TRIPOS>ATOM
      1  C         18.1600  -23.6270   -8.5720 C.2     1  UNL1        0.0290
      2  C         19.4640  -23.9960   -8.3510 C.2     1  UNL1        0.1100
      3  N         20.2490  -23.3140   -9.2460 N.pl3   1  UNL1       -0.3530
      4  C         19.4700  -22.4830  -10.0270 C.2     1  UNL1        0.0450
      5  C         19.8190  -21.5910  -11.0560 C.2     1  UNL1        0.0300
      6  C         18.7950  -20.8960  -11.7040 C.2     1  UNL1        0.0020
      7  C         17.4660  -21.0840  -11.3430 C.2     1  UNL1        0.0010
      8  C         17.1250  -21.9750  -10.3190 C.2     1  UNL1        0.0150
      9  C         18.1390  -22.6820   -9.6350 C.2     1  UNL1        0.0090
     10  C         21.6890  -23.4890   -9.3540 C.3     1  UNL1        0.1480
     11  C         22.4670  -22.3610   -8.6770 C.3     1  UNL1        0.1430
     12  N         23.2940  -21.6030   -9.6020 N.am    1  UNL1       -0.3550
     13  C         24.3630  -22.1980  -10.2380 C.2     1  UNL1        0.2520
     14  O         24.7880  -23.3120   -9.9750 O.2     1  UNL1       -0.2680
     15  H         22.8620  -20.8230  -10.0890 H       1  UNL1        0.1620
     16  C         24.9830  -21.3720  -11.3040 C.2     1  UNL1        0.0370
     17  C         26.1110  -20.6050  -10.9730 C.2     1  UNL1        0.0170
     18  C         26.7320  -19.8230  -11.9440 C.2     1  UNL1        0.0010
     19  C         26.2320  -19.8090  -13.2450 C.2     1  UNL1        0.0010
     20  C         25.1130  -20.5740  -13.5800 C.2     1  UNL1        0.0070
     21  C         24.4700  -21.3650  -12.6150 C.2     1  UNL1       -0.0460
     22  C         23.2680  -22.1780  -13.0020 C.3     1  UNL1        0.0490
     23  S         16.8000  -24.2800   -7.6970 S.3     1  UNL1       -0.1230
     24  C         16.0810  -22.7730   -6.9750 C.3     1  UNL1        0.1180
     25  C         16.8710  -22.3080   -5.7700 C.2     1  UNL1       -0.0420
     26  C         16.5570  -22.6970   -4.4490 C.2     1  UNL1       -0.0550
     27  C         17.3700  -22.2560   -3.3940 C.2     1  UNL1        0.0080
     28  C         15.3940  -23.6030   -4.1340 C.3     1  UNL1        0.0490
     29  C         18.4770  -21.4370   -3.6330 C.2     1  UNL1        0.0070
     30  C         18.8030  -21.0540   -4.9360 C.2     1  UNL1       -0.0610
     31  C         19.9780  -20.1610   -5.1960 C.3     1  UNL1        0.0480
     32  C         17.9920  -21.4820   -5.9910 C.2     1  UNL1        0.0150
@<TRIPOS>BOND
     1    20    19    2
     2    20    21    1
     3    19    18    1
     4    22    21    1
     5    21    16    2
     6    18    17    2
     7     6     7    2
     8     6     5    1
     9     7     8    1
    10    16    17    1
    11    16    13    1
    12     5     4    2
    13     8     9    2
    14    13    14    2
    15    13    12   am
    16    15    12    1
    17     4     9    1
    18     4     3    1
    19     9     1    1
    20    12    11    1
    21    10     3    1
    22    10    11    1
    23     3     2    1
    24     1     2    2
    25     1    23    1
    26    23    24    1
    27    24    25    1
    28    32    25    2
    29    32    30    1
    30    25    26    1
    31    31    30    1
    32    30    29    2
    33    26    28    1
    34    26    27    2
    35    29    27    1
