@<TRIPOS>MOLECULE
34638_out_ligand_01.pdbqt
 33 36 0 0 0
SMALL
GASTEIGER

@<TRIPOS>ATOM
      1  C         18.5950  -23.1320   -8.7630 C.2     1  UNL1        0.0750
      2  C         18.8760  -22.3910   -9.9120 C.2     1  UNL1        0.0270
      3  C         20.1780  -22.3700  -10.4270 C.2     1  UNL1        0.0310
      4  C         21.1950  -23.1110   -9.8170 C.2     1  UNL1        0.0340
      5  C         20.8950  -23.8720   -8.6770 C.2     1  UNL1        0.0310
      6  C         19.6000  -23.8840   -8.1460 C.2     1  UNL1        0.0270
      7  N         22.5220  -23.1680  -10.2910 N.am    1  UNL1       -0.3270
      8  C         23.5270  -22.2280  -10.1200 C.2     1  UNL1        0.2260
      9  O         23.4220  -21.1720   -9.4980 O.2     1  UNL1       -0.2730
     10  H         22.7680  -24.0170  -10.7900 H       1  UNL1        0.1690
     11  C         24.8440  -22.5420  -10.8310 C.3     1  UNL1        0.1420
     12  C         25.4480  -21.4200  -11.6600 C.2     1  UNL1       -0.0380
     13  C         26.2510  -20.4730  -10.9960 C.2     1  UNL1        0.0080
     14  C         26.7950  -19.3970  -11.6870 C.2     1  UNL1        0.0010
     15  C         26.5460  -19.2490  -13.0480 C.2     1  UNL1        0.0120
     16  C         25.7590  -20.1790  -13.7430 C.2     1  UNL1       -0.0250
     17  C         25.5230  -20.0100  -15.1180 C.2     1  UNL1        0.0120
     18  C         25.2000  -21.2880  -13.0560 C.2     1  UNL1       -0.0190
     19  C         24.7460  -20.9230  -15.8300 C.2     1  UNL1        0.0010
     20  C         24.1940  -22.0170  -15.1740 C.2     1  UNL1        0.0010
     21  C         24.4170  -22.1970  -13.8060 C.2     1  UNL1        0.0130
     22  S         16.9250  -23.2070   -8.1480 S.O2    1  UNL1        0.2480
     23  O         16.5480  -21.8840   -7.7020 O.2     1  UNL1       -0.2050
     24  O         16.1370  -23.8840   -9.1620 O.2     1  UNL1       -0.2050
     25  N         17.0270  -24.2990   -6.8870 N.pl3   1  UNL1       -0.1480
     26  H         16.4010  -25.0800   -7.0530 H       1  UNL1        0.1490
     27  C         16.8050  -23.7510   -5.6280 C.cat   1  UNL1        0.2150
     28  N         15.6480  -24.1220   -5.0710 N.2     1  UNL1       -0.2300
     29  C         15.4140  -23.6030   -3.8500 C.2     1  UNL1        0.1220
     30  C         16.2850  -22.7510   -3.2060 C.2     1  UNL1        0.0460
     31  C         17.4580  -22.4540   -3.8780 C.2     1  UNL1        0.0350
     32  C         18.4560  -21.5080   -3.2720 C.3     1  UNL1        0.0700
     33  N         17.7450  -22.9670   -5.0930 N.2     1  UNL1       -0.2230
@<TRIPOS>BOND
     1    19    20    1
     2    19    17    2
     3    20    21    2
     4    17    16    1
     5    21    18    1
     6    16    18    1
     7    16    15    2
     8    18    12    2
     9    15    14    1
    10    14    13    2
    11    12    13    1
    12    12    11    1
    13    11     8    1
    14    10     7    1
    15     3     2    1
    16     3     4    2
    17     7     8   am
    18     7     4    1
    19     8     9    2
    20     2     1    2
    21     4     5    1
    22    24    22    2
    23     1    22    1
    24     1     6    1
    25     5     6    2
    26    22    23    2
    27    22    25    1
    28    26    25    1
    29    25    27    1
    30    27    33    1
    31    27    28    2
    32    33    31    2
    33    28    29    1
    34    31    32    1
    35    31    30    1
    36    29    30    2
