@<TRIPOS>MOLECULE
34670_out_ligand_01.pdbqt
 33 36 0 0 0
SMALL
GASTEIGER

@<TRIPOS>ATOM
      1  C         23.7430  -21.9000  -11.4140 C.2     1  UNL1        0.0750
      2  C         22.5860  -22.5980  -11.7660 C.2     1  UNL1        0.0270
      3  C         21.6330  -22.8870  -10.7860 C.2     1  UNL1        0.0310
      4  C         21.8300  -22.4880   -9.4550 C.2     1  UNL1        0.0350
      5  C         22.9990  -21.8020   -9.1170 C.2     1  UNL1        0.0310
      6  C         23.9610  -21.5150  -10.0920 C.2     1  UNL1        0.0270
      7  N         20.8140  -22.8090   -8.5330 N.am    1  UNL1       -0.3230
      8  C         19.4690  -22.5050   -8.6230 C.2     1  UNL1        0.2570
      9  O         18.8990  -21.8620   -9.4920 O.2     1  UNL1       -0.2670
     10  H         21.1070  -23.3130   -7.7030 H       1  UNL1        0.1690
     11  C         18.6700  -22.9980   -7.4730 C.2     1  UNL1        0.0430
     12  C         17.9490  -24.1800   -7.6850 C.2     1  UNL1        0.0180
     13  C         17.1260  -24.6780   -6.6830 C.2     1  UNL1        0.0020
     14  C         17.0260  -23.9980   -5.4700 C.2     1  UNL1        0.0120
     15  C         17.7590  -22.8230   -5.2300 C.2     1  UNL1       -0.0250
     16  C         17.6540  -22.1650   -3.9940 C.2     1  UNL1        0.0120
     17  C         18.6130  -22.3050   -6.2350 C.2     1  UNL1       -0.0100
     18  C         18.3920  -21.0120   -3.7290 C.2     1  UNL1        0.0010
     19  C         19.2510  -20.5050   -4.6930 C.2     1  UNL1        0.0010
     20  C         19.3660  -21.1450   -5.9290 C.2     1  UNL1        0.0130
     21  S         24.9660  -21.5600  -12.6570 S.O2    1  UNL1        0.2480
     22  O         25.8100  -20.4680  -12.2190 O.2     1  UNL1       -0.2050
     23  O         25.5590  -22.8370  -13.0050 O.2     1  UNL1       -0.2050
     24  N         24.0750  -21.1000  -13.9820 N.pl3   1  UNL1       -0.1480
     25  H         23.1340  -21.4770  -13.9860 H       1  UNL1        0.1490
     26  C         24.6970  -21.1820  -15.2220 C.cat   1  UNL1        0.2160
     27  N         25.5030  -20.1950  -15.6060 N.2     1  UNL1       -0.2230
     28  C         25.9600  -20.2590  -16.8720 C.2     1  UNL1        0.0360
     29  C         25.5760  -21.2620  -17.7410 C.2     1  UNL1        0.0530
     30  C         26.9030  -19.1840  -17.3180 C.3     1  UNL1        0.0700
     31  C         24.6880  -22.2040  -17.2530 C.2     1  UNL1        0.0360
     32  C         24.2060  -23.3150  -18.1340 C.3     1  UNL1        0.0700
     33  N         24.2170  -22.1630  -15.9900 N.2     1  UNL1       -0.2230
@<TRIPOS>BOND
     1    32    31    1
     2    29    31    1
     3    29    28    2
     4    30    28    1
     5    31    33    2
     6    28    27    1
     7    33    26    1
     8    27    26    2
     9    26    24    1
    10    25    24    1
    11    24    21    1
    12    23    21    2
    13    21    22    2
    14    21     1    1
    15     2     1    2
    16     2     3    1
    17     1     6    1
    18     3     4    2
    19     6     5    2
    20     9     8    2
    21     4     5    1
    22     4     7    1
    23     8     7   am
    24     8    11    1
    25     7    10    1
    26    12    11    2
    27    12    13    1
    28    11    17    1
    29    13    14    2
    30    17    20    1
    31    17    15    2
    32    20    19    2
    33    14    15    1
    34    15    16    1
    35    19    18    1
    36    16    18    2
