@<TRIPOS>MOLECULE
34700_out_ligand_01.pdbqt
 33 36 0 0 0
SMALL
GASTEIGER

@<TRIPOS>ATOM
      1  O         16.5970  -21.3870  -10.3380 O.2     1  UNL1       -0.2730
      2  C         16.8910  -22.4170   -9.7410 C.2     1  UNL1        0.2220
      3  N         18.1350  -23.0180   -9.6840 N.am    1  UNL1       -0.3270
      4  H         18.2460  -23.7780   -9.0110 H       1  UNL1        0.1690
      5  C         19.3050  -22.6430  -10.3740 C.2     1  UNL1        0.0340
      6  C         19.3280  -21.7750  -11.4630 C.2     1  UNL1        0.0300
      7  C         20.5370  -21.4830  -12.1070 C.2     1  UNL1        0.0170
      8  C         21.7450  -22.0550  -11.6850 C.2     1  UNL1        0.0100
      9  C         21.7170  -22.9110  -10.5770 C.2     1  UNL1        0.0170
     10  C         20.5090  -23.2010   -9.9310 C.2     1  UNL1        0.0300
     11  C         22.9760  -21.7530  -12.4250 C.ar    1  UNL1        0.1390
     12  N         24.2060  -21.8330  -11.9450 N.ar    1  UNL1       -0.2280
     13  C         25.0390  -21.3890  -12.9410 C.ar    1  UNL1        0.0860
     14  C         26.4330  -21.2410  -12.9480 C.2     1  UNL1        0.0340
     15  C         24.3150  -21.0420  -14.0730 C.ar    1  UNL1        0.0620
     16  C         27.0490  -20.7340  -14.0980 C.2     1  UNL1        0.0020
     17  C         26.2920  -20.3900  -15.2230 C.2     1  UNL1        0.0020
     18  C         24.9000  -20.5400  -15.2390 C.2     1  UNL1        0.0320
     19  N         23.0150  -21.2950  -13.7230 N.ar    1  UNL1       -0.3380
     20  H         22.2150  -21.1220  -14.3070 H       1  UNL1        0.1670
     21  C         15.8590  -23.1310   -8.8840 C.3     1  UNL1        0.1040
     22  C         15.7020  -22.4870   -7.5080 C.3     1  UNL1        0.0240
     23  C         15.3470  -23.4330   -6.3630 C.3     1  UNL1        0.1460
     24  S         16.7720  -24.1080   -5.5320 S.O2    1  UNL1        0.1750
     25  O         17.3460  -25.1550   -6.3600 O.2     1  UNL1       -0.2230
     26  O         16.4110  -24.3760   -4.1540 O.2     1  UNL1       -0.2230
     27  C         17.9190  -22.7480   -5.5450 C.2     1  UNL1        0.0590
     28  C         17.8260  -21.7640   -4.5520 C.2     1  UNL1        0.0260
     29  C         18.7400  -20.7090   -4.5470 C.2     1  UNL1        0.0440
     30  C         19.7200  -20.6430   -5.5320 C.2     1  UNL1        0.1160
     31  F         20.6010  -19.6340   -5.5170 F       1  UNL1       -0.2060
     32  C         19.8020  -21.6090   -6.5310 C.2     1  UNL1        0.0440
     33  C         18.8940  -22.6710   -6.5440 C.2     1  UNL1        0.0260
@<TRIPOS>BOND
     1    18    17    2
     2    18    15    1
     3    17    16    1
     4    20    19    1
     5    16    14    2
     6    15    19   ar
     7    15    13   ar
     8    19    11   ar
     9    14    13    1
    10    13    12   ar
    11    11    12   ar
    12    11     8    1
    13     7     8    2
    14     7     6    1
    15     8     9    1
    16     6     5    2
    17     9    10    2
    18     5    10    1
    19     5     3    1
    20     1     2    2
    21     2     3   am
    22     2    21    1
    23     3     4    1
    24    21    22    1
    25    22    23    1
    26    33    32    1
    27    33    27    2
    28    32    30    2
    29    23    24    1
    30    25    24    2
    31    27    24    1
    32    27    28    1
    33    24    26    2
    34    30    31    1
    35    30    29    1
    36    28    29    2
