@<TRIPOS>MOLECULE
34722_out_ligand_01.pdbqt
 34 38 0 0 0
SMALL
GASTEIGER

@<TRIPOS>ATOM
      1  C         20.7150  -22.3340  -10.2170 C.ar    1  UNL1        0.1530
      2  N         21.2620  -21.4560  -11.0400 N.ar    1  UNL1       -0.1330
      3  N         20.2500  -20.7290  -11.6250 N.ar    1  UNL1       -0.1280
      4  C         19.1080  -21.1830  -11.1570 C.ar    1  UNL1        0.1740
      5  C         17.7660  -20.8260  -11.3990 C.2     1  UNL1        0.0570
      6  C         16.7910  -21.4830  -10.7570 C.2     1  UNL1        0.0440
      7  C         17.2120  -22.5690   -9.8350 C.2     1  UNL1        0.1140
      8  N         18.4240  -22.9370   -9.5680 N.2     1  UNL1       -0.1580
      9  N         19.3480  -22.2040  -10.2590 N.ar    1  UNL1       -0.1970
     10  C         21.4120  -23.3280   -9.3540 C.3     1  UNL1        0.1020
     11  C         22.9330  -23.2720   -9.5180 C.3     1  UNL1        0.1300
     12  N         23.3570  -23.4440  -10.8980 N.am    1  UNL1       -0.3560
     13  C         24.3130  -22.6210  -11.4570 C.2     1  UNL1        0.2510
     14  O         24.9270  -21.7780  -10.8130 O.2     1  UNL1       -0.2680
     15  H         22.7000  -23.9170  -11.5080 H       1  UNL1        0.1620
     16  C         24.5420  -22.7670  -12.9210 C.2     1  UNL1        0.0320
     17  C         24.1390  -21.7230  -13.7630 C.2     1  UNL1        0.0170
     18  C         24.3310  -21.8150  -15.1440 C.2     1  UNL1        0.0070
     19  C         24.9270  -22.9510  -15.7010 C.2     1  UNL1       -0.0620
     20  C         25.1670  -23.0390  -17.1800 C.3     1  UNL1        0.0480
     21  C         25.3550  -23.9830  -14.8550 C.2     1  UNL1        0.0070
     22  C         25.1650  -23.8930  -13.4730 C.2     1  UNL1        0.0170
     23  S         15.8860  -23.3910   -9.0530 S.3     1  UNL1       -0.1040
     24  C         16.8110  -24.2090   -7.7150 C.3     1  UNL1        0.1200
     25  C         16.5650  -23.5630   -6.3650 C.2     1  UNL1       -0.0370
     26  C         15.4310  -23.9920   -5.6450 C.2     1  UNL1        0.0090
     27  C         15.1560  -23.4930   -4.3780 C.2     1  UNL1        0.0010
     28  C         16.0120  -22.5600   -3.8030 C.2     1  UNL1        0.0120
     29  C         17.1490  -22.1070   -4.4870 C.2     1  UNL1       -0.0250
     30  C         18.0010  -21.1740   -3.8740 C.2     1  UNL1        0.0120
     31  C         17.4400  -22.5930   -5.7890 C.2     1  UNL1       -0.0190
     32  C         19.1420  -20.7070   -4.5210 C.2     1  UNL1        0.0010
     33  C         19.4380  -21.1570   -5.7990 C.2     1  UNL1        0.0010
     34  C         18.5950  -22.0790   -6.4250 C.2     1  UNL1        0.0130
@<TRIPOS>BOND
     1    20    19    1
     2    19    18    2
     3    19    21    1
     4    18    17    1
     5    21    22    2
     6    17    16    2
     7    22    16    1
     8    16    13    1
     9     3     4   ar
    10     3     2   ar
    11    15    12    1
    12    13    12   am
    13    13    14    2
    14     5     4    1
    15     5     6    2
    16     4     9   ar
    17     2     1   ar
    18    12    11    1
    19     6     7    1
    20     9     1   ar
    21     9     8    1
    22     1    10    1
    23     7     8    2
    24     7    23    1
    25    11    10    1
    26    23    24    1
    27    24    25    1
    28    34    33    2
    29    34    31    1
    30    25    31    2
    31    25    26    1
    32    33    32    1
    33    31    29    1
    34    26    27    2
    35    32    30    2
    36    29    30    1
    37    29    28    2
    38    27    28    1
