@<TRIPOS>MOLECULE
34723_out_ligand_01.pdbqt
 35 38 0 0 0
SMALL
GASTEIGER

@<TRIPOS>ATOM
      1  C         24.0830  -21.9840  -10.1840 C.ar    1  UNL1        0.2310
      2  N         23.8920  -23.2500   -9.8590 N.ar    1  UNL1       -0.1140
      3  N         23.0280  -23.2620   -8.7870 N.ar    1  UNL1       -0.1240
      4  C         22.7630  -21.9980   -8.5190 C.ar    1  UNL1        0.1870
      5  O         23.3930  -21.1300   -9.3680 O.2     1  UNL1       -0.2670
      6  S         25.0680  -21.4470  -11.5060 S.3     1  UNL1       -0.0730
      7  C         24.1430  -22.1080  -12.9200 C.3     1  UNL1        0.1860
      8  C         22.6920  -21.6480  -12.8820 C.2     1  UNL1        0.2310
      9  O         22.2610  -20.8700  -13.7290 O.2     1  UNL1       -0.2720
     10  N         21.9710  -22.1920  -11.8310 N.am    1  UNL1       -0.3260
     11  H         22.4960  -22.7490  -11.1600 H       1  UNL1        0.1690
     12  C         20.6170  -21.9730  -11.5070 C.2     1  UNL1        0.0370
     13  C         20.0510  -20.7540  -11.9460 C.2     1  UNL1        0.0320
     14  C         18.7150  -20.4350  -11.6790 C.2     1  UNL1        0.0420
     15  C         17.9720  -21.3530  -10.9730 C.2     1  UNL1        0.1050
     16  C         18.5130  -22.5400  -10.5420 C.2     1  UNL1        0.1070
     17  O         16.6650  -21.2180  -10.6240 O.2     1  UNL1       -0.3230
     18  C         19.8300  -22.8790  -10.7890 C.2     1  UNL1        0.0690
     19  O         17.6110  -23.3020   -9.8650 O.2     1  UNL1       -0.3230
     20  C         16.4400  -22.4630   -9.9310 C.3     1  UNL1        0.3520
     21  C         21.9020  -21.4270   -7.4530 C.3     1  UNL1        0.2110
     22  N         20.6270  -22.1220   -7.4370 N.am    1  UNL1       -0.3490
     23  C         19.6450  -21.7570   -6.5410 C.2     1  UNL1        0.2520
     24  O         19.7420  -20.7810   -5.8060 O.2     1  UNL1       -0.2680
     25  H         20.6220  -23.0630   -7.8100 H       1  UNL1        0.1630
     26  C         18.4410  -22.6350   -6.4690 C.2     1  UNL1        0.0320
     27  C         18.5550  -23.9510   -6.9330 C.2     1  UNL1        0.0170
     28  C         17.4570  -24.8100   -6.8900 C.2     1  UNL1        0.0020
     29  C         16.2390  -24.3630   -6.3760 C.2     1  UNL1        0.0160
     30  C         16.1110  -23.0540   -5.8860 C.2     1  UNL1        0.0480
     31  C         17.2220  -22.1930   -5.9380 C.2     1  UNL1        0.0330
     32  C         14.7940  -22.5580   -5.3380 C.3     1  UNL1        0.4170
     33  F         13.9470  -23.5800   -5.0410 F       1  UNL1       -0.1660
     34  F         14.1260  -21.7640   -6.2200 F       1  UNL1       -0.1660
     35  F         14.9190  -21.8270   -4.1970 F       1  UNL1       -0.1660
@<TRIPOS>BOND
     1     9     8    2
     2     7     8    1
     3     7     6    1
     4     8    10   am
     5    13    14    1
     6    13    12    2
     7    10    12    1
     8    10    11    1
     9    14    15    2
    10    12    18    1
    11     6     1    1
    12    15    17    1
    13    15    16    1
    14    18    16    2
    15    17    20    1
    16    16    19    1
    17     1     2   ar
    18     1     5   ar
    19    20    19    1
    20     2     3   ar
    21     5     4   ar
    22     3     4   ar
    23     4    21    1
    24    25    22    1
    25    21    22    1
    26    22    23   am
    27    27    28    1
    28    27    26    2
    29    28    29    2
    30    23    26    1
    31    23    24    2
    32    26    31    1
    33    29    30    1
    34    34    32    1
    35    31    30    2
    36    30    32    1
    37    32    33    1
    38    32    35    1
