@<TRIPOS>MOLECULE
34731_out_ligand_01.pdbqt
 35 38 0 0 0
SMALL
GASTEIGER

@<TRIPOS>ATOM
      1  C         19.5170  -22.2740  -10.6870 C.2     1  UNL1        0.0340
      2  C         19.2600  -21.3420  -11.7000 C.2     1  UNL1        0.0180
      3  C         20.2940  -20.9240  -12.5450 C.2     1  UNL1        0.0170
      4  C         21.5900  -21.4380  -12.3980 C.ar    1  UNL1        0.0260
      5  C         22.7080  -21.0300  -13.2720 C.ar    1  UNL1        0.1050
      6  C         23.9320  -21.5670  -13.0920 C.ar    1  UNL1        0.1650
      7  C         24.1760  -22.5660  -12.0260 C.ar    1  UNL1        0.2700
      8  O         25.2680  -23.0910  -11.8420 O.2     1  UNL1       -0.2660
      9  N         23.1110  -22.9100  -11.2370 N.ar    1  UNL1       -0.3210
     10  C         21.8270  -22.3800  -11.3890 C.ar    1  UNL1        0.0490
     11  C         20.8040  -22.8040  -10.5400 C.2     1  UNL1        0.0470
     12  H         23.2980  -23.5980  -10.5160 H       1  UNL1        0.1690
     13  C         18.4410  -22.7620   -9.7820 C.2     1  UNL1        0.2560
     14  N         18.6830  -22.5710   -8.4340 N.am    1  UNL1       -0.3230
     15  H         19.6080  -22.2580   -8.1700 H       1  UNL1        0.1690
     16  O         17.4690  -23.3080  -10.2900 O.2     1  UNL1       -0.2670
     17  C         17.8090  -22.8470   -7.3600 C.2     1  UNL1        0.0350
     18  C         18.2560  -23.7430   -6.3870 C.2     1  UNL1        0.0300
     19  C         17.4610  -24.0440   -5.2790 C.2     1  UNL1        0.0090
     20  C         16.2030  -23.4530   -5.1150 C.2     1  UNL1       -0.0560
     21  C         15.3770  -23.8000   -3.9080 C.3     1  UNL1        0.0490
     22  C         15.7320  -22.5670   -6.1020 C.2     1  UNL1       -0.0540
     23  C         16.5510  -22.2640   -7.2090 C.2     1  UNL1        0.0370
     24  C         14.3970  -21.8840   -5.9830 C.3     1  UNL1        0.0490
     25  O         22.3590  -20.0990  -14.2330 O.3     1  UNL1       -0.3580
     26  H         21.8620  -19.3470  -13.8350 H       1  UNL1        0.2170
     27  S         25.2560  -21.1080  -14.0940 S.O2    1  UNL1        0.2150
     28  O         25.1960  -19.6670  -14.3210 O.2     1  UNL1       -0.2170
     29  O         26.4960  -21.6750  -13.5970 O.2     1  UNL1       -0.2170
     30  C         24.8860  -21.8500  -15.6700 C.2     1  UNL1        0.0640
     31  C         24.5010  -23.1910  -15.7400 C.2     1  UNL1        0.0240
     32  C         24.2410  -23.7640  -16.9860 C.2     1  UNL1        0.0020
     33  C         24.3790  -23.0060  -18.1490 C.2     1  UNL1        0.0000
     34  C         24.7790  -21.6720  -18.0740 C.2     1  UNL1        0.0020
     35  C         25.0380  -21.0880  -16.8330 C.2     1  UNL1        0.0240
@<TRIPOS>BOND
     1    33    34    2
     2    33    32    1
     3    34    35    1
     4    32    31    2
     5    35    30    2
     6    31    30    1
     7    30    27    1
     8    28    27    2
     9    25    26    1
    10    25     5    1
    11    27    29    2
    12    27     6    1
    13     5     6   ar
    14     5     4   ar
    15     6     7   ar
    16     3     4    2
    17     3     2    1
    18     4    10   ar
    19     7     8    2
    20     7     9   ar
    21     2     1    2
    22    10     9   ar
    23    10    11    2
    24     9    12    1
    25     1    11    1
    26     1    13    1
    27    16    13    2
    28    13    14   am
    29    14    15    1
    30    14    17    1
    31    17    23    2
    32    17    18    1
    33    23    22    1
    34    18    19    2
    35    22    24    1
    36    22    20    2
    37    19    20    1
    38    20    21    1
