@<TRIPOS>MOLECULE
34792_out_ligand_01.pdbqt
 34 37 0 0 0
SMALL
GASTEIGER

@<TRIPOS>ATOM
      1  C         23.8720  -22.9180  -14.9030 C.3     1  UNL1        0.0490
      2  C         24.0880  -21.5180  -14.3010 C.3     1  UNL1        0.1550
      3  C         24.4510  -20.5700  -15.4650 C.3     1  UNL1        0.0490
      4  C         22.7820  -20.9960  -13.6360 C.3     1  UNL1        0.0810
      5  C         22.5480  -21.6290  -12.2940 C.ar    1  UNL1       -0.0210
      6  C         23.6140  -22.1830  -11.6030 C.ar    1  UNL1        0.0300
      7  S         23.1060  -22.9190  -10.1540 S.2     1  UNL1       -0.0730
      8  C         21.4830  -22.5320  -10.4270 C.ar    1  UNL1        0.0930
      9  C         21.2940  -21.7780  -11.5810 C.ar    1  UNL1        0.0730
     10  C         25.0660  -22.1910  -12.0620 C.3     1  UNL1        0.1850
     11  C         25.9440  -21.4280  -11.0410 C.3     1  UNL1        0.0540
     12  C         25.6300  -23.6170  -12.1960 C.3     1  UNL1        0.0540
     13  N         25.2340  -21.4780  -13.3610 N.3     1  UNL1        0.1060
     14  H         25.4310  -20.4980  -13.1520 H       1  UNL1        0.3180
     15  N         20.4820  -22.9520   -9.5640 N.am    1  UNL1       -0.3200
     16  C         20.4140  -24.1360   -8.8520 C.2     1  UNL1        0.2260
     17  O         21.2620  -25.0230   -8.7960 O.2     1  UNL1       -0.2730
     18  H         19.6900  -22.3150   -9.5060 H       1  UNL1        0.1690
     19  C         19.1150  -24.2660   -8.0680 C.3     1  UNL1        0.1420
     20  C         18.9580  -23.1770   -7.0270 C.2     1  UNL1       -0.0380
     21  C         19.9520  -22.1790   -6.9990 C.2     1  UNL1        0.0080
     22  C         19.9080  -21.1500   -6.0680 C.2     1  UNL1        0.0010
     23  C         18.8700  -21.1010   -5.1450 C.2     1  UNL1        0.0120
     24  C         17.8660  -22.0800   -5.1350 C.2     1  UNL1       -0.0250
     25  C         16.8370  -22.0080   -4.1820 C.2     1  UNL1        0.0120
     26  C         17.8940  -23.1390   -6.0800 C.2     1  UNL1       -0.0190
     27  C         15.8280  -22.9650   -4.1380 C.2     1  UNL1        0.0010
     28  C         15.8350  -24.0090   -5.0520 C.2     1  UNL1        0.0010
     29  C         16.8500  -24.0920   -6.0110 C.2     1  UNL1        0.0130
     30  C         19.9650  -21.2780  -11.9430 C.2     1  UNL1        0.2520
     31  N         19.7860  -19.9260  -11.9150 N.am    1  UNL1       -0.3660
     32  H         20.4050  -19.3440  -11.3720 H       1  UNL1        0.1590
     33  H         18.8260  -19.6180  -12.0010 H       1  UNL1        0.1590
     34  O         19.0120  -22.0160  -12.1860 O.2     1  UNL1       -0.2680
@<TRIPOS>BOND
     1     3     2    1
     2     1     2    1
     3     2     4    1
     4     2    13    1
     5     4     5    1
     6    13    14    1
     7    13    10    1
     8     5     6   ar
     9     5     9   ar
    10    12    10    1
    11    34    30    2
    12    10     6    1
    13    10    11    1
    14    33    31    1
    15    30    31   am
    16    30     9    1
    17    31    32    1
    18     6     7   ar
    19     9     8   ar
    20     8     7   ar
    21     8    15    1
    22    15    18    1
    23    15    16   am
    24    16    17    2
    25    16    19    1
    26    19    20    1
    27    20    21    2
    28    20    26    1
    29    21    22    1
    30    26    29    1
    31    26    24    2
    32    22    23    2
    33    29    28    2
    34    23    24    1
    35    24    25    1
    36    28    27    1
    37    25    27    2
