@<TRIPOS>MOLECULE
34824_out_ligand_01.pdbqt
 36 41 0 0 0
SMALL
GASTEIGER

@<TRIPOS>ATOM
      1  C         21.2920  -21.6570  -10.6770 C.2     1  UNL1        0.0760
      2  C         20.4400  -20.8280  -11.4390 C.2     1  UNL1        0.1590
      3  N         19.1630  -20.8880  -11.0660 N.2     1  UNL1       -0.1640
      4  N         19.1360  -21.8670  -10.1080 N.pl3   1  UNL1       -0.0630
      5  C         20.4280  -22.2300   -9.7520 C.2     1  UNL1        0.0760
      6  C         22.7280  -21.8750  -10.8090 C.2     1  UNL1        0.2550
      7  O         23.5590  -21.2700  -10.1390 O.2     1  UNL1       -0.2680
      8  N         23.0910  -22.8330  -11.7370 N.am    1  UNL1       -0.3560
      9  H         22.3890  -23.2420  -12.3350 H       1  UNL1        0.1620
     10  C         24.4820  -23.0920  -12.0670 C.3     1  UNL1        0.1290
     11  C         24.7000  -23.1820  -13.5880 C.3     1  UNL1        0.0260
     12  C         25.9730  -23.9890  -13.9170 C.3     1  UNL1        0.0100
     13  C         26.6010  -23.6180  -15.2590 C.3     1  UNL1        0.0200
     14  C         25.5930  -23.0480  -16.2480 C.3     1  UNL1        0.1170
     15  N         24.7730  -21.9550  -15.7320 N.3     1  UNL1       -0.4080
     16  C         24.8720  -20.7020  -16.4780 C.3     1  UNL1        0.1170
     17  C         24.6990  -21.7920  -14.2710 C.3     1  UNL1        0.0840
     18  C         26.0060  -19.8080  -15.9830 C.3     1  UNL1        0.0190
     19  C         25.8480  -19.5240  -14.4940 C.3     1  UNL1        0.0040
     20  C         25.7690  -20.8290  -13.7040 C.3     1  UNL1        0.0250
     21  C         20.8430  -23.1360   -8.5510 C.3     1  UNL1        0.0390
     22  C         20.3600  -24.5680   -8.5120 C.3     1  UNL1        0.0110
     23  C         21.7980  -24.2800   -8.7980 C.3     1  UNL1        0.0110
     24  C         17.8850  -22.4200   -9.6430 C.cat   1  UNL1        0.7500
     25  N         17.1120  -23.0660  -10.5490 N.2     1  UNL1       -0.0730
     26  C         16.0130  -23.6770  -10.0890 C.2     1  UNL1        0.1390
     27  C         15.6560  -23.6870   -8.7650 C.2     1  UNL1        0.0530
     28  C         16.4890  -23.0080   -7.8960 C.2     1  UNL1        0.0900
     29  N         17.5870  -22.3430   -8.3270 N.2     1  UNL1       -0.0600
     30  C         16.2430  -22.9680   -6.4460 C.2     1  UNL1        0.0320
     31  C         15.1260  -22.2950   -5.9190 C.2     1  UNL1        0.0170
     32  C         14.8820  -22.2600   -4.5400 C.2     1  UNL1        0.0010
     33  C         15.7570  -22.8940   -3.6600 C.2     1  UNL1        0.0030
     34  C         16.8740  -23.5610   -4.1560 C.2     1  UNL1        0.0430
     35  C         17.1060  -23.5930   -5.5320 C.2     1  UNL1        0.1290
     36  F         18.1980  -24.2450   -5.9680 F       1  UNL1       -0.2050
@<TRIPOS>BOND
     1    16    18    1
     2    16    15    1
     3    14    15    1
     4    14    13    1
     5    18    19    1
     6    15    17    1
     7    13    12    1
     8    19    20    1
     9    17    20    1
    10    17    11    1
    11    12    11    1
    12    11    10    1
    13     9     8    1
    14    10     8    1
    15     8     6   am
    16     2     3    2
    17     2     1    1
    18     3     4    1
    19     6     1    1
    20     6     7    2
    21     1     5    2
    22    25    26    1
    23    25    24    2
    24     4     5    1
    25     4    24    1
    26    26    27    2
    27     5    21    1
    28    24    29    1
    29    23    21    1
    30    23    22    1
    31    27    28    1
    32    21    22    1
    33    29    28    2
    34    28    30    1
    35    30    31    2
    36    30    35    1
    37    36    35    1
    38    31    32    1
    39    35    34    2
    40    32    33    2
    41    34    33    1
