@<TRIPOS>MOLECULE
34833_out_ligand_01.pdbqt
 32 36 0 0 0
SMALL
GASTEIGER

@<TRIPOS>ATOM
      1  C         17.8210  -21.6990  -10.6760 C.2     1  UNL1        0.1580
      2  C         19.1150  -22.0900  -10.4020 C.2     1  UNL1        0.1460
      3  N         19.8690  -21.3830  -11.2860 N.pl3   1  UNL1       -0.2800
      4  N         19.1070  -20.6020  -12.0700 N.2     1  UNL1        0.0050
      5  N         17.8440  -20.7870  -11.7080 N.2     1  UNL1       -0.1530
      6  C         16.6000  -22.1450  -10.0210 C.2     1  UNL1        0.2730
      7  O         15.4980  -22.0940  -10.5590 O.2     1  UNL1       -0.2660
      8  N         16.8020  -22.6160   -8.7430 N.am    1  UNL1       -0.3550
      9  H         17.7520  -22.6110   -8.3850 H       1  UNL1        0.1620
     10  C         15.7260  -23.1210   -7.9160 C.3     1  UNL1        0.1240
     11  C         15.9580  -24.5790   -7.5260 C.3     1  UNL1        0.0410
     12  C         17.2320  -24.7700   -6.7080 C.3     1  UNL1        0.1530
     13  N         17.2800  -23.9290   -5.5270 N.pl3   1  UNL1       -0.2690
     14  N         16.5610  -24.2840   -4.4420 N.2     1  UNL1       -0.1840
     15  C         16.8260  -23.3160   -3.5620 C.2     1  UNL1        0.1520
     16  C         17.7200  -22.3470   -4.0670 C.2     1  UNL1        0.0110
     17  C         18.3140  -21.1710   -3.5790 C.2     1  UNL1        0.0150
     18  C         18.0060  -22.7730   -5.3620 C.2     1  UNL1        0.0640
     19  C         19.1830  -20.4570   -4.4120 C.2     1  UNL1        0.0010
     20  C         19.4580  -20.9020   -5.7050 C.2     1  UNL1        0.0020
     21  C         18.8760  -22.0700   -6.2080 C.2     1  UNL1        0.0320
     22  C         21.3020  -21.4080  -11.4510 C.3     1  UNL1        0.1800
     23  C         21.9880  -22.5130  -10.6380 C.3     1  UNL1        0.1720
     24  C         22.7140  -22.0100   -9.3900 C.3     1  UNL1        0.2100
     25  O         23.7480  -21.0830   -9.7370 O.2     1  UNL1       -0.3460
     26  C         24.5480  -21.5990  -10.7240 C.2     1  UNL1        0.1020
     27  C         25.8010  -21.0170  -10.8900 C.2     1  UNL1        0.0390
     28  C         24.1420  -22.6450  -11.5620 C.2     1  UNL1        0.1020
     29  C         26.6670  -21.5000  -11.8730 C.2     1  UNL1        0.0030
     30  C         26.2750  -22.5610  -12.6900 C.2     1  UNL1        0.0030
     31  C         25.0110  -23.1340  -12.5350 C.2     1  UNL1        0.0390
     32  O         22.9040  -23.2300  -11.4920 O.2     1  UNL1       -0.3390
@<TRIPOS>BOND
     1    30    31    2
     2    30    29    1
     3    31    28    1
     4     4     5    2
     5     4     3    1
     6    29    27    2
     7     5     1    1
     8    28    32    1
     9    28    26    2
    10    32    23    1
    11    22     3    1
    12    22    23    1
    13     3     2    1
    14    27    26    1
    15    26    25    1
    16     1     2    2
    17     1     6    1
    18    23    24    1
    19     7     6    2
    20     6     8   am
    21    25    24    1
    22     8     9    1
    23     8    10    1
    24    10    11    1
    25    11    12    1
    26    12    13    1
    27    21    20    2
    28    21    18    1
    29    20    19    1
    30    13    18    1
    31    13    14    1
    32    18    16    2
    33    14    15    2
    34    19    17    2
    35    16    17    1
    36    16    15    1
