@<TRIPOS>MOLECULE
34839_out_ligand_01.pdbqt
 30 33 0 0 0
SMALL
GASTEIGER

@<TRIPOS>ATOM
      1  C         21.8640  -21.9020  -11.4780 C.2     1  UNL1       -0.0230
      2  C         20.9690  -21.1700  -12.2640 C.2     1  UNL1        0.0130
      3  C         19.5940  -21.2270  -12.0190 C.2     1  UNL1        0.0380
      4  C         19.0670  -22.0160  -10.9900 C.2     1  UNL1        0.0760
      5  C         19.9300  -22.7860  -10.2070 C.2     1  UNL1        0.0040
      6  C         21.3170  -22.7150  -10.4620 C.2     1  UNL1        0.0220
      7  C         19.4470  -23.7300   -9.1320 C.3     1  UNL1        0.3140
      8  N         18.8000  -23.0540   -8.0060 N.3     1  UNL1        0.0990
      9  C         17.7330  -22.1210   -8.3930 C.3     1  UNL1        0.2990
     10  C         17.0440  -22.4360   -9.7280 C.3     1  UNL1        0.2060
     11  O         17.7100  -21.9170  -10.8790 O.2     1  UNL1       -0.3490
     12  C         18.4510  -23.9560   -6.8990 C.3     1  UNL1        0.3170
     13  C         17.3310  -23.5270   -5.9870 C.2     1  UNL1        0.0500
     14  C         17.5290  -22.5860   -4.9710 C.2     1  UNL1        0.1270
     15  F         18.7400  -22.0470   -4.7850 F       1  UNL1       -0.2050
     16  C         16.4920  -22.1880   -4.1250 C.2     1  UNL1        0.0460
     17  C         15.2220  -22.7400   -4.2780 C.2     1  UNL1        0.0480
     18  C         15.0110  -23.6870   -5.2730 C.2     1  UNL1        0.1550
     19  F         13.7920  -24.2240   -5.4180 F       1  UNL1       -0.2030
     20  C         16.0520  -24.0780   -6.1140 C.2     1  UNL1        0.1650
     21  F         15.8150  -24.9980   -7.0610 F       1  UNL1       -0.2020
     22  C         23.3800  -21.8880  -11.6950 C.3     1  UNL1        0.0880
     23  C         23.8880  -21.1020  -12.9240 C.3     1  UNL1        0.0730
     24  C         24.0900  -22.0120  -14.1320 C.3     1  UNL1        0.2750
     25  N         25.0540  -23.0940  -13.8940 N.3     1  UNL1        0.0840
     26  C         26.3490  -22.8250  -14.5160 C.3     1  UNL1        0.3090
     27  C         25.2260  -23.4300  -12.4720 C.3     1  UNL1        0.2750
     28  C         23.9080  -23.3370  -11.7070 C.3     1  UNL1        0.0730
     29  O         23.9660  -21.2190  -10.5590 O.3     1  UNL1       -0.3850
     30  H         24.9080  -21.0820  -10.7640 H       1  UNL1        0.2110
@<TRIPOS>BOND
     1    26    25    1
     2    24    25    1
     3    24    23    1
     4    25    27    1
     5    23    22    1
     6    27    28    1
     7     2     3    1
     8     2     1    2
     9     3     4    2
    10    28    22    1
    11    22     1    1
    12    22    29    1
    13     1     6    1
    14     4    11    1
    15     4     5    1
    16    11    10    1
    17    30    29    1
    18     6     5    2
    19     5     7    1
    20    10     9    1
    21     7     8    1
    22     9     8    1
    23     8    12    1
    24    21    20    1
    25    12    13    1
    26    20    13    2
    27    20    18    1
    28    13    14    1
    29    19    18    1
    30    18    17    2
    31    14    15    1
    32    14    16    2
    33    17    16    1
