@<TRIPOS>MOLECULE
34855_out_ligand_01.pdbqt
 28 31 0 0 0
SMALL
GASTEIGER

@<TRIPOS>ATOM
      1  C         22.1130  -22.1100  -11.3850 C.ar    1  UNL1        0.1810
      2  N         21.3330  -21.2410  -12.0040 N.ar    1  UNL1       -0.2210
      3  C         20.0910  -21.4850  -11.4810 C.ar    1  UNL1        0.0930
      4  C         18.8500  -20.8870  -11.7380 C.2     1  UNL1        0.0360
      5  C         17.7270  -21.3620  -11.0400 C.2     1  UNL1        0.0190
      6  C         17.8450  -22.4110  -10.1090 C.2     1  UNL1        0.0340
      7  C         19.0820  -23.0250   -9.8510 C.2     1  UNL1        0.0560
      8  C         20.1620  -22.5140  -10.5580 C.ar    1  UNL1        0.1070
      9  O         21.4620  -22.9180  -10.4840 O.2     1  UNL1       -0.2890
     10  C         16.6510  -22.9330   -9.3950 C.2     1  UNL1        0.2510
     11  O         15.5320  -22.7480   -9.8560 O.2     1  UNL1       -0.2680
     12  N         16.9020  -23.6340   -8.2350 N.am    1  UNL1       -0.3540
     13  H         17.8220  -24.0430   -8.1260 H       1  UNL1        0.1620
     14  C         15.8310  -24.3790   -7.5930 C.3     1  UNL1        0.1550
     15  C         15.6750  -24.0030   -6.1110 C.3     1  UNL1        0.1390
     16  C         15.2620  -22.5440   -5.9130 C.3     1  UNL1        0.0340
     17  C         15.0310  -22.2510   -4.4300 C.3     1  UNL1        0.0050
     18  C         15.8200  -23.1950   -3.5250 C.3     1  UNL1        0.0260
     19  C         17.1160  -23.6280   -4.1930 C.3     1  UNL1        0.1680
     20  O         16.9250  -24.2750   -5.4540 O.3     1  UNL1       -0.3840
     21  C         23.5490  -22.3310  -11.5420 C.2     1  UNL1        0.0200
     22  C         24.4520  -21.5380  -10.8190 C.2     1  UNL1        0.0160
     23  C         25.8270  -21.7240  -10.9550 C.2     1  UNL1        0.0040
     24  C         26.3120  -22.7120  -11.8120 C.2     1  UNL1        0.0370
     25  C         25.4310  -23.5200  -12.5360 C.2     1  UNL1        0.0690
     26  C         24.0540  -23.3250  -12.4010 C.2     1  UNL1        0.0520
     27  O         26.0390  -24.4550  -13.3300 O.2     1  UNL1       -0.3560
     28  C         25.4580  -24.6900  -14.6070 C.3     1  UNL1        0.2100
@<TRIPOS>BOND
     1    28    27    1
     2    27    25    1
     3    25    26    1
     4    25    24    2
     5    26    21    2
     6     2     3   ar
     7     2     1   ar
     8    24    23    1
     9     4     3    2
    10     4     5    1
    11    21     1    1
    12    21    22    1
    13     3     8   ar
    14     1     9   ar
    15     5     6    2
    16    23    22    2
    17     8     9   ar
    18     8     7    2
    19     6     7    1
    20     6    10    1
    21    11    10    2
    22    10    12   am
    23    12    13    1
    24    12    14    1
    25    14    15    1
    26    15    16    1
    27    15    20    1
    28    16    17    1
    29    20    19    1
    30    17    18    1
    31    19    18    1
