@<TRIPOS>MOLECULE
34883_out_ligand_01.pdbqt
 33 37 0 0 0
SMALL
GASTEIGER

@<TRIPOS>ATOM
      1  C         20.0870  -22.8140   -7.9340 C.2     1  UNL1       -0.0230
      2  C         20.4600  -21.6090   -7.3120 C.2     1  UNL1        0.0130
      3  C         19.8580  -21.1870   -6.1280 C.2     1  UNL1        0.0380
      4  C         18.8680  -21.9590   -5.5150 C.2     1  UNL1        0.0760
      5  C         18.4420  -23.1490   -6.1150 C.2     1  UNL1        0.0040
      6  C         19.0780  -23.5680   -7.3110 C.2     1  UNL1        0.0220
      7  C         17.3470  -24.0420   -5.5610 C.3     1  UNL1        0.3140
      8  N         16.1730  -23.3710   -5.0020 N.3     1  UNL1        0.1000
      9  C         16.4240  -22.7320   -3.7060 C.3     1  UNL1        0.2990
     10  C         17.8730  -22.3320   -3.4080 C.3     1  UNL1        0.2060
     11  O         18.3700  -21.4040   -4.3670 O.2     1  UNL1       -0.3490
     12  C         20.7930  -23.2270   -9.2340 C.3     1  UNL1        0.0880
     13  C         20.9290  -22.1220  -10.3030 C.3     1  UNL1        0.0620
     14  C         22.0590  -22.4480  -11.2790 C.3     1  UNL1        0.1260
     15  N         23.3320  -22.4440  -10.5480 N.pl3   1  UNL1       -0.3780
     16  C         23.3230  -22.9330   -9.1650 C.3     1  UNL1        0.1260
     17  C         22.1580  -23.8940   -8.9480 C.3     1  UNL1        0.0620
     18  O         19.9590  -24.2450   -9.8330 O.3     1  UNL1       -0.3850
     19  H         20.4580  -25.0810   -9.8060 H       1  UNL1        0.2110
     20  C         24.5360  -22.2270  -11.2140 C.2     1  UNL1        0.0690
     21  C         25.3680  -21.1480  -10.8590 C.2     1  UNL1        0.0320
     22  C         26.5800  -20.8900  -11.5140 C.2     1  UNL1        0.0020
     23  C         27.0000  -21.7100  -12.5560 C.2     1  UNL1        0.0030
     24  C         26.2040  -22.7810  -12.9400 C.2     1  UNL1        0.0440
     25  C         24.9970  -23.0290  -12.2800 C.2     1  UNL1        0.1420
     26  F         24.2930  -24.0970  -12.6900 F       1  UNL1       -0.2040
     27  C         15.5100  -22.4950   -5.9840 C.3     1  UNL1        0.3330
     28  C         15.5720  -23.0970   -7.3650 C.2     1  UNL1        0.0840
     29  C         15.8980  -22.4450   -8.5800 C.2     1  UNL1        0.0490
     30  C         15.8290  -23.4230   -9.5420 C.2     1  UNL1        0.1110
     31  N         15.4850  -24.5660   -8.8880 N.pl3   1  UNL1       -0.2890
     32  N         15.3460  -24.4070   -7.5630 N.2     1  UNL1       -0.1780
     33  H         15.3350  -25.4910   -9.2760 H       1  UNL1        0.1880
@<TRIPOS>BOND
     1    24    23    2
     2    24    25    1
     3    26    25    1
     4    23    22    1
     5    25    20    2
     6    22    21    2
     7    14    15    1
     8    14    13    1
     9    20    21    1
    10    20    15    1
    11    15    16    1
    12    13    12    1
    13    18    19    1
    14    18    12    1
    15    30    31    1
    16    30    29    2
    17    33    31    1
    18    12    17    1
    19    12     1    1
    20    16    17    1
    21    31    32    1
    22    29    28    1
    23     1     2    2
    24     1     6    1
    25    32    28    2
    26    28    27    1
    27     2     3    1
    28     6     5    2
    29     3     4    2
    30     5     7    1
    31     5     4    1
    32    27     8    1
    33     7     8    1
    34     4    11    1
    35     8     9    1
    36    11    10    1
    37     9    10    1
