@<TRIPOS>MOLECULE
34891_out_ligand_01.pdbqt
 36 40 0 0 0
SMALL
GASTEIGER

@<TRIPOS>ATOM
      1  C         20.9760  -21.6040  -10.8560 C.2     1  UNL1        0.0760
      2  C         19.9880  -21.0610  -11.7030 C.2     1  UNL1        0.1590
      3  N         18.7490  -21.4080  -11.3640 N.2     1  UNL1       -0.1640
      4  N         18.9000  -22.1400  -10.2150 N.pl3   1  UNL1       -0.0630
      5  C         20.2480  -22.3450   -9.9410 C.2     1  UNL1        0.0760
      6  C         22.4140  -21.4200  -10.9110 C.2     1  UNL1        0.2560
      7  O         23.0920  -21.0790   -9.9480 O.2     1  UNL1       -0.2680
      8  N         22.9760  -21.6660  -12.1450 N.am    1  UNL1       -0.3400
      9  H         22.4180  -22.1430  -12.8400 H       1  UNL1        0.1630
     10  C         24.4390  -21.7160  -12.2900 C.3     1  UNL1        0.2270
     11  C         24.8100  -21.1350  -13.6410 C.2     1  UNL1       -0.0090
     12  C         25.7870  -20.1430  -13.8010 C.2     1  UNL1        0.0120
     13  C         26.0860  -19.6640  -15.0730 C.2     1  UNL1        0.0200
     14  C         25.4050  -20.1940  -16.1530 C.2     1  UNL1        0.1160
     15  N         24.4660  -21.1570  -16.0430 N.2     1  UNL1       -0.2720
     16  C         24.1920  -21.6050  -14.7970 C.2     1  UNL1        0.1250
     17  C         25.0520  -23.1230  -12.0490 C.3     1  UNL1        0.4110
     18  F         26.3100  -23.2220  -12.5310 F       1  UNL1       -0.1680
     19  F         24.3200  -24.0940  -12.6420 F       1  UNL1       -0.1680
     20  F         25.1150  -23.4100  -10.7240 F       1  UNL1       -0.1680
     21  C         20.8490  -23.2120   -8.7910 C.3     1  UNL1        0.0390
     22  C         21.9600  -24.1900   -9.0880 C.3     1  UNL1        0.0110
     23  C         20.5890  -24.6990   -8.7800 C.3     1  UNL1        0.0110
     24  C         17.7550  -22.5810   -9.4550 C.cat   1  UNL1        0.7500
     25  N         16.7220  -23.1390  -10.1250 N.2     1  UNL1       -0.0730
     26  C         15.6580  -23.5150   -9.3980 C.2     1  UNL1        0.1390
     27  C         15.5800  -23.3630   -8.0350 C.2     1  UNL1        0.0530
     28  C         16.6740  -22.7860   -7.4210 C.2     1  UNL1        0.0900
     29  N         17.7620  -22.3970   -8.1190 N.2     1  UNL1       -0.0600
     30  C         16.7440  -22.5780   -5.9700 C.2     1  UNL1        0.0320
     31  C         15.5870  -22.6140   -5.1700 C.2     1  UNL1        0.0170
     32  C         15.6590  -22.4260   -3.7840 C.2     1  UNL1        0.0010
     33  C         16.8900  -22.1980   -3.1730 C.2     1  UNL1        0.0030
     34  C         18.0470  -22.1590   -3.9450 C.2     1  UNL1        0.0430
     35  C         17.9690  -22.3470   -5.3250 C.2     1  UNL1        0.1290
     36  F         19.1080  -22.2770   -6.0320 F       1  UNL1       -0.2050
@<TRIPOS>BOND
     1    14    15    2
     2    14    13    1
     3    15    16    1
     4    13    12    2
     5    16    11    2
     6    12    11    1
     7    11    10    1
     8     9     8    1
     9    19    17    1
    10    18    17    1
    11    10     8    1
    12    10    17    1
    13     8     6   am
    14    17    20    1
    15     2     3    2
    16     2     1    1
    17     3     4    1
    18     6     1    1
    19     6     7    2
    20     1     5    2
    21     4     5    1
    22     4    24    1
    23    25    24    2
    24    25    26    1
    25     5    21    1
    26    24    29    1
    27    26    27    2
    28    22    21    1
    29    22    23    1
    30    21    23    1
    31    29    28    2
    32    27    28    1
    33    28    30    1
    34    36    35    1
    35    30    35    2
    36    30    31    1
    37    35    34    1
    38    31    32    2
    39    34    33    2
    40    32    33    1
