@<TRIPOS>MOLECULE
34945_out_ligand_01.pdbqt
 33 38 0 0 0
SMALL
GASTEIGER

@<TRIPOS>ATOM
      1  C         21.3720  -22.0840  -11.4320 C.2     1  UNL1        0.0760
      2  C         20.3370  -21.4590  -12.1600 C.2     1  UNL1        0.1590
      3  N         19.1860  -21.3880  -11.4950 N.2     1  UNL1       -0.1640
      4  N         19.4220  -22.0770  -10.3340 N.pl3   1  UNL1       -0.0630
      5  C         20.7720  -22.3840  -10.2190 C.2     1  UNL1        0.0760
      6  C         18.3420  -22.4150   -9.4390 C.cat   1  UNL1        0.7500
      7  N         17.3050  -23.0990   -9.9480 N.2     1  UNL1       -0.0730
      8  C         16.3460  -23.4520   -9.0830 C.2     1  UNL1        0.1460
      9  C         16.3610  -23.1970   -7.7150 C.2     1  UNL1       -0.0100
     10  C         17.4720  -22.5020   -7.2580 C.2     1  UNL1        0.0940
     11  C         15.1800  -23.7270   -6.9540 C.3     1  UNL1        0.0430
     12  N         18.4410  -22.0920   -8.1320 N.2     1  UNL1       -0.0600
     13  C         17.7900  -22.1430   -5.8400 C.2     1  UNL1        0.0000
     14  C         18.6190  -21.0220   -5.5930 C.2     1  UNL1        0.0140
     15  C         17.3670  -22.8650   -4.7020 C.2     1  UNL1       -0.0460
     16  C         19.0320  -20.6440   -4.3130 C.2     1  UNL1        0.0010
     17  C         18.6270  -21.3850   -3.2180 C.2     1  UNL1        0.0010
     18  C         17.7970  -22.4840   -3.4110 C.2     1  UNL1        0.0080
     19  C         16.4220  -24.0340   -4.7890 C.3     1  UNL1        0.0400
     20  C         15.1280  -23.5810   -5.4430 C.3     1  UNL1        0.0090
     21  C         21.4860  -22.9330   -8.9460 C.3     1  UNL1        0.0390
     22  C         21.4730  -22.0600   -7.7100 C.3     1  UNL1        0.0110
     23  C         22.7550  -22.2910   -8.4430 C.3     1  UNL1        0.0110
     24  C         22.7400  -22.3450  -11.8460 C.2     1  UNL1        0.2550
     25  O         23.3880  -23.3150  -11.4630 O.2     1  UNL1       -0.2680
     26  N         23.2690  -21.4130  -12.7010 N.am    1  UNL1       -0.3510
     27  H         22.7710  -20.5640  -12.9400 H       1  UNL1        0.1630
     28  C         24.6330  -21.5150  -13.1700 C.3     1  UNL1        0.1890
     29  C         24.6540  -22.3290  -14.4300 C.2     1  UNL1        0.0920
     30  N         24.0880  -21.9630  -15.5680 N.2     1  UNL1       -0.2560
     31  C         24.3130  -22.9350  -16.5270 C.2     1  UNL1        0.1240
     32  C         25.0430  -24.0270  -16.1120 C.2     1  UNL1        0.0710
     33  S         25.4640  -23.8470  -14.4600 S.3     1  UNL1       -0.0840
@<TRIPOS>BOND
     1    31    32    2
     2    31    30    1
     3    32    33    1
     4    30    29    2
     5    33    29    1
     6    29    28    1
     7    28    26    1
     8    27    26    1
     9    26    24   am
    10     2     3    2
    11     2     1    1
    12    24    25    2
    13    24     1    1
    14     3     4    1
    15     1     5    2
    16     4     5    1
    17     4     6    1
    18     5    21    1
    19     7     6    2
    20     7     8    1
    21     6    12    1
    22     8     9    2
    23    21    23    1
    24    21    22    1
    25    23    22    1
    26    12    10    2
    27     9    10    1
    28     9    11    1
    29    10    13    1
    30    11    20    1
    31    13    14    2
    32    13    15    1
    33    14    16    1
    34    20    19    1
    35    19    15    1
    36    15    18    2
    37    16    17    2
    38    18    17    1
