@<TRIPOS>MOLECULE
34947_out_ligand_01.pdbqt
 30 33 0 0 0
SMALL
GASTEIGER

@<TRIPOS>ATOM
      1  C         17.1140  -22.3240  -10.1390 C.2     1  UNL1       -0.0290
      2  C         17.0930  -21.2220  -11.0030 C.2     1  UNL1        0.0110
      3  C         18.2620  -20.7300  -11.5910 C.2     1  UNL1        0.0310
      4  C         19.4630  -21.3770  -11.2820 C.ar    1  UNL1        0.0430
      5  N         20.7430  -21.1120  -11.7040 N.ar    1  UNL1       -0.3540
      6  C         21.6400  -21.9920  -11.1440 C.ar    1  UNL1        0.0500
      7  C         20.9120  -22.8620  -10.3410 C.ar    1  UNL1       -0.0220
      8  C         21.4470  -24.0000   -9.5420 C.3     1  UNL1        0.0510
      9  C         19.5360  -22.4700  -10.4240 C.ar    1  UNL1       -0.0010
     10  C         18.3410  -22.9460   -9.8420 C.2     1  UNL1        0.0230
     11  H         20.9930  -20.3550  -12.3220 H       1  UNL1        0.1660
     12  C         15.8330  -22.8250   -9.5120 C.3     1  UNL1        0.3080
     13  N         15.9730  -24.2220   -9.1000 N.3     1  UNL1        0.0920
     14  H         15.2790  -24.7860   -9.5890 H       1  UNL1        0.3160
     15  C         15.8650  -24.4040   -7.6480 C.3     1  UNL1        0.2240
     16  C         17.2330  -24.4620   -6.9390 C.3     1  UNL1        0.0550
     17  C         17.5590  -23.1910   -6.1600 C.3     1  UNL1        0.1280
     18  N         16.5070  -22.8630   -5.1990 N.am    1  UNL1       -0.3520
     19  C         16.7220  -22.2770   -3.9590 C.2     1  UNL1        0.2150
     20  C         15.1290  -23.1550   -5.5880 C.3     1  UNL1        0.1280
     21  C         18.1380  -21.8900   -3.6150 C.3     1  UNL1        0.1170
     22  O         15.8130  -22.0770   -3.1530 O.2     1  UNL1       -0.2740
     23  C         14.9810  -23.2750   -7.1000 C.3     1  UNL1        0.0550
     24  C         23.0730  -21.9020  -11.4180 C.2     1  UNL1       -0.0090
     25  C         23.5730  -22.1930  -12.6950 C.2     1  UNL1        0.0170
     26  C         24.9410  -22.1020  -12.9560 C.2     1  UNL1        0.0430
     27  C         25.8080  -21.7190  -11.9380 C.2     1  UNL1        0.1160
     28  F         27.1210  -21.6310  -12.1880 F       1  UNL1       -0.2060
     29  C         25.3330  -21.4260  -10.6660 C.2     1  UNL1        0.0430
     30  C         23.9640  -21.5190  -10.4060 C.2     1  UNL1        0.0170
@<TRIPOS>BOND
     1    26    25    1
     2    26    27    2
     3    25    24    2
     4    11     5    1
     5    28    27    1
     6    27    29    1
     7     5     4   ar
     8     5     6   ar
     9     3     4    2
    10     3     2    1
    11    24     6    1
    12    24    30    1
    13     4     9   ar
    14     6     7   ar
    15     2     1    2
    16    29    30    2
    17     9     7   ar
    18     9    10    2
    19     7     8    1
    20     1    10    1
    21     1    12    1
    22    14    13    1
    23    12    13    1
    24    13    15    1
    25    15    23    1
    26    15    16    1
    27    23    20    1
    28    16    17    1
    29    17    18    1
    30    20    18    1
    31    18    19   am
    32    19    21    1
    33    19    22    2
