@<TRIPOS>MOLECULE
34953_out_ligand_01.pdbqt
 34 38 0 0 0
SMALL
GASTEIGER

@<TRIPOS>ATOM
      1  N         17.0710  -21.6890  -10.6740 N.pl3   1  UNL1       -0.2700
      2  C         18.2040  -22.4060  -10.4160 C.2     1  UNL1        0.1440
      3  C         19.2300  -21.7610  -11.0630 C.2     1  UNL1        0.0710
      4  C         18.6060  -20.6580  -11.6890 C.2     1  UNL1        0.1690
      5  N         17.2880  -20.6110  -11.4660 N.2     1  UNL1       -0.1820
      6  C         15.7260  -22.0010  -10.2290 C.3     1  UNL1        0.2530
      7  C         15.6410  -23.3540   -9.5550 C.2     1  UNL1        0.2370
      8  O         15.1920  -24.3370  -10.1420 O.2     1  UNL1       -0.2720
      9  N         16.0090  -23.3680   -8.2240 N.am    1  UNL1       -0.3570
     10  H         16.5370  -22.5560   -7.8990 H       1  UNL1        0.1620
     11  C         16.1590  -24.6120   -7.4830 C.3     1  UNL1        0.1590
     12  C         17.2090  -24.5090   -6.3460 C.3     1  UNL1        0.1720
     13  O         16.6380  -23.9610   -5.1430 O.3     1  UNL1       -0.3790
     14  C         16.5260  -22.5380   -5.1830 C.3     1  UNL1        0.1730
     15  C         17.9170  -21.9180   -5.1690 C.3     1  UNL1        0.0650
     16  C         18.7790  -22.5070   -6.2550 C.2     1  UNL1       -0.0470
     17  C         19.9330  -21.8350   -6.6810 C.2     1  UNL1        0.0080
     18  C         18.4600  -23.7670   -6.7930 C.2     1  UNL1       -0.0210
     19  C         20.7590  -22.4010   -7.6490 C.2     1  UNL1        0.0010
     20  C         20.4500  -23.6460   -8.1880 C.2     1  UNL1        0.0010
     21  C         19.3100  -24.3290   -7.7600 C.2     1  UNL1        0.0100
     22  N         20.5710  -22.0960  -11.1110 N.am    1  UNL1       -0.3200
     23  C         21.4620  -21.6610  -12.0760 C.2     1  UNL1        0.2560
     24  O         21.2040  -20.9610  -13.0470 O.2     1  UNL1       -0.2670
     25  H         20.8890  -22.7510  -10.4080 H       1  UNL1        0.1690
     26  C         22.8630  -22.1330  -11.8980 C.2     1  UNL1        0.0350
     27  C         23.2540  -22.5960  -10.6200 C.2     1  UNL1        0.0200
     28  C         24.5550  -23.0600  -10.3960 C.2     1  UNL1        0.0410
     29  C         25.4260  -23.0570  -11.4630 C.2     1  UNL1        0.1050
     30  C         25.0440  -22.6200  -12.7110 C.2     1  UNL1        0.1060
     31  O         26.7190  -23.4760  -11.4340 O.2     1  UNL1       -0.3230
     32  C         23.7710  -22.1560  -12.9670 C.2     1  UNL1        0.0560
     33  O         26.0490  -22.7130  -13.6220 O.2     1  UNL1       -0.3230
     34  C         27.1040  -23.2730  -12.8100 C.3     1  UNL1        0.3520
@<TRIPOS>BOND
     1    33    34    1
     2    33    30    1
     3    24    23    2
     4    32    30    1
     5    32    26    2
     6    34    31    1
     7    30    29    2
     8    23    26    1
     9    23    22   am
    10    26    27    1
    11     4     5    2
    12     4     3    1
    13     5     1    1
    14    29    31    1
    15    29    28    1
    16    22     3    1
    17    22    25    1
    18     3     2    2
    19     1     2    1
    20     1     6    1
    21    27    28    2
    22     6     7    1
    23     8     7    2
    24     7     9   am
    25     9    10    1
    26     9    11    1
    27    20    21    2
    28    20    19    1
    29    21    18    1
    30    19    17    2
    31    11    12    1
    32    18    12    1
    33    18    16    2
    34    17    16    1
    35    12    13    1
    36    16    15    1
    37    14    15    1
    38    14    13    1
