@<TRIPOS>MOLECULE
34961_out_ligand_01.pdbqt
 38 43 0 0 0
SMALL
GASTEIGER

@<TRIPOS>ATOM
      1  C         24.3500  -21.5800  -13.7560 C.ar    1  UNL1        0.1520
      2  N         23.7160  -20.5850  -14.3500 N.ar    1  UNL1       -0.1330
      3  N         22.4550  -20.5050  -13.8260 N.ar    1  UNL1       -0.1350
      4  C         22.3310  -21.4390  -12.9040 C.ar    1  UNL1        0.1320
      5  N         23.4970  -22.1680  -12.8590 N.ar    1  UNL1       -0.3170
      6  C         23.7430  -23.3070  -12.0000 C.3     1  UNL1        0.1620
      7  C         23.7080  -22.9730  -10.4990 C.3     1  UNL1        0.2930
      8  N         22.6350  -22.0610  -10.0860 N.3     1  UNL1        0.0940
      9  C         21.3430  -22.3770  -10.7050 C.3     1  UNL1        0.2800
     10  C         21.1340  -21.6120  -12.0200 C.3     1  UNL1        0.1110
     11  C         25.7760  -21.9690  -14.0140 C.3     1  UNL1        0.1520
     12  C         26.6840  -21.3740  -12.9440 C.3     1  UNL1        0.0400
     13  N         26.1340  -21.4360  -15.3220 N.am    1  UNL1       -0.3500
     14  C         25.6070  -21.9890  -16.4730 C.2     1  UNL1        0.2180
     15  O         24.9910  -23.0520  -16.4820 O.2     1  UNL1       -0.2740
     16  H         26.2910  -20.4320  -15.3350 H       1  UNL1        0.1630
     17  C         25.8310  -21.1190  -17.6950 C.3     1  UNL1        0.1070
     18  C         27.1210  -20.3020  -17.6440 C.3     1  UNL1        0.0470
     19  C         26.8860  -18.8710  -17.2180 C.2     1  UNL1       -0.0580
     20  C         26.4690  -17.9140  -18.1520 C.2     1  UNL1        0.0070
     21  C         26.2740  -16.5870  -17.7700 C.2     1  UNL1        0.0010
     22  C         26.4990  -16.2030  -16.4490 C.2     1  UNL1        0.0000
     23  C         26.9080  -17.1470  -15.5080 C.2     1  UNL1        0.0010
     24  C         27.1060  -18.4750  -15.8920 C.2     1  UNL1        0.0070
     25  C         22.5790  -21.8690   -8.6320 C.3     1  UNL1        0.3110
     26  C         21.2670  -22.3350   -8.0220 C.2     1  UNL1       -0.0300
     27  C         20.5980  -23.4700   -8.5390 C.2     1  UNL1        0.0100
     28  C         19.3680  -23.8920   -8.0230 C.2     1  UNL1        0.0130
     29  C         18.8000  -23.1610   -6.9950 C.2     1  UNL1       -0.0190
     30  C         19.4530  -22.0210   -6.4830 C.2     1  UNL1       -0.0420
     31  C         17.5510  -23.3410   -6.2870 C.3     1  UNL1       -0.0190
     32  C         20.6760  -21.5970   -6.9830 C.2     1  UNL1        0.0170
     33  C         18.6270  -21.3980   -5.3740 C.2     1  UNL1        0.0780
     34  C         17.4230  -22.3150   -5.3260 C.2     1  UNL1       -0.0430
     35  C         16.3150  -22.2320   -4.5010 C.2     1  UNL1        0.0080
     36  C         15.3180  -23.2010   -4.6420 C.2     1  UNL1        0.0010
     37  C         15.4390  -24.2230   -5.6000 C.2     1  UNL1        0.0010
     38  C         16.5610  -24.2990   -6.4320 C.2     1  UNL1        0.0130
@<TRIPOS>BOND
     1    20    21    1
     2    20    19    2
     3    21    22    2
     4    17    18    1
     5    17    14    1
     6    18    19    1
     7    19    24    1
     8    15    14    2
     9    14    13   am
    10    22    23    1
    11    24    23    2
    12    16    13    1
    13    13    11    1
    14     2     3   ar
    15     2     1   ar
    16    11     1    1
    17    11    12    1
    18     3     4   ar
    19     1     5   ar
    20     4     5   ar
    21     4    10    1
    22     5     6    1
    23    10     9    1
    24     6     7    1
    25     9     8    1
    26     7     8    1
    27     8    25    1
    28    25    26    1
    29    27    28    1
    30    27    26    2
    31    28    29    2
    32    26    32    1
    33    29    30    1
    34    29    31    1
    35    32    30    2
    36    30    33    1
    37    38    31    1
    38    38    37    2
    39    31    34    1
    40    37    36    1
    41    33    34    2
    42    34    35    1
    43    36    35    2
