@<TRIPOS>MOLECULE
3499_out_ligand_01.pdbqt
 38 41 0 0 0
SMALL
GASTEIGER

@<TRIPOS>ATOM
      1  C         18.4940  -22.8240   -9.5120 C.2     1  UNL1        0.0580
      2  C         17.1860  -22.4350   -9.8200 C.2     1  UNL1        0.0310
      3  C         16.9390  -21.4440  -10.7740 C.2     1  UNL1        0.0020
      4  C         18.0000  -20.8110  -11.4140 C.2     1  UNL1        0.0010
      5  C         19.3090  -21.1810  -11.1110 C.2     1  UNL1        0.0190
      6  C         19.5630  -22.2070  -10.1840 C.2     1  UNL1        0.0590
      7  C         20.9690  -22.5440   -9.8550 C.2     1  UNL1        0.2560
      8  O         21.1850  -23.1100   -8.7840 O.2     1  UNL1       -0.2670
      9  N         21.9880  -22.1790  -10.7470 N.am    1  UNL1       -0.3470
     10  C         21.7870  -22.2360  -12.2040 C.3     1  UNL1        0.1300
     11  C         23.3560  -22.4620  -10.3040 C.3     1  UNL1        0.1300
     12  C         22.8010  -21.3860  -12.9760 C.3     1  UNL1        0.0540
     13  C         24.2120  -21.7290  -12.5500 C.2     1  UNL1       -0.0760
     14  C         25.2090  -22.1290  -13.3570 C.2     1  UNL1        0.0160
     15  C         24.4030  -21.6290  -11.0510 C.3     1  UNL1        0.0540
     16  C         25.1140  -22.2700  -14.8170 C.2     1  UNL1       -0.0130
     17  C         25.1280  -21.1090  -15.6060 C.2     1  UNL1        0.0370
     18  C         25.0550  -21.2020  -16.9950 C.2     1  UNL1        0.0350
     19 CL         25.0690  -19.7710  -17.9500 Cl      1  UNL1       -0.0840
     20  C         24.9730  -22.4460  -17.6170 C.2     1  UNL1        0.0250
     21  C         24.9630  -23.6090  -16.8430 C.2     1  UNL1        0.0260
     22  C         25.0330  -23.5230  -15.4490 C.2     1  UNL1        0.0440
     23 CL         25.0070  -24.9980  -14.5460 Cl      1  UNL1       -0.0830
     24  N         18.7010  -23.7940   -8.4740 N.pl3   1  UNL1       -0.2800
     25  H         19.0320  -24.7130   -8.8030 H       1  UNL1        0.1790
     26  S         17.5480  -23.9690   -7.2500 S.O2    1  UNL1        0.2660
     27  O         17.7520  -25.2410   -6.5850 O.2     1  UNL1       -0.2000
     28  O         16.2500  -23.6480   -7.8060 O.2     1  UNL1       -0.2000
     29  C         17.9730  -22.6890   -6.0900 C.2     1  UNL1        0.1140
     30  C         19.0940  -21.8890   -6.3540 C.2     1  UNL1        0.0470
     31  C         19.4920  -20.9460   -5.4130 C.2     1  UNL1        0.0120
     32  C         18.7990  -20.8110   -4.2130 C.2     1  UNL1        0.0220
     33 BR         20.9840  -19.8390   -5.7600 Br      1  UNL1       -0.0510
     34  C         17.6790  -21.6090   -3.9550 C.2     1  UNL1        0.0400
     35  C         17.2480  -22.5530   -4.8960 C.2     1  UNL1        0.0920
     36  O         16.1320  -23.3230   -4.7540 O.2     1  UNL1       -0.3500
     37  C         14.9310  -22.6970   -4.3050 C.3     1  UNL1        0.1710
     38  C         14.2810  -22.0330   -5.5060 C.3     1  UNL1        0.0340
@<TRIPOS>BOND
     1    19    18    1
     2    20    18    2
     3    20    21    1
     4    18    17    1
     5    21    22    2
     6    17    16    2
     7    22    16    1
     8    22    23    1
     9    16    14    1
    10    14    13    2
    11    12    13    1
    12    12    10    1
    13    13    15    1
    14    10     9    1
    15     4     5    2
    16     4     3    1
    17     5     6    1
    18    15    11    1
    19     3     2    2
    20     9    11    1
    21     9     7   am
    22     6     7    1
    23     6     1    2
    24     7     8    2
    25     2     1    1
    26     1    24    1
    27    25    24    1
    28    24    26    1
    29    28    26    2
    30    26    27    2
    31    26    29    1
    32    30    29    2
    33    30    31    1
    34    29    35    1
    35    33    31    1
    36    38    37    1
    37    31    32    2
    38    35    36    1
    39    35    34    2
    40    36    37    1
    41    32    34    1
