@<TRIPOS>MOLECULE
34992_out_ligand_01.pdbqt
 34 37 0 0 0
SMALL
GASTEIGER

@<TRIPOS>ATOM
      1  C         20.1870  -20.7500  -12.1690 C.3     1  UNL1        0.0500
      2  C         19.1180  -21.3300  -11.2800 C.2     1  UNL1       -0.0320
      3  C         17.7800  -20.9540  -11.4860 C.2     1  UNL1        0.0090
      4  C         16.7720  -21.4910  -10.6990 C.2     1  UNL1        0.0020
      5  C         17.1000  -22.4020   -9.7020 C.2     1  UNL1        0.0170
      6  C         18.4460  -22.7870   -9.4770 C.2     1  UNL1        0.0340
      7  C         18.8560  -23.7030   -8.4900 C.3     1  UNL1        0.1180
      8  N         20.1390  -24.0730   -8.3470 N.2     1  UNL1       -0.2190
      9  C         21.0400  -23.5030   -9.1590 C.2     1  UNL1        0.1460
     10  N         20.7440  -22.6140  -10.1290 N.pl3   1  UNL1       -0.2300
     11  C         19.4630  -22.2550  -10.2840 C.2     1  UNL1        0.0780
     12  C         22.4870  -23.9370   -9.0250 C.3     1  UNL1        0.2030
     13  N         23.3220  -23.4400  -10.1110 N.am    1  UNL1       -0.3540
     14  C         23.7220  -22.1220  -10.1370 C.2     1  UNL1        0.2180
     15  O         23.5700  -21.3520   -9.1960 O.2     1  UNL1       -0.2740
     16  H         23.1630  -23.8920  -11.0030 H       1  UNL1        0.1620
     17  C         24.3200  -21.7180  -11.4720 C.3     1  UNL1        0.1070
     18  C         24.5800  -22.9060  -12.3940 C.3     1  UNL1        0.0510
     19  C         24.5040  -22.5410  -13.8380 C.2     1  UNL1       -0.0210
     20  C         23.8400  -21.4400  -14.4230 C.2     1  UNL1        0.1470
     21  N         23.9610  -21.4130  -15.7520 N.2     1  UNL1       -0.1850
     22  N         24.7040  -22.5010  -16.0250 N.pl3   1  UNL1       -0.2850
     23  C         25.0250  -22.8180  -17.3940 C.3     1  UNL1        0.1790
     24  C         25.0630  -23.2030  -14.9140 C.2     1  UNL1        0.1200
     25  N         17.8910  -24.2770   -7.6330 N.3     1  UNL1       -0.2720
     26  H         16.9710  -23.9410   -7.9030 H       1  UNL1        0.1290
     27  C         18.1360  -24.0800   -6.2090 C.3     1  UNL1        0.1350
     28  C         16.9400  -23.4030   -5.5920 C.2     1  UNL1       -0.0060
     29  C         15.8100  -23.0910   -6.3660 C.2     1  UNL1        0.0110
     30  C         14.6990  -22.4770   -5.7810 C.2     1  UNL1        0.0010
     31  C         14.7020  -22.1740   -4.4200 C.2     1  UNL1        0.0030
     32  C         15.8160  -22.4860   -3.6420 C.2     1  UNL1        0.0430
     33  C         16.9210  -23.0960   -4.2300 C.2     1  UNL1        0.1230
     34  F         17.9820  -23.3780   -3.4600 F       1  UNL1       -0.2060
@<TRIPOS>BOND
     1    23    22    1
     2    22    21    1
     3    22    24    1
     4    21    20    2
     5    24    19    2
     6    20    19    1
     7    19    18    1
     8    18    17    1
     9     1     2    1
    10     3     2    2
    11     3     4    1
    12    17    14    1
    13     2    11    1
    14    16    13    1
    15     4     5    2
    16    11    10    1
    17    11     6    2
    18    14    13   am
    19    14    15    2
    20    10     9    1
    21    13    12    1
    22     5     6    1
    23     6     7    1
    24     9    12    1
    25     9     8    2
    26     7     8    1
    27     7    25    1
    28    26    25    1
    29    25    27    1
    30    29    30    1
    31    29    28    2
    32    27    28    1
    33    30    31    2
    34    28    33    1
    35    31    32    1
    36    33    32    2
    37    33    34    1
