@<TRIPOS>MOLECULE
34997_out_ligand_01.pdbqt
 33 36 0 0 0
SMALL
GASTEIGER

@<TRIPOS>ATOM
      1  C         22.1280  -22.8790   -9.7690 C.3     1  UNL1        0.0760
      2  C         21.9750  -24.1070   -9.0930 C.3     1  UNL1        0.1590
      3  N         20.7370  -24.5940   -9.1920 N.3     1  UNL1       -0.1640
      4  N         20.0530  -23.5610   -9.7650 N.pl3   1  UNL1       -0.0630
      5  C         20.9360  -22.7510  -10.4900 C.3     1  UNL1        0.0750
      6  C         18.6740  -23.3040   -9.4430 C.cat   1  UNL1        0.7500
      7  N         17.8670  -22.9000  -10.4530 N.2     1  UNL1       -0.0730
      8  C         16.6370  -22.4920  -10.1100 C.2     1  UNL1        0.1390
      9  C         16.1740  -22.4770   -8.8180 C.2     1  UNL1        0.0530
     10  C         17.0500  -22.9110   -7.8460 C.2     1  UNL1        0.0900
     11  N         18.2930  -23.3440   -8.1480 N.2     1  UNL1       -0.0600
     12  C         16.6950  -22.9460   -6.4230 C.2     1  UNL1        0.0320
     13  C         15.6400  -23.7540   -5.9670 C.2     1  UNL1        0.0170
     14  C         15.2760  -23.7740   -4.6180 C.2     1  UNL1        0.0010
     15  C         15.9670  -22.9950   -3.6900 C.2     1  UNL1        0.0030
     16  C         17.0240  -22.2010   -4.1160 C.2     1  UNL1        0.0430
     17  C         17.3810  -22.1830   -5.4660 C.2     1  UNL1        0.1290
     18  F         18.4220  -21.4230   -5.8330 F       1  UNL1       -0.2050
     19  C         20.5280  -21.9240  -11.7000 C.3     1  UNL1        0.0310
     20  C         21.6940  -21.7310  -12.6930 C.3     1  UNL1        0.0160
     21  C         20.0920  -20.5010  -11.3020 C.3     1  UNL1        0.0160
     22  C         23.3000  -22.0240   -9.7090 C.2     1  UNL1        0.2550
     23  N         24.3970  -22.5650  -10.3130 N.am    1  UNL1       -0.3550
     24  H         24.3130  -23.4590  -10.7860 H       1  UNL1        0.1620
     25  O         23.2690  -20.8880   -9.2540 O.2     1  UNL1       -0.2680
     26  C         25.5890  -21.8140  -10.6450 C.3     1  UNL1        0.1580
     27  C         26.0220  -22.0650  -12.1050 C.3     1  UNL1        0.2400
     28  C         25.5880  -23.4590  -12.6070 C.3     1  UNL1        0.0390
     29  C         24.9960  -23.2220  -13.9870 C.3     1  UNL1        0.0320
     30  C         25.4560  -21.8220  -14.3640 C.3     1  UNL1        0.2730
     31  N         25.4140  -21.1190  -13.0770 N.3     1  UNL1        0.0940
     32  C         26.1200  -19.8300  -13.1190 C.3     1  UNL1        0.2680
     33  C         26.0370  -19.1830  -14.4930 C.3     1  UNL1        0.0370
@<TRIPOS>BOND
     1    33    32    1
     2    30    29    1
     3    30    31    1
     4    29    28    1
     5    32    31    1
     6    31    27    1
     7    20    19    1
     8    28    27    1
     9    27    26    1
    10    19    21    1
    11    19     5    1
    12    24    23    1
    13    26    23    1
    14     5     1    1
    15     5     4    1
    16     7     8    1
    17     7     6    2
    18    23    22   am
    19     8     9    2
    20     1    22    1
    21     1     2    1
    22     4     6    1
    23     4     3    1
    24    22    25    2
    25     6    11    1
    26     3     2    1
    27     9    10    1
    28    11    10    2
    29    10    12    1
    30    12    13    2
    31    12    17    1
    32    13    14    1
    33    18    17    1
    34    17    16    2
    35    14    15    2
    36    16    15    1
