@<TRIPOS>MOLECULE
349_out_ligand_01.pdbqt
 34 37 0 0 0
SMALL
GASTEIGER

@<TRIPOS>ATOM
      1  C         17.4880  -22.6900   -9.2330 C.2     1  UNL1        0.1140
      2  C         18.8730  -22.8960   -9.2660 C.2     1  UNL1        0.0450
      3  C         19.6280  -22.4040  -10.3410 C.2     1  UNL1        0.0330
      4  C         18.9830  -21.7410  -11.3940 C.2     1  UNL1        0.0200
      5  C         17.5980  -21.5520  -11.3560 C.2     1  UNL1        0.0450
      6  C         16.8560  -22.0250  -10.2760 C.2     1  UNL1        0.1390
      7  F         15.5350  -21.8170  -10.2830 F       1  UNL1       -0.2040
      8  C         21.0980  -22.6370  -10.3290 C.2     1  UNL1        0.2520
      9  O         21.5320  -23.7620  -10.1090 O.2     1  UNL1       -0.2680
     10  N         21.9020  -21.5400  -10.5440 N.am    1  UNL1       -0.3480
     11  H         21.5020  -20.6410  -10.7620 H       1  UNL1        0.1630
     12  C         23.3490  -21.6680  -10.6660 C.3     1  UNL1        0.1180
     13  C         23.8200  -22.8270   -9.7650 C.3     1  UNL1        0.0300
     14  C         25.2110  -23.3910  -10.0740 C.3     1  UNL1        0.0070
     15  C         25.9840  -22.6170  -11.1350 C.3     1  UNL1        0.0390
     16  C         25.1070  -22.3360  -12.3260 C.2     1  UNL1       -0.0500
     17  C         25.5960  -22.4800  -13.6300 C.2     1  UNL1        0.0070
     18  C         23.8000  -21.8570  -12.1060 C.2     1  UNL1       -0.0290
     19  C         24.7930  -22.1470  -14.7190 C.2     1  UNL1        0.0010
     20  C         23.5110  -21.6460  -14.5110 C.2     1  UNL1        0.0010
     21  C         23.0210  -21.4880  -13.2130 C.2     1  UNL1        0.0100
     22  S         16.5340  -23.3150   -7.8880 S.O2    1  UNL1        0.2490
     23  O         15.7360  -22.2370   -7.3460 O.2     1  UNL1       -0.2050
     24  O         15.9140  -24.5480   -8.3300 O.2     1  UNL1       -0.2050
     25  N         17.7630  -23.7930   -6.8100 N.pl3   1  UNL1       -0.1790
     26  H         17.4940  -24.7090   -6.4460 H       1  UNL1        0.1460
     27  C         17.9680  -22.8720   -5.7230 C.2     1  UNL1        0.0560
     28  C         18.7880  -21.7560   -5.9180 C.2     1  UNL1        0.0270
     29  C         19.0440  -20.8850   -4.8580 C.2     1  UNL1        0.0020
     30  C         18.4860  -21.1300   -3.6040 C.2     1  UNL1        0.0030
     31  C         17.6820  -22.2530   -3.4000 C.2     1  UNL1        0.0380
     32  C         17.4400  -23.1420   -4.4520 C.2     1  UNL1        0.0900
     33  O         16.6280  -24.2380   -4.3100 O.2     1  UNL1       -0.3540
     34  C         15.2450  -23.8980   -4.2250 C.3     1  UNL1        0.2100
@<TRIPOS>BOND
     1    19    20    2
     2    19    17    1
     3    20    21    1
     4    17    16    2
     5    21    18    2
     6    16    18    1
     7    16    15    1
     8    18    12    1
     9     4     5    2
    10     4     3    1
    11     5     6    1
    12    15    14    1
    13    11    10    1
    14    12    10    1
    15    12    13    1
    16    10     8   am
    17     3     8    1
    18     3     2    2
    19     8     9    2
    20     7     6    1
    21     6     1    2
    22    14    13    1
    23     2     1    1
    24     1    22    1
    25    24    22    2
    26    22    23    2
    27    22    25    1
    28    25    26    1
    29    25    27    1
    30    28    27    2
    31    28    29    1
    32    27    32    1
    33    29    30    2
    34    32    33    1
    35    32    31    2
    36    33    34    1
    37    30    31    1
