@<TRIPOS>MOLECULE
35016_out_ligand_01.pdbqt
 32 34 0 0 0
SMALL
GASTEIGER

@<TRIPOS>ATOM
      1  C         22.9550  -22.6430  -10.5390 C.2     1  UNL1        0.0130
      2  C         24.1250  -22.0580  -11.0380 C.2     1  UNL1        0.0140
      3  C         24.1230  -21.4520  -12.2900 C.2     1  UNL1        0.0200
      4  C         22.9450  -21.4610  -13.0170 C.2     1  UNL1        0.1190
      5  N         21.7980  -22.0210  -12.5780 N.2     1  UNL1       -0.2360
      6  C         21.8210  -22.5910  -11.3490 C.2     1  UNL1        0.1770
      7  C         22.9570  -23.3250   -9.2010 C.3     1  UNL1        0.1660
      8  N         21.6710  -23.2030   -8.5490 N.am    1  UNL1       -0.3520
      9  C         21.4020  -22.1740   -7.6710 C.2     1  UNL1        0.2510
     10  O         22.1900  -21.2620   -7.4420 O.2     1  UNL1       -0.2680
     11  H         21.0930  -24.0310   -8.5280 H       1  UNL1        0.1630
     12  C         20.0950  -22.2320   -6.9560 C.2     1  UNL1        0.0320
     13  C         19.2720  -23.3440   -7.1730 C.2     1  UNL1        0.0170
     14  C         18.0340  -23.4440   -6.5320 C.2     1  UNL1        0.0100
     15  C         17.6070  -22.4390   -5.6540 C.2     1  UNL1       -0.0310
     16  C         18.4400  -21.3320   -5.4330 C.2     1  UNL1        0.0100
     17  C         19.6790  -21.2300   -6.0710 C.2     1  UNL1        0.0170
     18  C         16.2670  -22.5310   -4.9690 C.3     1  UNL1        0.3050
     19  N         16.3390  -22.0210   -3.6050 N.3     1  UNL1        0.0820
     20  H         15.4090  -22.0410   -3.1930 H       1  UNL1        0.3130
     21  H         16.6190  -21.0420   -3.6360 H       1  UNL1        0.3130
     22  O         20.6740  -23.2250  -10.8840 O.2     1  UNL1       -0.2910
     23  C         19.5110  -22.4930  -10.8500 C.2     1  UNL1        0.0780
     24  C         19.4950  -21.2890  -11.5520 C.2     1  UNL1        0.0370
     25  C         18.3280  -20.5300  -11.6060 C.2     1  UNL1        0.0040
     26  C         17.1720  -20.9810  -10.9670 C.2     1  UNL1        0.0160
     27  C         17.1710  -22.1980  -10.2660 C.2     1  UNL1        0.0500
     28  C         18.3480  -22.9600  -10.2300 C.2     1  UNL1        0.0530
     29  C         15.9160  -22.7030   -9.6010 C.3     1  UNL1        0.4170
     30  F         14.7910  -22.3370  -10.2760 F       1  UNL1       -0.1660
     31  F         15.7550  -22.2360   -8.3310 F       1  UNL1       -0.1660
     32  F         15.8660  -24.0600   -9.5050 F       1  UNL1       -0.1660
@<TRIPOS>BOND
     1     4     5    1
     2     4     3    2
     3     5     6    2
     4     3     2    1
     5    25    24    1
     6    25    26    2
     7    24    23    2
     8     6    22    1
     9     6     1    1
    10     2     1    2
    11    26    27    1
    12    22    23    1
    13    23    28    1
    14     1     7    1
    15    30    29    1
    16    27    28    2
    17    27    29    1
    18    29    32    1
    19    29    31    1
    20     7     8    1
    21     8    11    1
    22     8     9   am
    23     9    10    2
    24     9    12    1
    25    13    12    2
    26    13    14    1
    27    12    17    1
    28    14    15    2
    29    17    16    2
    30    15    16    1
    31    15    18    1
    32    18    19    1
    33    21    19    1
    34    19    20    1
