@<TRIPOS>MOLECULE
35035_out_ligand_01.pdbqt
 36 41 0 0 0
SMALL
GASTEIGER

@<TRIPOS>ATOM
      1  C         24.0010  -21.2240  -13.6150 C.ar    1  UNL1        0.1480
      2  N         23.0590  -21.0360  -14.5190 N.ar    1  UNL1       -0.1330
      3  N         21.8470  -21.1700  -13.9060 N.ar    1  UNL1       -0.1350
      4  C         22.0490  -21.4630  -12.6360 C.ar    1  UNL1        0.1320
      5  N         23.4030  -21.5190  -12.4110 N.ar    1  UNL1       -0.3170
      6  C         24.0480  -21.7000  -11.1340 C.3     1  UNL1        0.1620
      7  C         23.6550  -22.9730  -10.3690 C.3     1  UNL1        0.2930
      8  N         22.2210  -23.2710  -10.1960 N.3     1  UNL1        0.0940
      9  C         21.3630  -22.0830  -10.2200 C.3     1  UNL1        0.2800
     10  C         20.9580  -21.7050  -11.6490 C.3     1  UNL1        0.1110
     11  C         21.9750  -24.0980   -9.0010 C.3     1  UNL1        0.3110
     12  C         20.7320  -23.6950   -8.2330 C.2     1  UNL1       -0.0300
     13  C         20.7220  -22.4940   -7.4850 C.2     1  UNL1        0.0100
     14  C         19.6010  -22.1050   -6.7430 C.2     1  UNL1        0.0130
     15  C         18.4890  -22.9280   -6.7510 C.2     1  UNL1       -0.0190
     16  C         18.4920  -24.1270   -7.4960 C.2     1  UNL1       -0.0420
     17  C         17.2130  -22.7990   -6.0810 C.3     1  UNL1       -0.0190
     18  C         19.5970  -24.5220   -8.2340 C.2     1  UNL1        0.0170
     19  C         17.1670  -24.8460   -7.3370 C.2     1  UNL1        0.0780
     20  C         16.4130  -23.9170   -6.4080 C.2     1  UNL1       -0.0430
     21  C         15.1320  -24.0680   -5.9000 C.2     1  UNL1        0.0080
     22  C         14.6470  -23.0740   -5.0470 C.2     1  UNL1        0.0010
     23  C         15.4380  -21.9600   -4.7160 C.2     1  UNL1        0.0010
     24  C         16.7290  -21.8160   -5.2340 C.2     1  UNL1        0.0130
     25  C         25.4640  -21.1220  -13.8630 C.3     1  UNL1        0.2030
     26  N         25.6730  -20.2180  -14.9680 N.am    1  UNL1       -0.3500
     27  C         26.4390  -19.0910  -14.8220 C.2     1  UNL1        0.2540
     28  O         26.9440  -18.7850  -13.7450 O.2     1  UNL1       -0.2680
     29  H         25.4830  -20.5870  -15.8910 H       1  UNL1        0.1630
     30  C         26.6400  -18.2900  -16.0210 C.2     1  UNL1        0.0630
     31  C         26.5750  -16.8640  -16.0880 C.2     1  UNL1        0.0510
     32  C         26.8000  -16.5110  -17.3980 C.2     1  UNL1        0.0500
     33  C         26.8640  -15.2160  -18.1050 C.3     1  UNL1        0.0760
     34  O         26.9830  -17.6250  -18.1530 O.2     1  UNL1       -0.3190
     35  C         26.8700  -18.7050  -17.3270 C.2     1  UNL1        0.0650
     36  C         26.9850  -20.0190  -18.0020 C.3     1  UNL1        0.0770
@<TRIPOS>BOND
     1    34    32    1
     2    34    35    1
     3    33    32    1
     4    36    35    1
     5    32    31    2
     6    35    30    2
     7    31    30    1
     8    30    27    1
     9    29    26    1
    10    26    27   am
    11    26    25    1
    12    27    28    2
    13     2     3   ar
    14     2     1   ar
    15     3     4   ar
    16    25     1    1
    17     1     5   ar
    18     4     5   ar
    19     4    10    1
    20     5     6    1
    21    10     9    1
    22     6     7    1
    23     7     8    1
    24     9     8    1
    25     8    11    1
    26    11    12    1
    27    18    12    2
    28    18    16    1
    29    12    13    1
    30    16    19    1
    31    16    15    2
    32    13    14    2
    33    19    20    2
    34    15    14    1
    35    15    17    1
    36    20    17    1
    37    20    21    1
    38    17    24    1
    39    21    22    2
    40    24    23    2
    41    22    23    1
