@<TRIPOS>MOLECULE
35042_out_ligand_01.pdbqt
 31 35 0 0 0
SMALL
GASTEIGER

@<TRIPOS>ATOM
      1  C         16.4620  -23.8600   -4.7120 C.3     1  UNL1        0.2810
      2  C         17.3900  -22.6810   -4.6640 C.2     1  UNL1       -0.0160
      3  C         18.0180  -22.1180   -3.5600 C.2     1  UNL1        0.0100
      4  C         18.8710  -21.0300   -3.7570 C.2     1  UNL1        0.0010
      5  C         19.0960  -20.5230   -5.0440 C.2     1  UNL1        0.0010
      6  C         18.4750  -21.0990   -6.1530 C.2     1  UNL1        0.0090
      7  C         17.6280  -22.1830   -5.9590 C.2     1  UNL1       -0.0380
      8  C         16.8670  -22.9900   -7.0070 C.3     1  UNL1        0.0190
      9  C         16.2180  -22.1290   -8.1140 C.3     1  UNL1        0.0370
     10  C         16.8050  -22.3660   -9.5070 C.3     1  UNL1        0.1270
     11  N         18.2560  -22.4860   -9.4960 N.am    1  UNL1       -0.3470
     12  C         18.9330  -22.1110  -10.6670 C.2     1  UNL1        0.2700
     13  O         18.3160  -21.7620  -11.6750 O.2     1  UNL1       -0.2660
     14  C         18.8160  -23.4730   -8.5730 C.3     1  UNL1        0.1270
     15  C         17.7790  -24.0730   -7.6220 C.3     1  UNL1        0.0370
     16  C         15.7670  -23.5990   -6.0780 C.3     1  UNL1        0.1680
     17  O         15.1980  -24.7910   -6.6140 O.3     1  UNL1       -0.3920
     18  H         15.8620  -25.1520   -7.2280 H       1  UNL1        0.2100
     19  N         15.4960  -23.9330   -3.6170 N.3     1  UNL1        0.0890
     20  H         14.5970  -23.5880   -3.9520 H       1  UNL1        0.3130
     21  H         15.7780  -23.2860   -2.8840 H       1  UNL1        0.3130
     22  C         20.3820  -22.1590  -10.6940 C.2     1  UNL1        0.1020
     23  C         21.3480  -22.1780   -9.7020 C.2     1  UNL1        0.0490
     24  C         22.6310  -22.2040  -10.3160 C.2     1  UNL1       -0.0070
     25  C         23.9500  -22.2480   -9.8270 C.2     1  UNL1        0.0140
     26  C         22.4250  -22.1550  -11.6920 C.2     1  UNL1        0.0430
     27  C         25.0150  -22.2520  -10.7360 C.2     1  UNL1        0.0010
     28  C         24.7790  -22.2080  -12.1090 C.2     1  UNL1        0.0020
     29  C         23.4760  -22.1550  -12.6150 C.2     1  UNL1        0.0300
     30  N         21.0670  -22.0930  -11.8900 N.pl3   1  UNL1       -0.3510
     31  H         20.6120  -22.0130  -12.7900 H       1  UNL1        0.1660
@<TRIPOS>BOND
     1    31    30    1
     2    29    28    2
     3    29    26    1
     4    28    27    1
     5    30    26    1
     6    30    22    1
     7    26    24    2
     8    13    12    2
     9    27    25    2
    10    22    12    1
    11    22    23    2
    12    12    11   am
    13    24    25    1
    14    24    23    1
    15    10    11    1
    16    10     9    1
    17    11    14    1
    18    14    15    1
    19     9     8    1
    20    15     8    1
    21    18    17    1
    22     8    16    1
    23     8     7    1
    24    17    16    1
    25     6     7    1
    26     6     5    2
    27    16     1    1
    28     7     2    2
    29     5     4    1
    30     1     2    1
    31     1    19    1
    32     2     3    1
    33    20    19    1
    34     4     3    2
    35    19    21    1
