@<TRIPOS>MOLECULE
35053_out_ligand_01.pdbqt
 32 36 0 0 0
SMALL
GASTEIGER

@<TRIPOS>ATOM
      1  N         19.2420  -21.2910  -11.4790 N.3     1  UNL1        0.0990
      2  C         17.9020  -20.7070  -11.7650 C.3     1  UNL1        0.2790
      3  C         16.7470  -21.7170  -11.5120 C.3     1  UNL1        0.0890
      4  C         17.0160  -22.4240  -10.2400 C.ar    1  UNL1        0.0390
      5  N         16.1830  -23.2290   -9.5390 N.ar    1  UNL1       -0.2810
      6  N         16.7570  -23.7360   -8.4350 N.ar    1  UNL1       -0.1780
      7  C         18.0080  -23.2260   -8.4280 C.ar    1  UNL1        0.0770
      8  C         18.2150  -22.4050   -9.5730 C.ar    1  UNL1        0.0210
      9  C         19.3960  -21.6250  -10.0380 C.3     1  UNL1        0.3150
     10  H         15.2230  -23.4850   -9.7420 H       1  UNL1        0.1890
     11  C         19.0230  -23.5130   -7.3410 C.3     1  UNL1        0.1060
     12  C         18.6560  -22.7590   -6.0650 C.2     1  UNL1       -0.0440
     13  C         19.0040  -21.4230   -5.8060 C.2     1  UNL1        0.0080
     14  C         18.6430  -20.8040   -4.6060 C.2     1  UNL1        0.0010
     15  C         17.9400  -21.5120   -3.6360 C.2     1  UNL1        0.0000
     16  C         17.6010  -22.8430   -3.8600 C.2     1  UNL1        0.0010
     17  C         17.9590  -23.4610   -5.0610 C.2     1  UNL1        0.0080
     18  C         20.4240  -23.2940   -7.8890 C.2     1  UNL1       -0.0440
     19  C         21.1690  -22.1340   -7.6160 C.2     1  UNL1        0.0080
     20  C         22.4600  -21.9740   -8.1250 C.2     1  UNL1        0.0010
     21  C         23.0280  -22.9680   -8.9180 C.2     1  UNL1        0.0000
     22  C         22.3040  -24.1200   -9.2100 C.2     1  UNL1        0.0010
     23  C         21.0120  -24.2810   -8.7030 C.2     1  UNL1        0.0080
     24  C         20.3240  -20.3780  -11.8840 C.3     1  UNL1        0.3370
     25  C         21.5260  -21.1050  -12.3870 C.2     1  UNL1        0.0810
     26  C         22.1610  -22.2650  -11.9960 C.2     1  UNL1        0.0370
     27  C         23.2650  -22.4310  -12.8650 C.2     1  UNL1        0.0370
     28  C         23.2380  -21.3620  -13.7340 C.2     1  UNL1        0.0760
     29  O         22.1850  -20.5440  -13.4420 O.2     1  UNL1       -0.3150
     30  C         24.1010  -20.9440  -14.8620 C.3     1  UNL1        0.2290
     31  O         24.4780  -19.5900  -14.6380 O.3     1  UNL1       -0.3940
     32  H         24.8110  -19.5490  -13.7230 H       1  UNL1        0.2090
@<TRIPOS>BOND
     1    30    31    1
     2    30    28    1
     3    31    32    1
     4    28    29    1
     5    28    27    2
     6    29    25    1
     7    27    26    1
     8    25    26    2
     9    25    24    1
    10    24     1    1
    11     2     3    1
    12     2     1    1
    13     3     4    1
    14     1     9    1
    15     4     8   ar
    16     4     5   ar
    17     9     8    1
    18    10     5    1
    19     8     7   ar
    20     5     6   ar
    21    22    21    2
    22    22    23    1
    23    21    20    1
    24    23    18    2
    25     6     7   ar
    26     7    11    1
    27    20    19    2
    28    18    19    1
    29    18    11    1
    30    11    12    1
    31    12    13    2
    32    12    17    1
    33    13    14    1
    34    17    16    2
    35    14    15    2
    36    16    15    1
