@<TRIPOS>MOLECULE
35061_out_ligand_01.pdbqt
 29 32 0 0 0
SMALL
GASTEIGER

@<TRIPOS>ATOM
      1  C         21.3210  -24.1620   -9.1490 C.3     1  UNL1        0.0510
      2  C         20.8490  -23.0580  -10.0310 C.ar    1  UNL1       -0.0220
      3  C         21.6320  -22.2570  -10.8520 C.ar    1  UNL1        0.0500
      4  N         20.7890  -21.3670  -11.4750 N.ar    1  UNL1       -0.3540
      5  C         19.4850  -21.5850  -11.1080 C.ar    1  UNL1        0.0430
      6  C         18.3140  -20.9380  -11.5170 C.2     1  UNL1        0.0310
      7  C         17.1070  -21.3710  -10.9590 C.2     1  UNL1        0.0110
      8  C         17.0660  -22.4120  -10.0230 C.2     1  UNL1       -0.0400
      9  C         18.2610  -23.0430   -9.6330 C.2     1  UNL1        0.0230
     10  C         19.4910  -22.6320  -10.1890 C.ar    1  UNL1       -0.0010
     11  H         21.0860  -20.6690  -12.1430 H       1  UNL1        0.1660
     12  C         15.7590  -22.8190   -9.3910 C.3     1  UNL1        0.1610
     13  N         15.7880  -22.5650   -7.9730 N.am    1  UNL1       -0.3510
     14  C         16.0100  -23.5610   -7.0450 C.2     1  UNL1        0.2720
     15  O         15.9960  -24.7600   -7.2940 O.2     1  UNL1       -0.2660
     16  H         15.9630  -21.6180   -7.6490 H       1  UNL1        0.1630
     17  C         16.2920  -23.0630   -5.6700 C.2     1  UNL1        0.1410
     18  C         15.2760  -22.9910   -4.7310 C.2     1  UNL1        0.1530
     19  N         15.4900  -22.5460   -3.4650 N.2     1  UNL1       -0.2690
     20  C         16.7620  -22.1860   -3.1890 C.2     1  UNL1        0.1350
     21  C         17.7810  -22.2620   -4.1290 C.2     1  UNL1        0.1360
     22  N         17.5780  -22.6990   -5.3920 N.2     1  UNL1       -0.2530
     23  C         23.0680  -22.2610  -11.1120 C.2     1  UNL1       -0.0090
     24  C         23.6050  -23.1090  -12.0910 C.2     1  UNL1        0.0170
     25  C         24.9770  -23.1030  -12.3510 C.2     1  UNL1        0.0430
     26  C         25.8070  -22.2550  -11.6280 C.2     1  UNL1        0.1160
     27  F         27.1210  -22.2490  -11.8790 F       1  UNL1       -0.2060
     28  C         25.2930  -21.4110  -10.6490 C.2     1  UNL1        0.0430
     29  C         23.9210  -21.4130  -10.3900 C.2     1  UNL1        0.0170
@<TRIPOS>BOND
     1    25    24    1
     2    25    26    2
     3    11     4    1
     4    24    23    2
     5    27    26    1
     6    26    28    1
     7     6     5    2
     8     6     7    1
     9     4     5   ar
    10     4     3   ar
    11    23     3    1
    12    23    29    1
    13     5    10   ar
    14     7     8    2
    15     3     2   ar
    16    28    29    2
    17    10     2   ar
    18    10     9    2
    19     2     1    1
    20     8     9    1
    21     8    12    1
    22    12    13    1
    23    13    16    1
    24    13    14   am
    25    15    14    2
    26    14    17    1
    27    17    22    2
    28    17    18    1
    29    22    21    1
    30    18    19    2
    31    21    20    2
    32    19    20    1
