@<TRIPOS>MOLECULE
35077_out_ligand_01.pdbqt
 31 33 0 0 0
SMALL
GASTEIGER

@<TRIPOS>ATOM
      1  C         21.1160  -24.2710   -8.7740 C.3     1  UNL1        0.0510
      2  C         20.0890  -23.4200   -9.4400 C.ar    1  UNL1       -0.0220
      3  C         20.2750  -22.6080  -10.5520 C.ar    1  UNL1        0.0500
      4  N         19.0690  -22.0010  -10.8160 N.ar    1  UNL1       -0.3540
      5  C         18.1110  -22.3960   -9.9160 C.ar    1  UNL1        0.0430
      6  C         16.7630  -22.0310   -9.8150 C.2     1  UNL1        0.0310
      7  C         16.0110  -22.6020   -8.7840 C.2     1  UNL1        0.0110
      8  C         16.5770  -23.5160   -7.8890 C.2     1  UNL1       -0.0400
      9  C         17.9370  -23.8580   -8.0120 C.2     1  UNL1        0.0230
     10  C         18.7180  -23.2920   -9.0420 C.ar    1  UNL1       -0.0010
     11  H         18.9030  -21.3700  -11.5860 H       1  UNL1        0.1660
     12  C         15.7580  -24.0920   -6.7650 C.3     1  UNL1        0.1610
     13  N         16.3920  -23.8280   -5.4970 N.am    1  UNL1       -0.3550
     14  C         15.9920  -22.7730   -4.7050 C.2     1  UNL1        0.2350
     15  O         15.0400  -22.0490   -4.9830 O.2     1  UNL1       -0.2720
     16  H         17.3350  -24.1690   -5.3500 H       1  UNL1        0.1620
     17  C         16.8950  -22.5230   -3.4970 C.3     1  UNL1        0.2260
     18  N         17.6900  -21.3100   -3.6480 N.am    1  UNL1       -0.3390
     19  C         18.5910  -21.2270   -4.6670 C.2     1  UNL1        0.2920
     20  N         19.1320  -19.9870   -4.7690 N.am    1  UNL1       -0.2540
     21  O         18.9030  -22.1350   -5.4200 O.2     1  UNL1       -0.2540
     22  H         19.8870  -19.9470   -5.4430 H       1  UNL1        0.1280
     23  H         19.3310  -19.5130   -3.9000 H       1  UNL1        0.1280
     24  H         17.1970  -20.4440   -3.4760 H       1  UNL1        0.1640
     25  C         21.4520  -22.3700  -11.3870 C.2     1  UNL1       -0.0090
     26  C         21.3610  -21.5530  -12.5230 C.2     1  UNL1        0.0170
     27  C         22.4860  -21.3170  -13.3160 C.2     1  UNL1        0.0430
     28  C         23.7010  -21.8990  -12.9700 C.2     1  UNL1        0.1160
     29  F         24.7810  -21.6710  -13.7290 F       1  UNL1       -0.2060
     30  C         23.8120  -22.7110  -11.8490 C.2     1  UNL1        0.0430
     31  C         22.6860  -22.9470  -11.0550 C.2     1  UNL1        0.0170
@<TRIPOS>BOND
     1    29    28    1
     2    27    28    2
     3    27    26    1
     4    28    30    1
     5    26    25    2
     6    30    31    2
     7    11     4    1
     8    25    31    1
     9    25     3    1
    10     4     3   ar
    11     4     5   ar
    12     3     2   ar
    13     5     6    2
    14     5    10   ar
    15     6     7    1
    16     2    10   ar
    17     2     1    1
    18    10     9    2
    19     7     8    2
    20     9     8    1
    21     8    12    1
    22    12    13    1
    23    13    16    1
    24    13    14   am
    25    22    20    1
    26    21    19    2
    27    15    14    2
    28    20    19   am
    29    20    23    1
    30    14    17    1
    31    19    18   am
    32    18    17    1
    33    18    24    1
