@<TRIPOS>MOLECULE
35089_out_ligand_01.pdbqt
 28 31 0 0 0
SMALL
GASTEIGER

@<TRIPOS>ATOM
      1  O         15.4960  -23.5780   -9.8120 O.2     1  UNL1       -0.2660
      2  C         16.2820  -22.7120   -9.4400 C.2     1  UNL1        0.2730
      3  N         16.4110  -22.3230   -8.1260 N.am    1  UNL1       -0.3530
      4  H         17.1060  -21.6120   -7.9140 H       1  UNL1        0.1620
      5  C         17.1550  -21.9900  -10.3510 C.2     1  UNL1        0.1580
      6  C         18.4670  -22.2760  -10.6660 C.2     1  UNL1        0.1460
      7  N         18.8140  -21.3040  -11.5520 N.pl3   1  UNL1       -0.2820
      8  N         17.7920  -20.4650  -11.7880 N.2     1  UNL1        0.0050
      9  N         16.7650  -20.8710  -11.0540 N.2     1  UNL1       -0.1530
     10  C         20.0860  -21.1130  -12.2120 C.3     1  UNL1        0.1500
     11  C         21.2480  -21.6060  -11.3550 C.3     1  UNL1        0.0600
     12  C         22.4470  -21.9490  -12.2020 C.2     1  UNL1       -0.0570
     13  C         23.4100  -22.8530  -11.7330 C.2     1  UNL1        0.0070
     14  C         24.5330  -23.1530  -12.5050 C.2     1  UNL1        0.0010
     15  C         24.7070  -22.5490  -13.7490 C.2     1  UNL1        0.0000
     16  C         23.7570  -21.6460  -14.2230 C.2     1  UNL1        0.0010
     17  C         22.6320  -21.3450  -13.4530 C.2     1  UNL1        0.0070
     18  C         15.6820  -22.9560   -7.0460 C.3     1  UNL1        0.1570
     19  C         16.5650  -23.7490   -6.0630 C.3     1  UNL1        0.1710
     20  C         17.2840  -22.8740   -5.0390 C.3     1  UNL1        0.2090
     21  O         18.1890  -21.9600   -5.6700 O.2     1  UNL1       -0.3460
     22  C         18.9830  -22.6120   -6.5780 C.2     1  UNL1        0.1020
     23  C         20.1450  -21.9570   -6.9810 C.2     1  UNL1        0.0390
     24  C         18.6610  -23.8630   -7.1110 C.2     1  UNL1        0.1020
     25  C         21.0040  -22.5670   -7.8960 C.2     1  UNL1        0.0030
     26  C         20.6970  -23.8290   -8.4100 C.2     1  UNL1        0.0030
     27  C         19.5230  -24.4760   -8.0180 C.2     1  UNL1        0.0390
     28  O         17.5130  -24.5450   -6.8000 O.2     1  UNL1       -0.3390
@<TRIPOS>BOND
     1    16    15    2
     2    16    17    1
     3    15    14    1
     4    17    12    2
     5    14    13    2
     6    10     7    1
     7    10    11    1
     8    12    13    1
     9    12    11    1
    10     8     7    1
    11     8     9    2
    12     7     6    1
    13     9     5    1
    14     6     5    2
    15     5     2    1
    16     1     2    2
    17     2     3   am
    18    26    27    2
    19    26    25    1
    20     3     4    1
    21     3    18    1
    22    27    24    1
    23    25    23    2
    24    24    28    1
    25    24    22    2
    26    18    19    1
    27    23    22    1
    28    28    19    1
    29    22    21    1
    30    19    20    1
    31    21    20    1
