@<TRIPOS>MOLECULE
35107_out_ligand_01.pdbqt
 28 31 0 0 0
SMALL
GASTEIGER

@<TRIPOS>ATOM
      1  N         18.4640  -22.3500  -10.1790 N.pl3   1  UNL1       -0.3350
      2  C         17.3480  -21.7500  -10.7130 C.2     1  UNL1        0.1120
      3  C         17.8190  -20.7740  -11.5490 C.2     1  UNL1        0.1360
      4  N         19.1860  -20.7720  -11.5610 N.2     1  UNL1       -0.2410
      5  C         19.5720  -21.7100  -10.7070 C.2     1  UNL1        0.1420
      6  C         18.4580  -23.5680   -9.3760 C.3     1  UNL1        0.1680
      7  C         17.8430  -23.3760   -8.0070 C.2     1  UNL1       -0.0400
      8  C         18.4580  -22.5400   -7.0620 C.2     1  UNL1        0.0100
      9  C         17.8940  -22.3580   -5.7990 C.2     1  UNL1        0.0250
     10  C         16.7000  -23.0060   -5.4830 C.2     1  UNL1        0.0740
     11  C         16.0750  -23.8470   -6.4070 C.2     1  UNL1        0.0250
     12  C         16.6490  -24.0300   -7.6660 C.2     1  UNL1        0.0100
     13  S         15.9770  -22.7900   -3.8780 S.O2    1  UNL1        0.2390
     14  O         14.7240  -22.0920   -4.0330 O.2     1  UNL1       -0.2060
     15  O         16.0870  -24.0350   -3.1540 O.2     1  UNL1       -0.2060
     16  N         17.0760  -21.7400   -3.1550 N.3     1  UNL1       -0.2250
     17  H         17.5600  -21.1400   -3.8230 H       1  UNL1        0.1360
     18  H         17.7350  -22.2860   -2.5970 H       1  UNL1        0.1360
     19  C         20.9790  -22.0650  -10.4740 C.2     1  UNL1        0.0400
     20  C         21.3040  -22.5740   -9.2020 C.2     1  UNL1        0.0180
     21  C         22.6040  -22.9580   -8.8990 C.2     1  UNL1        0.0020
     22  C         23.5870  -22.8520   -9.8750 C.2     1  UNL1        0.0140
     23  C         23.2750  -22.3630  -11.1540 C.2     1  UNL1       -0.0060
     24  C         24.2670  -22.2780  -12.1400 C.2     1  UNL1        0.0150
     25  C         21.9560  -21.9570  -11.4790 C.2     1  UNL1        0.0800
     26  C         23.9550  -21.8070  -13.4070 C.2     1  UNL1        0.0200
     27  C         22.6520  -21.4250  -13.6450 C.2     1  UNL1        0.1170
     28  N         21.6690  -21.4810  -12.7170 N.2     1  UNL1       -0.2590
@<TRIPOS>BOND
     1    27    26    1
     2    27    28    2
     3    26    24    2
     4    28    25    1
     5    24    23    1
     6     4     3    1
     7     4     5    2
     8     3     2    2
     9    25    23    1
    10    25    19    2
    11    23    22    2
    12     2     1    1
    13     5    19    1
    14     5     1    1
    15    19    20    1
    16     1     6    1
    17    22    21    1
    18     6     7    1
    19    20    21    2
    20     7    12    2
    21     7     8    1
    22    12    11    1
    23     8     9    2
    24    11    10    2
    25     9    10    1
    26    10    13    1
    27    14    13    2
    28    13    16    1
    29    13    15    2
    30    17    16    1
    31    16    18    1
