@<TRIPOS>MOLECULE
35118_out_ligand_01.pdbqt
 29 31 0 0 0
SMALL
GASTEIGER

@<TRIPOS>ATOM
      1  N         21.7970  -23.4850   -9.8410 N.3     1  UNL1        0.0970
      2  C         22.6620  -23.1140  -10.9940 C.3     1  UNL1        0.2790
      3  C         22.4480  -21.6850  -11.5690 C.3     1  UNL1        0.0890
      4  C         20.9930  -21.4080  -11.5830 C.ar    1  UNL1        0.0400
      5  N         20.3440  -20.3720  -12.1690 N.ar    1  UNL1       -0.2810
      6  N         19.0120  -20.4090  -11.9710 N.ar    1  UNL1       -0.1690
      7  C         18.8110  -21.5250  -11.2270 C.ar    1  UNL1        0.1540
      8  C         20.0420  -22.1750  -10.9540 C.ar    1  UNL1        0.0300
      9  C         20.3520  -23.4270  -10.2040 C.3     1  UNL1        0.3160
     10  H         20.7320  -19.6060  -12.7110 H       1  UNL1        0.1890
     11  C         22.0630  -22.6810   -8.6350 C.3     1  UNL1        0.3110
     12  C         20.8620  -22.5470   -7.7210 C.2     1  UNL1       -0.0300
     13  C         19.8730  -23.5410   -7.6940 C.2     1  UNL1        0.0090
     14  C         18.7590  -23.4140   -6.8620 C.2     1  UNL1        0.0070
     15  C         18.6110  -22.2890   -6.0410 C.2     1  UNL1       -0.0580
     16  C         19.5900  -21.2900   -6.0750 C.2     1  UNL1        0.0070
     17  C         20.7060  -21.4180   -6.9070 C.2     1  UNL1        0.0090
     18  C         17.3960  -22.1450   -5.1560 C.3     1  UNL1        0.0410
     19  C         16.0970  -22.2850   -5.9590 C.3     1  UNL1        0.0410
     20  C         14.8190  -22.4020   -5.1020 C.3     1  UNL1        0.0510
     21  C         14.4230  -23.8780   -4.9820 C.3     1  UNL1        0.0450
     22  C         13.6460  -21.6030   -5.6750 C.3     1  UNL1        0.0450
     23  O         15.0880  -21.9420   -3.7760 O.3     1  UNL1       -0.3910
     24  H         16.0370  -21.7510   -3.6980 H       1  UNL1        0.2100
     25  C         17.4670  -21.9420  -10.8050 C.2     1  UNL1        0.2700
     26  N         16.5030  -20.9920  -10.9900 N.am    1  UNL1       -0.3650
     27  H         16.7690  -20.1140  -11.4210 H       1  UNL1        0.1590
     28  H         15.5430  -21.1990  -10.7660 H       1  UNL1        0.1590
     29  O         17.2060  -23.0430  -10.3290 O.2     1  UNL1       -0.2660
@<TRIPOS>BOND
     1    10     5    1
     2     5     6   ar
     3     5     4   ar
     4     6     7   ar
     5     4     3    1
     6     4     8   ar
     7     3     2    1
     8    27    26    1
     9     7     8   ar
    10     7    25    1
    11     2     1    1
    12    26    25   am
    13    26    28    1
    14     8     9    1
    15    25    29    2
    16     9     1    1
    17     1    11    1
    18    11    12    1
    19    12    13    2
    20    12    17    1
    21    13    14    1
    22    17    16    2
    23    14    15    2
    24    16    15    1
    25    15    18    1
    26    19    18    1
    27    19    20    1
    28    22    20    1
    29    20    21    1
    30    20    23    1
    31    23    24    1
