@<TRIPOS>MOLECULE
35112_out_ligand_01.pdbqt
 32 35 0 0 0
SMALL
GASTEIGER

@<TRIPOS>ATOM
      1  N         19.6160  -22.2970  -10.5340 N.am    1  UNL1       -0.3270
      2  C         18.8040  -21.2980  -11.0490 C.2     1  UNL1        0.2220
      3  O         19.1710  -20.3340  -11.7130 O.2     1  UNL1       -0.2730
      4  H         19.1560  -23.0270  -10.0030 H       1  UNL1        0.1690
      5  C         21.0180  -22.4110  -10.6340 C.2     1  UNL1        0.0350
      6  C         21.8420  -22.8320   -9.5920 C.2     1  UNL1        0.0320
      7  C         23.2320  -22.9230   -9.7490 C.2     1  UNL1        0.0330
      8  C         23.7740  -22.5750  -10.9900 C.2     1  UNL1        0.0430
      9  N         25.0800  -22.5670  -11.4150 N.pl3   1  UNL1       -0.3640
     10  C         22.9910  -22.1500  -12.0610 C.2     1  UNL1        0.0100
     11  C         25.1520  -22.1510  -12.7180 C.2     1  UNL1        0.1060
     12  H         25.8680  -22.8280  -10.8380 H       1  UNL1        0.1650
     13  C         23.8680  -21.8800  -13.1690 C.2     1  UNL1        0.0590
     14  C         21.5920  -22.0690  -11.8700 C.2     1  UNL1        0.0440
     15  C         23.4750  -21.4090  -14.4940 C.2     1  UNL1        0.2510
     16  N         22.7720  -20.2390  -14.5380 N.am    1  UNL1       -0.3660
     17  H         22.5380  -19.8780  -15.4510 H       1  UNL1        0.1590
     18  H         22.5920  -19.6730  -13.7250 H       1  UNL1        0.1590
     19  O         23.7490  -21.9970  -15.5360 O.2     1  UNL1       -0.2680
     20  C         17.3350  -21.5600  -10.7570 C.3     1  UNL1        0.1090
     21  C         17.1080  -22.9160  -10.0970 C.3     1  UNL1        0.0700
     22  C         16.9420  -22.8010   -8.6180 C.2     1  UNL1        0.0570
     23  C         17.9490  -22.7570   -7.6320 C.2     1  UNL1        0.0570
     24  C         17.2830  -22.6640   -6.4260 C.2     1  UNL1        0.0600
     25  N         15.9510  -22.6510   -6.7490 N.pl3   1  UNL1       -0.2720
     26  C         17.8290  -22.6120   -5.0450 C.3     1  UNL1        0.3280
     27  N         15.7210  -22.7500   -8.0760 N.2     1  UNL1       -0.1770
     28  C         14.8080  -22.5500   -5.8570 C.3     1  UNL1        0.1530
     29  C         15.0240  -23.2210   -4.5070 C.3     1  UNL1        0.0520
     30  C         15.8990  -22.3920   -3.5640 C.3     1  UNL1        0.2720
     31  N         17.0500  -21.7360   -4.1790 N.3     1  UNL1        0.0890
     32  H         17.6550  -21.3760   -3.4420 H       1  UNL1        0.3160
@<TRIPOS>BOND
     1    19    15    2
     2    17    16    1
     3    16    15   am
     4    16    18    1
     5    15    13    1
     6    13    11    2
     7    13    10    1
     8    11     9    1
     9    10    14    1
    10    10     8    2
    11    14     5    2
    12     3     2    2
    13     9     8    1
    14     9    12    1
    15     2    20    1
    16     2     1   am
    17     8     7    1
    18    20    21    1
    19     5     1    1
    20     5     6    1
    21     1     4    1
    22    21    22    1
    23     7     6    2
    24    22    27    2
    25    22    23    1
    26    27    25    1
    27    23    24    2
    28    25    24    1
    29    25    28    1
    30    24    26    1
    31    28    29    1
    32    26    31    1
    33    29    30    1
    34    31    30    1
    35    31    32    1
