@<TRIPOS>MOLECULE
35141_out_ligand_01.pdbqt
 27 29 0 0 0
SMALL
GASTEIGER

@<TRIPOS>ATOM
      1  C         22.4160  -23.9510   -9.1750 C.3     1  UNL1        0.0510
      2  C         21.1820  -23.3130   -9.7130 C.ar    1  UNL1       -0.0220
      3  C         21.0830  -22.5060  -10.8410 C.ar    1  UNL1        0.0500
      4  N         19.7640  -22.1270  -10.9520 N.ar    1  UNL1       -0.3540
      5  C         19.0080  -22.6680   -9.9420 C.ar    1  UNL1        0.0430
      6  C         17.6390  -22.5470   -9.6770 C.2     1  UNL1        0.0310
      7  C         17.1330  -23.2200   -8.5600 C.2     1  UNL1        0.0110
      8  C         17.9590  -23.9980   -7.7400 C.2     1  UNL1       -0.0400
      9  C         19.3330  -24.0930   -8.0300 C.2     1  UNL1        0.0230
     10  C         19.8690  -23.4220   -9.1500 C.ar    1  UNL1       -0.0010
     11  H         19.3970  -21.5470  -11.6920 H       1  UNL1        0.1660
     12  C         17.4020  -24.6970   -6.5270 C.3     1  UNL1        0.1610
     13  N         16.2620  -23.9820   -6.0060 N.am    1  UNL1       -0.3550
     14  C         16.0800  -23.7560   -4.6580 C.2     1  UNL1        0.2460
     15  O         16.7900  -24.2390   -3.7820 O.2     1  UNL1       -0.2710
     16  H         15.6900  -23.4410   -6.6450 H       1  UNL1        0.1620
     17  C         14.9040  -22.8000   -4.3760 C.3     1  UNL1        0.2060
     18  C         14.4460  -22.0750   -5.6320 C.3     1  UNL1        0.0490
     19  O         15.2440  -21.8450   -3.3710 O.3     1  UNL1       -0.3870
     20  H         16.0630  -22.1620   -2.9480 H       1  UNL1        0.2100
     21  C         22.0870  -22.0820  -11.8140 C.2     1  UNL1       -0.0090
     22  C         21.7130  -21.3530  -12.9520 C.2     1  UNL1        0.0170
     23  C         22.6740  -20.9530  -13.8810 C.2     1  UNL1        0.0430
     24  C         24.0070  -21.2840  -13.6740 C.2     1  UNL1        0.1160
     25  F         24.9290  -20.9010  -14.5670 F       1  UNL1       -0.2060
     26  C         24.4000  -22.0060  -12.5530 C.2     1  UNL1        0.0430
     27  C         23.4390  -22.4050  -11.6220 C.2     1  UNL1        0.0170
@<TRIPOS>BOND
     1    25    24    1
     2    23    24    2
     3    23    22    1
     4    24    26    1
     5    22    21    2
     6    26    27    2
     7    21    27    1
     8    21     3    1
     9    11     4    1
    10     4     3   ar
    11     4     5   ar
    12     3     2   ar
    13     5     6    2
    14     5    10   ar
    15     2     1    1
    16     2    10   ar
    17     6     7    1
    18    10     9    2
    19     7     8    2
    20     9     8    1
    21     8    12    1
    22    16    13    1
    23    12    13    1
    24    13    14   am
    25    18    17    1
    26    14    17    1
    27    14    15    2
    28    17    19    1
    29    19    20    1
