@<TRIPOS>MOLECULE
35163_out_ligand_01.pdbqt
 37 40 0 0 0
SMALL
GASTEIGER

@<TRIPOS>ATOM
      1  N         18.4280  -22.5290  -10.4130 N.am    1  UNL1       -0.3260
      2  C         17.2920  -21.7760  -10.6720 C.2     1  UNL1        0.2500
      3  O         17.2230  -20.7870  -11.3990 O.2     1  UNL1       -0.2710
      4  H         18.3260  -23.2870   -9.7470 H       1  UNL1        0.1690
      5  C         19.7290  -22.3170  -10.9160 C.2     1  UNL1        0.0340
      6  C         19.8640  -21.4460  -12.0100 C.2     1  UNL1        0.0300
      7  C         21.1180  -21.1970  -12.5830 C.2     1  UNL1        0.0190
      8  C         22.2600  -21.8180  -12.0600 C.2     1  UNL1        0.0320
      9  C         22.1280  -22.6850  -10.9670 C.2     1  UNL1        0.0190
     10  C         20.8730  -22.9260  -10.3960 C.2     1  UNL1        0.0300
     11  C         23.6150  -21.6230  -12.6560 C.2     1  UNL1        0.2560
     12  N         23.6380  -21.0140  -13.8950 N.am    1  UNL1       -0.3210
     13  H         22.7750  -20.6420  -14.2690 H       1  UNL1        0.1690
     14  O         24.5840  -21.9880  -12.0060 O.2     1  UNL1       -0.2670
     15  C         24.7660  -20.7180  -14.6960 C.2     1  UNL1        0.0680
     16  C         25.6690  -19.6920  -14.4120 C.2     1  UNL1        0.0320
     17  C         26.7530  -19.4500  -15.2530 C.2     1  UNL1        0.0020
     18  C         26.9500  -20.2410  -16.3760 C.2     1  UNL1        0.0030
     19  C         26.0610  -21.2790  -16.6700 C.2     1  UNL1        0.0390
     20  C         24.9650  -21.5180  -15.8390 C.2     1  UNL1        0.0950
     21  O         24.0340  -22.5150  -16.0360 O.2     1  UNL1       -0.3540
     22  C         24.2250  -23.3510  -17.1740 C.3     1  UNL1        0.2100
     23  C         16.0520  -22.2760   -9.9250 C.3     1  UNL1        0.3720
     24  N         16.2180  -22.1820   -8.4590 N.3     1  UNL1        0.1000
     25  H         17.0020  -21.5510   -8.2740 H       1  UNL1        0.3170
     26  C         16.4340  -23.4490   -7.7200 C.3     1  UNL1        0.2510
     27  C         15.7320  -24.6390   -8.4020 C.3     1  UNL1        0.0480
     28  C         16.2390  -23.3290   -6.2020 C.2     1  UNL1       -0.0150
     29  C         15.1740  -24.0020   -5.5700 C.2     1  UNL1        0.0100
     30  C         14.9800  -23.9170   -4.1890 C.2     1  UNL1        0.0020
     31  C         15.8470  -23.1600   -3.4090 C.2     1  UNL1        0.0120
     32  C         16.9170  -22.4670   -3.9960 C.2     1  UNL1       -0.0250
     33  C         17.7790  -21.7070   -3.1850 C.2     1  UNL1        0.0120
     34  C         17.1260  -22.5350   -5.4020 C.2     1  UNL1       -0.0180
     35  C         18.8430  -20.9990   -3.7380 C.2     1  UNL1        0.0010
     36  C         19.0600  -21.0390   -5.1130 C.2     1  UNL1        0.0010
     37  C         18.2150  -21.7960   -5.9280 C.2     1  UNL1        0.0130
@<TRIPOS>BOND
     1    22    21    1
     2    19    18    2
     3    19    20    1
     4    18    17    1
     5    21    20    1
     6    20    15    2
     7    17    16    2
     8    15    16    1
     9    15    12    1
    10    13    12    1
    11    12    11   am
    12    11     8    1
    13    11    14    2
    14     7     8    2
    15     7     6    1
    16     8     9    1
    17     6     5    2
    18     3     2    2
    19     9    10    2
    20     5     1    1
    21     5    10    1
    22     2     1   am
    23     2    23    1
    24     1     4    1
    25    23    24    1
    26    24    25    1
    27    24    26    1
    28    27    26    1
    29    26    28    1
    30    28    29    2
    31    28    34    1
    32    37    34    1
    33    37    36    2
    34    29    30    1
    35    34    32    2
    36    36    35    1
    37    30    31    2
    38    32    31    1
    39    32    33    1
    40    35    33    2
