@<TRIPOS>MOLECULE
3517_out_ligand_01.pdbqt
 35 38 0 0 0
SMALL
GASTEIGER

@<TRIPOS>ATOM
      1  C         18.8600  -22.6740   -9.6680 C.2     1  UNL1        0.0870
      2  C         20.2120  -22.6660  -10.0560 C.2     1  UNL1        0.0550
      3  C         20.6380  -21.9330  -11.1690 C.2     1  UNL1        0.0360
      4  C         19.6960  -21.1930  -11.8770 C.2     1  UNL1        0.0300
      5  C         18.3510  -21.1870  -11.4860 C.2     1  UNL1        0.0100
      6  C         17.9050  -21.9310  -10.3830 C.2     1  UNL1       -0.0390
      7  C         16.4500  -21.8620  -10.0190 C.3     1  UNL1        0.0500
      8  N         22.0100  -22.0000  -11.4910 N.am    1  UNL1       -0.3210
      9  C         23.0890  -21.5990  -10.7140 C.2     1  UNL1        0.2800
     10  O         22.9900  -21.0960   -9.5980 O.2     1  UNL1       -0.2650
     11  H         22.2210  -22.3700  -12.4070 H       1  UNL1        0.1690
     12  C         24.3880  -21.8170  -11.3390 C.2     1  UNL1        0.1440
     13  C         25.6990  -21.6620  -10.9190 C.2     1  UNL1        0.0460
     14  C         26.5300  -22.0460  -12.0030 C.2     1  UNL1        0.0440
     15  C         25.6910  -22.4150  -13.0320 C.2     1  UNL1        0.1240
     16  O         24.3930  -22.2770  -12.6320 O.2     1  UNL1       -0.3010
     17  C         25.9490  -22.8850  -14.3550 C.ar    1  UNL1        0.1930
     18  N         27.0860  -23.3170  -14.7880 N.ar    1  UNL1       -0.1020
     19  O         26.8410  -23.6680  -16.1540 O.2     1  UNL1       -0.1530
     20  C         25.5170  -23.3890  -16.3910 C.ar    1  UNL1        0.3900
     21  O         24.9380  -23.5590  -17.4510 O.2     1  UNL1       -0.2360
     22  N         24.9750  -22.9050  -15.2670 N.ar    1  UNL1       -0.2810
     23  H         24.0190  -22.6140  -15.1490 H       1  UNL1        0.1730
     24  S         18.4330  -23.6630   -8.2370 S.O2    1  UNL1        0.2630
     25  O         19.5540  -24.5200   -7.9210 O.2     1  UNL1       -0.2000
     26  O         17.1180  -24.2290   -8.4650 O.2     1  UNL1       -0.2000
     27  N         18.3290  -22.5170   -6.9990 N.pl3   1  UNL1       -0.2810
     28  H         18.5620  -21.5800   -7.3200 H       1  UNL1        0.1790
     29  C         17.2900  -22.6470   -6.0340 C.2     1  UNL1        0.0430
     30  C         17.4840  -23.4110   -4.8860 C.2     1  UNL1        0.0300
     31  C         16.4370  -23.5830   -3.9820 C.2     1  UNL1        0.0030
     32  C         15.1960  -22.9940   -4.2280 C.2     1  UNL1        0.0070
     33  C         14.9960  -22.2150   -5.3740 C.2     1  UNL1       -0.0600
     34  C         13.6490  -21.6170   -5.6610 C.3     1  UNL1        0.0480
     35  C         16.0510  -22.0530   -6.2820 C.2     1  UNL1        0.0370
@<TRIPOS>BOND
     1    21    20    2
     2    20    19   ar
     3    20    22   ar
     4    19    18   ar
     5    22    23    1
     6    22    17   ar
     7    18    17   ar
     8    17    15    1
     9    15    16    1
    10    15    14    2
    11    16    12    1
    12    11     8    1
    13    14    13    1
    14     4     5    2
    15     4     3    1
    16     8     3    1
    17     8     9   am
    18     5     6    1
    19    12    13    2
    20    12     9    1
    21     3     2    2
    22     9    10    2
    23     6     7    1
    24     6     1    2
    25     2     1    1
    26     1    24    1
    27    26    24    2
    28    24    25    2
    29    24    27    1
    30    28    27    1
    31    27    29    1
    32    35    29    2
    33    35    33    1
    34    29    30    1
    35    34    33    1
    36    33    32    2
    37    30    31    2
    38    32    31    1
