@<TRIPOS>MOLECULE
35174_out_ligand_01.pdbqt
 35 38 0 0 0
SMALL
GASTEIGER

@<TRIPOS>ATOM
      1  N         23.3250  -23.4950  -11.0170 N.pl3   1  UNL1       -0.2830
      2  H         22.3080  -23.6520  -10.9240 H       1  UNL1        0.1280
      3  C         23.8800  -23.0720   -9.7270 C.3     1  UNL1        0.1950
      4  C         22.7950  -22.6280   -8.7310 C.2     1  UNL1        0.2350
      5  O         22.9800  -21.6760   -7.9760 O.2     1  UNL1       -0.2720
      6  N         21.6410  -23.3960   -8.8150 N.am    1  UNL1       -0.3260
      7  H         21.6330  -24.1430   -9.4960 H       1  UNL1        0.1690
      8  C         20.4590  -23.2540   -8.0600 C.2     1  UNL1        0.0340
      9  C         19.6200  -24.3640   -7.9680 C.2     1  UNL1        0.0320
     10  C         18.4210  -24.3010   -7.2420 C.2     1  UNL1        0.0310
     11  C         18.0110  -23.1360   -6.5810 C.2     1  UNL1        0.0300
     12  C         18.8750  -22.0370   -6.6840 C.2     1  UNL1        0.0310
     13  C         20.0760  -22.0880   -7.4100 C.2     1  UNL1        0.0320
     14  N         16.8360  -23.0760   -5.8710 N.pl3   1  UNL1       -0.3810
     15  C         15.5940  -22.5000   -6.3770 C.3     1  UNL1        0.1230
     16  C         14.7160  -22.3710   -5.1340 C.3     1  UNL1        0.0210
     17  C         15.1700  -23.5370   -4.2750 C.3     1  UNL1        0.0210
     18  C         16.6790  -23.5620   -4.5020 C.3     1  UNL1        0.1230
     19  C         23.5540  -22.7450  -12.1860 C.2     1  UNL1        0.0240
     20  C         24.5960  -23.0450  -13.0770 C.2     1  UNL1        0.0240
     21  C         24.7750  -22.3250  -14.2650 C.2     1  UNL1        0.0020
     22  C         23.8980  -21.3020  -14.6080 C.2     1  UNL1        0.0010
     23  C         22.8210  -21.0160  -13.7760 C.2     1  UNL1        0.0190
     24  C         22.6320  -21.7490  -12.5900 C.2     1  UNL1        0.0530
     25  C         21.4430  -21.4340  -11.7440 C.2     1  UNL1        0.2580
     26  O         21.5860  -20.7000  -10.7760 O.2     1  UNL1       -0.2670
     27  N         20.2750  -22.0620  -12.1480 N.am    1  UNL1       -0.3230
     28  H         20.3650  -22.7430  -12.8910 H       1  UNL1        0.1690
     29  C         18.9960  -21.9430  -11.5690 C.2     1  UNL1        0.0350
     30  C         18.2280  -20.7750  -11.6070 C.2     1  UNL1        0.0320
     31  C         16.9640  -20.7390  -11.0110 C.2     1  UNL1        0.0440
     32  C         16.4700  -21.8700  -10.3750 C.2     1  UNL1        0.1160
     33  F         15.2600  -21.8340   -9.8030 F       1  UNL1       -0.2060
     34  C         17.2140  -23.0400  -10.3280 C.2     1  UNL1        0.0440
     35  C         18.4760  -23.0770  -10.9270 C.2     1  UNL1        0.0320
@<TRIPOS>BOND
     1    22    21    2
     2    22    23    1
     3    21    20    1
     4    23    24    2
     5    20    19    2
     6    28    27    1
     7    24    19    1
     8    24    25    1
     9    19     1    1
    10    27    25   am
    11    27    29    1
    12    25    26    2
    13    30    29    2
    14    30    31    1
    15    29    35    1
    16     1     2    1
    17     1     3    1
    18    31    32    2
    19    35    34    2
    20    32    34    1
    21    32    33    1
    22     3     4    1
    23     7     6    1
    24     6     4   am
    25     6     8    1
    26     4     5    2
    27     8     9    2
    28     8    13    1
    29     9    10    1
    30    13    12    2
    31    10    11    2
    32    12    11    1
    33    11    14    1
    34    15    14    1
    35    15    16    1
    36    14    18    1
    37    16    17    1
    38    18    17    1
