@<TRIPOS>MOLECULE
3518_out_ligand_01.pdbqt
 39 43 0 0 0
SMALL
GASTEIGER

@<TRIPOS>ATOM
      1  O         21.1640  -22.4790  -11.3570 O.2     1  UNL1       -0.2670
      2  C         22.1170  -22.7710  -10.6420 C.2     1  UNL1        0.2570
      3  N         22.0760  -23.1130   -9.3070 N.am    1  UNL1       -0.3230
      4  H         22.9630  -23.3020   -8.8530 H       1  UNL1        0.1690
      5  C         23.4600  -22.8090  -11.2880 C.2     1  UNL1        0.0550
      6  C         23.5130  -22.3460  -12.6140 C.2     1  UNL1        0.0440
      7  C         24.7350  -22.2900  -13.2910 C.2     1  UNL1        0.0810
      8  C         25.9100  -22.7180  -12.6720 C.2     1  UNL1        0.0270
      9  C         25.8600  -23.1810  -11.3560 C.2     1  UNL1        0.0260
     10  C         24.6430  -23.2200  -10.6590 C.2     1  UNL1        0.0490
     11 CL         24.7100  -23.7570   -9.0170 Cl      1  UNL1       -0.0830
     12  S         24.7730  -21.6560  -14.9530 S.O2    1  UNL1        0.2630
     13  O         23.7130  -20.6760  -15.0520 O.2     1  UNL1       -0.2000
     14  O         24.8470  -22.7830  -15.8560 O.2     1  UNL1       -0.2000
     15  N         26.2280  -20.8040  -14.9990 N.pl3   1  UNL1       -0.2810
     16  H         27.0370  -21.4230  -15.0460 H       1  UNL1        0.1790
     17  C         26.2920  -19.5670  -15.6970 C.2     1  UNL1        0.0420
     18  C         26.1650  -19.5160  -17.0850 C.2     1  UNL1        0.0310
     19  C         26.2760  -18.2940  -17.7520 C.2     1  UNL1        0.0210
     20  C         26.5140  -17.1280  -17.0250 C.2     1  UNL1        0.0110
     21 BR         26.6730  -15.4760  -17.9270 Br      1  UNL1       -0.0510
     22  C         26.6350  -17.1740  -15.6370 C.2     1  UNL1        0.0210
     23  C         26.5220  -18.3960  -14.9720 C.2     1  UNL1        0.0310
     24  C         20.9410  -23.1890   -8.4730 C.2     1  UNL1        0.0350
     25  C         20.0280  -24.2400   -8.4880 C.2     1  UNL1        0.0320
     26  C         18.9220  -24.2370   -7.6260 C.2     1  UNL1        0.0320
     27  C         18.7080  -23.1920   -6.7200 C.2     1  UNL1        0.0430
     28  C         19.6290  -22.1350   -6.7050 C.2     1  UNL1       -0.0290
     29  N         17.5820  -23.1510   -5.8370 N.am    1  UNL1       -0.3170
     30  C         20.7300  -22.1340   -7.5810 C.2     1  UNL1        0.0390
     31  C         19.3870  -20.9520   -5.8140 C.3     1  UNL1        0.0500
     32  C         18.7330  -21.4040   -4.5300 C.3     1  UNL1        0.1080
     33  C         17.4850  -22.2050   -4.8150 C.2     1  UNL1        0.2240
     34  O         16.4890  -22.0630   -4.1040 O.2     1  UNL1       -0.2730
     35  C         16.4650  -24.0830   -6.0060 C.3     1  UNL1        0.1370
     36  C         15.5880  -23.5780   -7.1440 C.3     1  UNL1        0.0040
     37  C         15.7130  -24.3770   -8.4710 C.3     1  UNL1        0.0060
     38  C         15.4970  -23.0410   -9.2100 C.3     1  UNL1        0.0010
     39  C         16.0700  -22.3440   -7.9600 C.3     1  UNL1        0.0060
@<TRIPOS>BOND
     1    21    20    1
     2    19    18    1
     3    19    20    2
     4    18    17    2
     5    20    22    1
     6    14    12    2
     7    17    15    1
     8    17    23    1
     9    22    23    2
    10    13    12    2
    11    16    15    1
    12    15    12    1
    13    12     7    1
    14     7     8    2
    15     7     6    1
    16     8     9    1
    17     6     5    2
    18     1     2    2
    19     9    10    2
    20     5    10    1
    21     5     2    1
    22    10    11    1
    23     2     3   am
    24     3     4    1
    25     3    24    1
    26    38    37    1
    27    38    39    1
    28    25    24    2
    29    25    26    1
    30    24    30    1
    31    37    36    1
    32    39    36    1
    33    26    27    2
    34    30    28    2
    35    36    35    1
    36    27    28    1
    37    27    29    1
    38    28    31    1
    39    35    29    1
    40    29    33   am
    41    31    32    1
    42    33    32    1
    43    33    34    2
