@<TRIPOS>MOLECULE
351_out_ligand_01.pdbqt
 30 32 0 0 0
SMALL
GASTEIGER

@<TRIPOS>ATOM
      1  C         17.1000  -22.7520   -9.2410 C.2     1  UNL1        0.0800
      2  C         16.3940  -21.8570  -10.0520 C.2     1  UNL1        0.0250
      3  C         17.0540  -21.2070  -11.0950 C.2     1  UNL1        0.0030
      4  C         18.4120  -21.4450  -11.3210 C.2     1  UNL1        0.0170
      5  C         19.1160  -22.3430  -10.5040 C.2     1  UNL1        0.0330
      6  C         18.4510  -23.0200   -9.4770 C.2     1  UNL1        0.0420
      7  S         16.2550  -23.5870   -7.9150 S.O2    1  UNL1        0.2630
      8  O         15.4560  -22.5960   -7.2220 O.2     1  UNL1       -0.2000
      9  O         15.6580  -24.7920   -8.4460 O.2     1  UNL1       -0.2000
     10  N         17.5090  -23.9900   -6.8590 N.pl3   1  UNL1       -0.2810
     11  H         17.6050  -24.9960   -6.7400 H       1  UNL1        0.1790
     12  C         17.7820  -23.1520   -5.7420 C.2     1  UNL1        0.0430
     13  C         17.4220  -23.5370   -4.4530 C.2     1  UNL1        0.0300
     14  C         17.7560  -22.7280   -3.3670 C.2     1  UNL1        0.0030
     15  C         18.4430  -21.5300   -3.5730 C.2     1  UNL1        0.0070
     16  C         18.7880  -21.1240   -4.8670 C.2     1  UNL1       -0.0600
     17  C         19.5540  -19.8520   -5.0840 C.3     1  UNL1        0.0480
     18  C         18.4620  -21.9500   -5.9510 C.2     1  UNL1        0.0370
     19  C         20.5640  -22.6180  -10.7160 C.2     1  UNL1        0.2560
     20  O         21.1070  -23.4420   -9.9920 O.2     1  UNL1       -0.2670
     21  N         21.1560  -21.8600  -11.7100 N.am    1  UNL1       -0.3230
     22  H         20.5930  -21.1310  -12.1260 H       1  UNL1        0.1690
     23  C         22.4950  -21.9200  -12.1500 C.2     1  UNL1        0.0350
     24  C         22.7600  -21.4800  -13.4500 C.2     1  UNL1        0.0310
     25  C         24.0590  -21.5110  -13.9600 C.2     1  UNL1        0.0220
     26  C         25.1110  -21.9850  -13.1750 C.2     1  UNL1        0.0170
     27 BR         26.8470  -21.9940  -13.9430 Br      1  UNL1       -0.0510
     28  C         24.8730  -22.4360  -11.8690 C.2     1  UNL1       -0.0430
     29  C         25.9700  -22.9590  -10.9840 C.3     1  UNL1        0.0490
     30  C         23.5540  -22.3980  -11.3710 C.2     1  UNL1        0.0370
@<TRIPOS>BOND
     1    25    24    1
     2    25    26    2
     3    27    26    1
     4    24    23    2
     5    26    28    1
     6    23    21    1
     7    23    30    1
     8    22    21    1
     9    28    30    2
    10    28    29    1
    11    21    19   am
    12     4     3    2
    13     4     5    1
    14     3     2    1
    15    19     5    1
    16    19    20    2
    17     5     6    2
    18     2     1    2
    19     6     1    1
    20     1     7    1
    21     9     7    2
    22     7     8    2
    23     7    10    1
    24    10    11    1
    25    10    12    1
    26    18    12    2
    27    18    16    1
    28    12    13    1
    29    17    16    1
    30    16    15    2
    31    13    14    2
    32    15    14    1
