@<TRIPOS>MOLECULE
35208_out_ligand_01.pdbqt
 32 35 0 0 0
SMALL
GASTEIGER

@<TRIPOS>ATOM
      1  C         20.6360  -22.8410   -8.8100 C.2     1  UNL1        0.0340
      2  C         21.3990  -22.2360   -7.8050 C.2     1  UNL1        0.0170
      3  C         22.6120  -21.6320   -8.1280 C.2     1  UNL1        0.0030
      4  C         23.0620  -21.6380   -9.4500 C.2     1  UNL1        0.0290
      5  C         22.3110  -22.2510  -10.4650 C.2     1  UNL1        0.0350
      6  C         21.0980  -22.8570  -10.1350 C.2     1  UNL1        0.0460
      7  C         19.3400  -23.5000   -8.4970 C.2     1  UNL1        0.2510
      8  O         19.3160  -24.6040   -7.9670 O.2     1  UNL1       -0.2680
      9  N         18.2060  -22.8070   -8.8670 N.am    1  UNL1       -0.3570
     10  H         18.2950  -22.0050   -9.4770 H       1  UNL1        0.1620
     11  C         16.8870  -23.3850   -8.6870 C.3     1  UNL1        0.1270
     12  C         15.9600  -22.4700   -7.8810 C.3     1  UNL1        0.0590
     13  C         15.9240  -22.8500   -6.4150 C.2     1  UNL1       -0.0450
     14  C         14.9020  -23.7160   -5.9850 C.2     1  UNL1        0.0080
     15  C         14.8030  -24.0920   -4.6500 C.2     1  UNL1        0.0010
     16  C         15.7200  -23.6060   -3.7240 C.2     1  UNL1        0.0120
     17  C         16.7490  -22.7370   -4.1160 C.2     1  UNL1       -0.0250
     18  C         17.6630  -22.2560   -3.1630 C.2     1  UNL1        0.0120
     19  C         16.8650  -22.3440   -5.4740 C.2     1  UNL1       -0.0200
     20  C         18.6920  -21.3900   -3.5270 C.2     1  UNL1        0.0010
     21  C         18.8210  -20.9940   -4.8520 C.2     1  UNL1        0.0010
     22  C         17.9210  -21.4640   -5.8110 C.2     1  UNL1        0.0130
     23  N         22.8470  -22.2020  -11.7700 N.am    1  UNL1       -0.3230
     24  C         24.0720  -22.6860  -12.1940 C.2     1  UNL1        0.2570
     25  O         24.9340  -23.2090  -11.5010 O.2     1  UNL1       -0.2670
     26  H         22.2890  -21.7020  -12.4500 H       1  UNL1        0.1690
     27  C         24.3520  -22.5170  -13.6410 C.2     1  UNL1        0.0490
     28  C         25.1720  -23.3810  -14.3710 C.2     1  UNL1        0.0200
     29  C         25.3800  -23.1400  -15.7290 C.2     1  UNL1        0.0200
     30  C         24.7650  -22.0400  -16.3070 C.2     1  UNL1        0.1160
     31  N         23.9780  -21.1790  -15.6260 N.2     1  UNL1       -0.2720
     32  C         23.7980  -21.4280  -14.3040 C.2     1  UNL1        0.1330
@<TRIPOS>BOND
     1    30    29    2
     2    30    31    1
     3    29    28    1
     4    31    32    2
     5    28    27    2
     6    32    27    1
     7    27    24    1
     8    26    23    1
     9    24    23   am
    10    24    25    2
    11    23     5    1
    12     5     6    1
    13     5     4    2
    14     6     1    2
    15    10     9    1
    16     4     3    1
    17     9    11    1
    18     9     7   am
    19     1     7    1
    20     1     2    1
    21    11    12    1
    22     7     8    2
    23     3     2    2
    24    12    13    1
    25    13    14    2
    26    13    19    1
    27    14    15    1
    28    22    19    1
    29    22    21    2
    30    19    17    2
    31    21    20    1
    32    15    16    2
    33    17    16    1
    34    17    18    1
    35    20    18    2
