@<TRIPOS>MOLECULE
35236_out_ligand_01.pdbqt
 31 34 0 0 0
SMALL
GASTEIGER

@<TRIPOS>ATOM
      1  C         22.8010  -21.9520  -10.8970 C.2     1  UNL1        0.0350
      2  C         23.3480  -21.6860   -9.6410 C.2     1  UNL1        0.0290
      3  C         22.6190  -21.9560   -8.4800 C.2     1  UNL1        0.0030
      4  C         21.3390  -22.5000   -8.5640 C.2     1  UNL1        0.0090
      5  C         20.7760  -22.7920   -9.8140 C.2     1  UNL1       -0.0380
      6  C         21.5130  -22.5070  -10.9730 C.2     1  UNL1        0.0380
      7  C         19.3850  -23.3550   -9.9050 C.3     1  UNL1        0.1610
      8  N         18.7400  -23.3400   -8.6180 N.am    1  UNL1       -0.3530
      9  C         17.3850  -23.1640   -8.4760 C.2     1  UNL1        0.2540
     10  O         16.6420  -23.0150   -9.4430 O.2     1  UNL1       -0.2680
     11  H         19.2990  -23.4510   -7.7720 H       1  UNL1        0.1630
     12  C         16.8320  -23.1530   -7.0810 C.2     1  UNL1        0.0610
     13  C         15.6630  -23.9100   -6.8720 C.2     1  UNL1        0.0190
     14  C         15.0630  -23.9580   -5.6190 C.2     1  UNL1        0.0020
     15  C         15.6330  -23.2540   -4.5660 C.2     1  UNL1        0.0140
     16  C         16.8060  -22.5030   -4.7590 C.2     1  UNL1       -0.0060
     17  C         17.3760  -21.8020   -3.6850 C.2     1  UNL1        0.0150
     18  C         17.4310  -22.4340   -6.0270 C.2     1  UNL1        0.0820
     19  C         18.5370  -21.0650   -3.8680 C.2     1  UNL1        0.0200
     20  C         19.0930  -21.0440   -5.1270 C.2     1  UNL1        0.1170
     21  N         18.5650  -21.6980   -6.1860 N.2     1  UNL1       -0.2590
     22  N         23.4710  -21.7140  -12.1160 N.am    1  UNL1       -0.3230
     23  C         24.2470  -22.6050  -12.8320 C.2     1  UNL1        0.2560
     24  O         24.5840  -23.7310  -12.4890 O.2     1  UNL1       -0.2670
     25  H         23.4280  -20.7630  -12.4570 H       1  UNL1        0.1690
     26  C         24.7570  -22.0890  -14.1320 C.2     1  UNL1        0.0350
     27  C         25.1250  -23.0090  -15.1160 C.2     1  UNL1        0.0360
     28  C         25.5970  -22.5180  -16.3190 C.2     1  UNL1        0.1170
     29  N         25.7100  -21.2000  -16.5950 N.2     1  UNL1       -0.2730
     30  C         25.3190  -20.3330  -15.6380 C.2     1  UNL1        0.1170
     31  C         24.8390  -20.7210  -14.3970 C.2     1  UNL1        0.0360
@<TRIPOS>BOND
     1    29    28    2
     2    29    30    1
     3    28    27    1
     4    30    31    2
     5    27    26    2
     6    31    26    1
     7    26    23    1
     8    23    24    2
     9    23    22   am
    10    25    22    1
    11    22     1    1
    12     6     1    2
    13     6     5    1
    14     1     2    1
    15     7     5    1
    16     7     8    1
    17     5     4    2
    18     2     3    2
    19    10     9    2
    20     8     9   am
    21     8    11    1
    22     4     3    1
    23     9    12    1
    24    12    13    2
    25    12    18    1
    26    13    14    1
    27    21    18    1
    28    21    20    2
    29    18    16    2
    30    14    15    2
    31    20    19    1
    32    16    15    1
    33    16    17    1
    34    19    17    2
