@<TRIPOS>MOLECULE
35250_out_ligand_01.pdbqt
 31 34 0 0 0
SMALL
GASTEIGER

@<TRIPOS>ATOM
      1  C         17.1530  -22.5790   -9.2360 C.ar    1  UNL1        0.1180
      2  N         16.9700  -21.9290  -10.3480 N.ar    1  UNL1       -0.1950
      3  C         18.0540  -21.5400  -11.1200 C.ar    1  UNL1        0.2820
      4  O         17.9190  -20.8940  -12.1540 O.2     1  UNL1       -0.2650
      5  C         19.3890  -21.9190  -10.6320 C.ar    1  UNL1        0.0750
      6  C         20.6920  -21.6800  -11.2190 C.ar    1  UNL1       -0.0210
      7  C         20.8900  -21.0210  -12.5520 C.3     1  UNL1        0.0510
      8  C         21.7040  -22.1640  -10.3890 C.ar    1  UNL1        0.0820
      9  S         21.0740  -22.9530   -8.9990 S.2     1  UNL1       -0.0650
     10  C         19.4890  -22.6110   -9.4510 C.ar    1  UNL1        0.0920
     11  N         18.3910  -22.9530   -8.7590 N.ar    1  UNL1       -0.3370
     12  H         18.4570  -23.3920   -7.8450 H       1  UNL1        0.1680
     13  C         15.9250  -22.9770   -8.4280 C.3     1  UNL1        0.1580
     14  S         16.3300  -24.3760   -7.3290 S.3     1  UNL1       -0.1220
     15  C         16.3310  -23.5150   -5.7570 C.2     1  UNL1        0.0070
     16  C         15.2770  -23.6050   -4.8310 C.2     1  UNL1       -0.0450
     17  C         15.3800  -22.9020   -3.6200 C.2     1  UNL1        0.0090
     18  C         14.0610  -24.4570   -5.0590 C.3     1  UNL1        0.0490
     19  C         16.4910  -22.1010   -3.3430 C.2     1  UNL1        0.0070
     20  C         17.5330  -21.9960   -4.2660 C.2     1  UNL1       -0.0610
     21  C         18.7020  -21.0980   -4.0000 C.3     1  UNL1        0.0480
     22  C         17.4370  -22.6950   -5.4740 C.2     1  UNL1        0.0250
     23  C         23.1560  -22.1100  -10.5310 C.2     1  UNL1        0.2650
     24  O         23.8500  -21.3250   -9.8980 O.2     1  UNL1       -0.2670
     25  N         23.6360  -22.9830  -11.4920 N.am    1  UNL1       -0.3010
     26  H         22.9690  -23.5000  -12.0400 H       1  UNL1        0.1710
     27  C         24.9360  -23.2420  -11.7870 C.3     1  UNL1        0.1640
     28  N         25.8900  -23.5320  -10.9780 N.3     1  UNL1       -0.2660
     29  C         27.1210  -23.7880  -11.7490 C.3     1  UNL1        0.1620
     30  C         27.0450  -23.0830  -13.0980 C.3     1  UNL1        0.1040
     31  S         25.2830  -23.1290  -13.4850 S.3     1  UNL1       -0.0910
@<TRIPOS>BOND
     1    31    30    1
     2    31    27    1
     3    30    29    1
     4     7     6    1
     5     4     3    2
     6    26    25    1
     7    27    25    1
     8    27    28    1
     9    29    28    1
    10    25    23   am
    11     6     5   ar
    12     6     8   ar
    13     3     5   ar
    14     3     2   ar
    15     5    10   ar
    16    23     8    1
    17    23    24    2
    18     8     9   ar
    19     2     1   ar
    20    10     9   ar
    21    10    11   ar
    22     1    11   ar
    23     1    13    1
    24    11    12    1
    25    13    14    1
    26    14    15    1
    27    15    22    2
    28    15    16    1
    29    22    20    1
    30    18    16    1
    31    16    17    2
    32    20    21    1
    33    20    19    2
    34    17    19    1
