@<TRIPOS>MOLECULE
3525_out_ligand_01.pdbqt
 28 31 0 0 0
SMALL
GASTEIGER

@<TRIPOS>ATOM
      1  C         19.1620  -23.4070   -7.3280 C.2     1  UNL1       -0.0470
      2  C         19.5130  -24.5300   -8.0900 C.2     1  UNL1        0.0100
      3  C         20.7530  -24.6070   -8.7360 C.2     1  UNL1        0.0290
      4  C         21.6750  -23.5550   -8.6810 C.2     1  UNL1        0.0280
      5  C         21.3380  -22.4490   -7.8990 C.2     1  UNL1        0.0290
      6  C         20.0970  -22.3660   -7.2490 C.2     1  UNL1        0.0100
      7  N         22.9180  -23.7240   -9.2930 N.pl3   1  UNL1       -0.3860
      8  H         22.9280  -24.5030   -9.9450 H       1  UNL1        0.1600
      9  C         23.6380  -22.5670   -9.8050 C.3     1  UNL1        0.1580
     10  C         22.9480  -22.0650  -11.0530 C.2     1  UNL1       -0.0400
     11  C         23.6230  -22.0650  -12.2820 C.2     1  UNL1        0.0090
     12  C         22.9900  -21.6110  -13.4370 C.2     1  UNL1        0.0010
     13  C         21.6720  -21.1580  -13.3800 C.2     1  UNL1        0.0070
     14  C         20.9710  -21.1630  -12.1680 C.2     1  UNL1       -0.0570
     15  C         21.6190  -21.6170  -11.0080 C.2     1  UNL1        0.0150
     16  C         19.5500  -20.6630  -12.1010 C.3     1  UNL1        0.0430
     17  C         18.8140  -21.3310  -10.9480 C.3     1  UNL1       -0.0100
     18  C         17.2760  -21.1220  -10.8450 C.3     1  UNL1        0.0050
     19  C         17.1820  -22.5900  -10.3830 C.3     1  UNL1        0.0010
     20  C         18.4980  -22.8390  -11.1470 C.3     1  UNL1        0.0050
     21  C         17.7910  -23.3160   -6.6500 C.3     1  UNL1        0.0080
     22  C         16.9990  -22.0650   -7.1000 C.3     1  UNL1        0.0160
     23  C         15.5280  -22.3720   -6.8210 C.3     1  UNL1        0.0010
     24  C         15.4170  -23.8910   -6.7370 C.3     1  UNL1        0.0010
     25  C         16.8030  -24.4280   -7.0760 C.3     1  UNL1        0.0160
     26  C         17.9920  -23.2950   -5.1100 C.3     1  UNL1        0.1780
     27  O         17.7580  -24.5730   -4.5200 O.3     1  UNL1       -0.4000
     28  H         17.0610  -25.0020   -5.0470 H       1  UNL1        0.2090
@<TRIPOS>BOND
     1    12    13    2
     2    12    11    1
     3    13    14    1
     4    11    10    2
     5    14    16    1
     6    14    15    2
     7    16    17    1
     8    20    17    1
     9    20    19    1
    10    10    15    1
    11    10     9    1
    12    17    18    1
    13    18    19    1
    14     8     7    1
    15     9     7    1
    16     7     4    1
    17     3     4    2
    18     3     2    1
    19     4     5    1
    20     2     1    2
    21     5     6    2
    22     1     6    1
    23     1    21    1
    24    22    23    1
    25    22    21    1
    26    25    24    1
    27    25    21    1
    28    23    24    1
    29    21    26    1
    30    26    27    1
    31    28    27    1
