@<TRIPOS>MOLECULE
3527_out_ligand_01.pdbqt
 37 40 0 0 0
SMALL
GASTEIGER

@<TRIPOS>ATOM
      1  N         26.8640  -26.7000  -15.2130 N.1     1  UNL1       -0.1910
      2  C         26.6430  -25.6130  -14.8720 C.1     1  UNL1        0.1060
      3  C         26.3930  -24.3090  -14.3760 C.2     1  UNL1        0.1280
      4  C         26.3470  -24.0500  -13.0620 C.2     1  UNL1        0.1240
      5  N         26.1120  -22.7800  -12.5590 N.am    1  UNL1       -0.3070
      6  C         25.8780  -21.6940  -13.4000 C.2     1  UNL1        0.3290
      7  O         25.5970  -20.5640  -13.0040 O.2     1  UNL1       -0.2460
      8  N         25.9580  -21.9600  -14.7410 N.am    1  UNL1       -0.2740
      9  C         26.1830  -23.1850  -15.3120 C.2     1  UNL1        0.2710
     10  O         26.2020  -23.3250  -16.5300 O.2     1  UNL1       -0.2660
     11  H         25.7960  -21.1860  -15.3670 H       1  UNL1        0.1730
     12  C         26.0810  -22.5780  -11.1010 C.3     1  UNL1        0.1530
     13  C         24.9080  -23.2960  -10.4200 C.3     1  UNL1        0.1440
     14  N         23.6810  -23.2330  -11.1910 N.am    1  UNL1       -0.3420
     15  C         22.8810  -22.1230  -11.1080 C.2     1  UNL1        0.3160
     16  O         23.1850  -21.1110  -10.4940 O.2     1  UNL1       -0.2470
     17  N         21.7090  -22.3000  -11.7880 N.am    1  UNL1       -0.3390
     18  H         21.7230  -22.9910  -12.5250 H       1  UNL1        0.1640
     19  H         23.1920  -24.1080  -11.3640 H       1  UNL1        0.1640
     20  C         20.7430  -21.2320  -11.9100 C.3     1  UNL1        0.1630
     21  C         19.4700  -21.5490  -11.1690 C.2     1  UNL1       -0.0380
     22  C         18.2290  -21.1250  -11.6690 C.2     1  UNL1        0.0090
     23  C         17.0480  -21.4230  -10.9870 C.2     1  UNL1        0.0030
     24  C         17.0920  -22.1420   -9.7910 C.2     1  UNL1        0.0370
     25  C         18.3230  -22.5480   -9.2740 C.2     1  UNL1        0.0760
     26  C         19.5040  -22.2720   -9.9660 C.2     1  UNL1        0.0460
     27  O         18.4450  -23.2870   -8.1170 O.2     1  UNL1       -0.3100
     28  C         18.3570  -22.6010   -6.9190 C.2     1  UNL1        0.0870
     29  C         19.3930  -21.7460   -6.5200 C.2     1  UNL1        0.0380
     30  C         19.3190  -21.0930   -5.2950 C.2     1  UNL1        0.0040
     31  C         18.2210  -21.3030   -4.4610 C.2     1  UNL1        0.0120
     32  C         17.1830  -22.1740   -4.8340 C.2     1  UNL1       -0.0230
     33  C         16.0850  -22.3910   -3.9850 C.2     1  UNL1        0.0120
     34  C         17.2460  -22.8440   -6.0790 C.2     1  UNL1        0.0080
     35  C         15.0570  -23.2600   -4.3510 C.2     1  UNL1        0.0010
     36  C         15.1110  -23.9250   -5.5700 C.2     1  UNL1        0.0010
     37  C         16.1940  -23.7200   -6.4260 C.2     1  UNL1        0.0150
@<TRIPOS>BOND
     1    10     9    2
     2    11     8    1
     3     9     8   am
     4     9     3    1
     5     1     2    3
     6     2     3    1
     7     8     6   am
     8     3     4    2
     9     6     7    2
    10     6     5   am
    11     4     5    1
    12     5    12    1
    13    18    17    1
    14    20    17    1
    15    20    21    1
    16    17    15   am
    17    22    21    2
    18    22    23    1
    19    19    14    1
    20    14    15   am
    21    14    13    1
    22    21    26    1
    23    15    16    2
    24    12    13    1
    25    23    24    2
    26    26    25    2
    27    24    25    1
    28    25    27    1
    29    27    28    1
    30    28    29    2
    31    28    34    1
    32    29    30    1
    33    37    34    1
    34    37    36    2
    35    34    32    2
    36    36    35    1
    37    30    31    2
    38    32    31    1
    39    32    33    1
    40    35    33    2
