@<TRIPOS>MOLECULE
35289_out_ligand_01.pdbqt
 35 38 0 0 0
SMALL
GASTEIGER

@<TRIPOS>ATOM
      1  C         17.3520  -23.0630   -8.8510 C.2     1  UNL1        0.0800
      2  C         16.4770  -22.3010   -9.6280 C.2     1  UNL1        0.0260
      3  C         16.9810  -21.5180  -10.6700 C.2     1  UNL1        0.0090
      4  C         18.3590  -21.4870  -10.9430 C.2     1  UNL1       -0.0460
      5  C         18.8570  -20.6580  -12.0940 C.3     1  UNL1        0.0490
      6  C         19.2260  -22.2310  -10.1180 C.2     1  UNL1        0.0390
      7  C         18.7270  -23.0300   -9.0830 C.2     1  UNL1        0.0420
      8  C         20.6970  -22.2250  -10.3090 C.2     1  UNL1        0.2560
      9  O         21.4050  -22.2320   -9.3110 O.2     1  UNL1       -0.2670
     10  N         21.0850  -22.1710  -11.6320 N.am    1  UNL1       -0.3230
     11  H         20.3430  -22.0830  -12.3160 H       1  UNL1        0.1690
     12  C         22.4020  -22.1730  -12.1400 C.2     1  UNL1        0.0370
     13  C         23.4610  -22.9050  -11.5530 C.2     1  UNL1        0.0320
     14  C         24.7570  -22.8860  -12.0920 C.2     1  UNL1        0.0340
     15  C         24.9470  -22.1250  -13.2170 C.ar    1  UNL1        0.0630
     16  N         26.0990  -21.9120  -13.9660 N.ar    1  UNL1       -0.3070
     17  C         23.9130  -21.4030  -13.8020 C.ar    1  UNL1        0.0650
     18  C         25.7910  -21.0520  -15.0290 C.ar    1  UNL1        0.3250
     19  H         27.0150  -22.2940  -13.8000 H       1  UNL1        0.1700
     20  O         26.5560  -20.6490  -15.8860 O.2     1  UNL1       -0.2470
     21  N         24.4280  -20.7430  -14.9150 N.ar    1  UNL1       -0.3060
     22  H         23.9380  -20.1360  -15.5520 H       1  UNL1        0.1700
     23  C         22.6350  -21.4040  -13.2930 C.2     1  UNL1        0.0610
     24  S         16.7230  -24.0580   -7.5230 S.O2    1  UNL1        0.2630
     25  O         15.5970  -24.7970   -8.0550 O.2     1  UNL1       -0.2000
     26  O         17.8300  -24.7440   -6.8940 O.2     1  UNL1       -0.2000
     27  N         16.0790  -22.9100   -6.4680 N.pl3   1  UNL1       -0.2800
     28  H         15.1170  -23.1320   -6.2160 H       1  UNL1        0.1790
     29  C         16.9220  -22.3730   -5.4530 C.2     1  UNL1        0.0480
     30  C         17.9680  -21.5300   -5.8360 C.2     1  UNL1        0.0300
     31  C         18.8430  -21.0170   -4.8790 C.2     1  UNL1        0.0020
     32  C         18.6770  -21.3530   -3.5380 C.2     1  UNL1        0.0010
     33  C         17.6350  -22.1980   -3.1530 C.2     1  UNL1        0.0090
     34  C         16.7400  -22.7160   -4.1030 C.2     1  UNL1       -0.0350
     35  C         15.6440  -23.6400   -3.6540 C.3     1  UNL1        0.0500
@<TRIPOS>BOND
     1    20    18    2
     2    22    21    1
     3    18    21   ar
     4    18    16   ar
     5    21    17   ar
     6    16    19    1
     7    16    15   ar
     8    17    23    1
     9    17    15   ar
    10    23    12    2
    11    15    14    1
    12    11    10    1
    13    12    10    1
    14    12    13    1
    15     5     4    1
    16    14    13    2
    17    10     8   am
    18     4     3    2
    19     4     6    1
    20     3     2    1
    21     8     6    1
    22     8     9    2
    23     6     7    2
    24     2     1    2
    25     7     1    1
    26     1    24    1
    27    25    24    2
    28    24    26    2
    29    24    27    1
    30    27    28    1
    31    27    29    1
    32    30    29    2
    33    30    31    1
    34    29    34    1
    35    31    32    2
    36    34    35    1
    37    34    33    2
    38    32    33    1
