@<TRIPOS>MOLECULE
35280_out_ligand_01.pdbqt
 28 31 0 0 0
SMALL
GASTEIGER

@<TRIPOS>ATOM
      1  C         22.5150  -22.3020   -9.8420 C.2     1  UNL1        0.0320
      2  C         22.3770  -22.2170   -8.4540 C.2     1  UNL1        0.0190
      3  C         21.1160  -22.3830   -7.8670 C.2     1  UNL1        0.0240
      4  C         19.9690  -22.6450   -8.6350 C.2     1  UNL1        0.0110
      5  C         20.1350  -22.7510  -10.0240 C.2     1  UNL1        0.0240
      6  C         21.3910  -22.5830  -10.6220 C.2     1  UNL1        0.0190
      7  C         23.8280  -22.1320  -10.5240 C.2     1  UNL1        0.2510
      8  N         24.2210  -23.1510  -11.3670 N.am    1  UNL1       -0.3570
      9  H         23.7100  -24.0230  -11.3620 H       1  UNL1        0.1620
     10  O         24.5180  -21.1440  -10.2980 O.2     1  UNL1       -0.2680
     11  C         25.5120  -23.1230  -12.0310 C.3     1  UNL1        0.1270
     12  C         25.5810  -24.0890  -13.2180 C.3     1  UNL1        0.0610
     13  C         25.1080  -23.4610  -14.4830 C.2     1  UNL1       -0.0200
     14  C         25.0660  -24.0170  -15.7450 C.2     1  UNL1        0.1200
     15  N         24.5600  -23.0580  -16.5710 N.pl3   1  UNL1       -0.2850
     16  C         24.3250  -23.1660  -17.9900 C.3     1  UNL1        0.1790
     17  N         24.2690  -21.9070  -15.9360 N.2     1  UNL1       -0.1850
     18  C         24.5960  -22.1560  -14.6670 C.2     1  UNL1        0.1470
     19  N         18.7340  -22.8070   -7.9860 N.pl3   1  UNL1       -0.2790
     20  C         17.5190  -22.4400   -8.7260 C.3     1  UNL1        0.1000
     21  C         16.3050  -23.0950   -8.0620 C.3     1  UNL1        0.0540
     22  C         16.2430  -22.7870   -6.5890 C.2     1  UNL1       -0.0500
     23  C         15.0270  -22.8950   -5.9000 C.2     1  UNL1        0.0070
     24  C         17.4160  -22.4450   -5.8930 C.2     1  UNL1       -0.0380
     25  C         14.9680  -22.6400   -4.5300 C.2     1  UNL1        0.0010
     26  C         16.1210  -22.2810   -3.8380 C.2     1  UNL1        0.0010
     27  C         17.3380  -22.1840   -4.5140 C.2     1  UNL1        0.0090
     28  C         18.7560  -22.3120   -6.5930 C.3     1  UNL1        0.1340
@<TRIPOS>BOND
     1    16    15    1
     2    15    17    1
     3    15    14    1
     4    17    18    2
     5    14    13    2
     6    18    13    1
     7    13    12    1
     8    12    11    1
     9    11     8    1
    10     8     9    1
    11     8     7   am
    12     6     5    1
    13     6     1    2
    14     7    10    2
    15     7     1    1
    16     5     4    2
    17     1     2    1
    18    20    21    1
    19    20    19    1
    20     4    19    1
    21     4     3    1
    22     2     3    2
    23    21    22    1
    24    19    28    1
    25    28    24    1
    26    22    23    2
    27    22    24    1
    28    23    25    1
    29    24    27    2
    30    25    26    2
    31    27    26    1
