@<TRIPOS>MOLECULE
35287_out_ligand_01.pdbqt
 27 30 0 0 0
SMALL
GASTEIGER

@<TRIPOS>ATOM
      1  C         21.9550  -22.1080  -10.0440 C.2     1  UNL1        0.0320
      2  C         20.7390  -22.3770  -10.6760 C.2     1  UNL1        0.0190
      3  C         19.6110  -22.7300   -9.9230 C.2     1  UNL1        0.0240
      4  C         19.6690  -22.8270   -8.5260 C.2     1  UNL1        0.0110
      5  C         20.9080  -22.5720   -7.9120 C.2     1  UNL1        0.0240
      6  C         22.0420  -22.2220   -8.6550 C.2     1  UNL1        0.0190
      7  C         23.1260  -21.7380  -10.8850 C.2     1  UNL1        0.2520
      8  O         24.1290  -21.2520  -10.3750 O.2     1  UNL1       -0.2680
      9  N         23.0270  -22.0100  -12.2380 N.am    1  UNL1       -0.3510
     10  H         22.2870  -22.6340  -12.5380 H       1  UNL1        0.1630
     11  C         24.1560  -21.7820  -13.1260 C.3     1  UNL1        0.0990
     12  C         23.7530  -21.0270  -14.4020 C.3     1  UNL1        0.0410
     13  C         24.9880  -21.0280  -15.2910 C.3     1  UNL1        0.1420
     14  S         25.7450  -22.6230  -15.0340 S.O2    1  UNL1        0.1460
     15  O         27.1210  -22.4290  -14.6280 O.2     1  UNL1       -0.2280
     16  O         25.3780  -23.5000  -16.1270 O.2     1  UNL1       -0.2280
     17  C         24.7900  -23.0840  -13.6030 C.3     1  UNL1        0.1650
     18  N         18.5700  -23.1800   -7.7250 N.pl3   1  UNL1       -0.2790
     19  C         17.2550  -23.2860   -8.3750 C.3     1  UNL1        0.1000
     20  C         16.3140  -24.1000   -7.4840 C.3     1  UNL1        0.0540
     21  C         16.2640  -23.5530   -6.0820 C.2     1  UNL1       -0.0500
     22  C         15.1720  -23.8470   -5.2520 C.2     1  UNL1        0.0070
     23  C         17.3390  -22.7950   -5.5840 C.2     1  UNL1       -0.0380
     24  C         15.1310  -23.3690   -3.9440 C.2     1  UNL1        0.0010
     25  C         16.1830  -22.6000   -3.4510 C.2     1  UNL1        0.0010
     26  C         17.2800  -22.3150   -4.2650 C.2     1  UNL1        0.0090
     27  C         18.5420  -22.4480   -6.4410 C.3     1  UNL1        0.1340
@<TRIPOS>BOND
     1    16    14    2
     2    13    14    1
     3    13    12    1
     4    14    15    2
     5    14    17    1
     6    12    11    1
     7    17    11    1
     8    11     9    1
     9    10     9    1
    10     9     7   am
    11     7     8    2
    12     7     1    1
    13     2     1    2
    14     2     3    1
    15     1     6    1
    16     3     4    2
    17     6     5    2
    18     4     5    1
    19     4    18    1
    20    19    18    1
    21    19    20    1
    22    18    27    1
    23    20    21    1
    24    27    23    1
    25    21    23    2
    26    21    22    1
    27    23    26    1
    28    22    24    2
    29    26    25    2
    30    24    25    1
