@<TRIPOS>MOLECULE
35286_out_ligand_01.pdbqt
 28 31 0 0 0
SMALL
GASTEIGER

@<TRIPOS>ATOM
      1  C         18.5540  -23.4550   -8.1960 C.2     1  UNL1        0.0930
      2  C         17.3210  -24.0740   -8.2520 C.2     1  UNL1        0.1430
      3  N         16.3880  -23.9500   -7.2730 N.2     1  UNL1       -0.2400
      4  C         16.6820  -23.1640   -6.2040 C.ar    1  UNL1        0.1480
      5  C         17.9030  -22.5090   -6.0980 C.ar    1  UNL1        0.0800
      6  C         18.8590  -22.6490   -7.1050 C.2     1  UNL1        0.0470
      7  C         18.1640  -21.6840   -4.9180 C.ar    1  UNL1        0.2630
      8  O         19.2350  -21.1120   -4.7650 O.2     1  UNL1       -0.2670
      9  N         17.1490  -21.6040   -4.0050 N.ar    1  UNL1       -0.2750
     10  C         15.9410  -22.2410   -4.0700 C.ar    1  UNL1        0.3300
     11  O         15.1340  -22.0940   -3.1550 O.2     1  UNL1       -0.2460
     12  N         15.7180  -23.0230   -5.1830 N.ar    1  UNL1       -0.2870
     13  C         14.4570  -23.7290   -5.3400 C.3     1  UNL1        0.1630
     14  H         17.3100  -21.0410   -3.1830 H       1  UNL1        0.1730
     15  S         19.7130  -23.6750   -9.5090 S.O2    1  UNL1        0.2490
     16  O         18.9260  -23.6820  -10.7220 O.2     1  UNL1       -0.2050
     17  O         20.5560  -24.7980   -9.1530 O.2     1  UNL1       -0.2050
     18  N         20.6680  -22.2280   -9.3930 N.pl3   1  UNL1       -0.1710
     19  C         21.3210  -21.8990  -10.6470 C.2     1  UNL1        0.0370
     20  C         22.6420  -22.3400  -10.8500 C.2     1  UNL1       -0.0350
     21  C         20.6300  -21.2480  -11.6830 C.2     1  UNL1       -0.0390
     22  C         23.2430  -22.2030  -12.1050 C.2     1  UNL1        0.0090
     23  C         23.4030  -22.9130   -9.6880 C.3     1  UNL1        0.0420
     24  C         22.5460  -21.5990  -13.1470 C.2     1  UNL1        0.0010
     25  C         21.2550  -21.1170  -12.9350 C.2     1  UNL1        0.0090
     26  C         23.0280  -22.1050   -8.4540 C.3     1  UNL1        0.0200
     27  C         21.5320  -22.1770   -8.1650 C.3     1  UNL1        0.1140
     28  C         19.2460  -20.6880  -11.5200 C.3     1  UNL1        0.0500
@<TRIPOS>BOND
     1    24    25    2
     2    24    22    1
     3    25    21    1
     4    22    20    2
     5    21    28    1
     6    21    19    2
     7    20    19    1
     8    20    23    1
     9    16    15    2
    10    19    18    1
    11    23    26    1
    12    15    18    1
    13    15    17    2
    14    15     1    1
    15    18    27    1
    16    26    27    1
    17     2     1    2
    18     2     3    1
    19     1     6    1
    20     3     4    2
    21     6     5    2
    22     4     5   ar
    23     4    12   ar
    24     5     7   ar
    25    13    12    1
    26    12    10   ar
    27     7     8    2
    28     7     9   ar
    29    10     9   ar
    30    10    11    2
    31     9    14    1
