@<TRIPOS>MOLECULE
35296_out_ligand_01.pdbqt
 34 37 0 0 0
SMALL
GASTEIGER

@<TRIPOS>ATOM
      1  O         15.5700  -23.9530  -10.2500 O.2     1  UNL1       -0.2730
      2  C         15.9910  -22.9660   -9.6520 C.2     1  UNL1        0.2210
      3  N         15.8850  -22.8110   -8.2840 N.am    1  UNL1       -0.3590
      4  H         16.4850  -22.1070   -7.8670 H       1  UNL1        0.1620
      5  C         16.5990  -21.7810  -10.3870 C.3     1  UNL1        0.1410
      6  C         18.0880  -21.8950  -10.6130 C.2     1  UNL1       -0.0490
      7  C         18.8130  -22.9530  -10.0500 C.2     1  UNL1        0.0100
      8  C         20.1940  -23.0590  -10.2470 C.2     1  UNL1        0.0300
      9  C         20.8740  -22.1150  -11.0150 C.2     1  UNL1        0.0350
     10  C         20.1490  -21.0640  -11.5890 C.2     1  UNL1        0.0300
     11  C         18.7690  -20.9540  -11.3920 C.2     1  UNL1        0.0100
     12  N         22.2590  -22.1450  -11.2580 N.am    1  UNL1       -0.3210
     13  C         23.2820  -21.6440  -10.4730 C.2     1  UNL1        0.2800
     14  O         23.1420  -21.0710   -9.3980 O.2     1  UNL1       -0.2650
     15  H         22.5660  -22.5880  -12.1180 H       1  UNL1        0.1690
     16  C         24.5930  -21.8590  -11.0610 C.2     1  UNL1        0.1440
     17  C         25.7720  -21.1490  -10.9380 C.2     1  UNL1        0.0460
     18  C         26.7330  -21.8120  -11.7400 C.2     1  UNL1        0.0480
     19  C         26.0850  -22.8840  -12.3070 C.2     1  UNL1        0.1220
     20 BR         26.8750  -24.1470  -13.4900 Br      1  UNL1       -0.0230
     21  O         24.7880  -22.9250  -11.9020 O.2     1  UNL1       -0.2980
     22  C         15.4870  -23.9140   -7.4230 C.3     1  UNL1        0.1430
     23  C         16.6100  -24.4600   -6.5280 C.3     1  UNL1        0.1520
     24  N         16.9510  -23.5320   -5.4470 N.am    1  UNL1       -0.3120
     25  C         16.2270  -23.6050   -4.2650 C.2     1  UNL1        0.2480
     26  O         15.3160  -24.4090   -4.0720 O.2     1  UNL1       -0.2710
     27  C         16.7070  -22.6780   -3.1530 C.3     1  UNL1        0.2790
     28  O         17.3780  -21.4830   -3.4980 O.2     1  UNL1       -0.3400
     29  C         18.2000  -21.6250   -4.5810 C.2     1  UNL1        0.0960
     30  C         19.2140  -20.6700   -4.6890 C.2     1  UNL1        0.0390
     31  C         18.0290  -22.6110   -5.5640 C.2     1  UNL1        0.0700
     32  C         20.0950  -20.7030   -5.7660 C.2     1  UNL1        0.0030
     33  C         19.9530  -21.6870   -6.7390 C.2     1  UNL1        0.0020
     34  C         18.9260  -22.6330   -6.6420 C.2     1  UNL1        0.0330
@<TRIPOS>BOND
     1    20    19    1
     2    19    21    1
     3    19    18    2
     4    15    12    1
     5    21    16    1
     6    18    17    1
     7    10    11    1
     8    10     9    2
     9    11     6    2
    10    12     9    1
    11    12    13   am
    12    16    17    2
    13    16    13    1
    14     9     8    1
    15     6     5    1
    16     6     7    1
    17    13    14    2
    18     5     2    1
    19     1     2    2
    20     8     7    2
    21     2     3   am
    22     3     4    1
    23     3    22    1
    24    22    23    1
    25    33    34    2
    26    33    32    1
    27    34    31    1
    28    23    24    1
    29    32    30    2
    30    31    24    1
    31    31    29    2
    32    24    25   am
    33    30    29    1
    34    29    28    1
    35    25    26    2
    36    25    27    1
    37    28    27    1
