@<TRIPOS>MOLECULE
35297_out_ligand_01.pdbqt
 28 31 0 0 0
SMALL
GASTEIGER

@<TRIPOS>ATOM
      1  C         21.6690  -22.2390  -10.3280 C.2     1  UNL1        0.0320
      2  C         20.6920  -21.9990  -11.3040 C.2     1  UNL1        0.0180
      3  C         19.3370  -22.0300  -10.9590 C.2     1  UNL1        0.0190
      4  C         18.9500  -22.2980   -9.6410 C.2     1  UNL1        0.0450
      5  C         19.9210  -22.5480   -8.6630 C.2     1  UNL1       -0.0380
      6  C         21.2780  -22.5320   -9.0120 C.2     1  UNL1        0.0250
      7  C         19.4760  -22.8760   -7.2670 C.3     1  UNL1        0.0770
      8  C         18.1800  -22.1120   -6.9860 C.3     1  UNL1        0.1690
      9  O         17.1930  -22.4600   -7.9840 O.3     1  UNL1       -0.3070
     10  C         17.5030  -22.3600   -9.3010 C.2     1  UNL1        0.2940
     11  O         16.6470  -22.3430  -10.1740 O.2     1  UNL1       -0.2590
     12  C         23.1260  -22.2240  -10.6430 C.2     1  UNL1        0.2510
     13  O         23.8380  -21.3350  -10.1900 O.2     1  UNL1       -0.2680
     14  N         23.5840  -23.2190  -11.4790 N.am    1  UNL1       -0.3530
     15  H         22.9150  -23.7730  -11.9950 H       1  UNL1        0.1630
     16  C         24.9480  -23.2280  -11.9610 C.3     1  UNL1        0.1620
     17  C         24.9940  -23.2730  -13.4600 C.2     1  UNL1       -0.0230
     18  C         24.4840  -22.2280  -14.2360 C.2     1  UNL1        0.0120
     19  C         24.5260  -22.3120  -15.6240 C.2     1  UNL1        0.0200
     20  C         25.0750  -23.4480  -16.1940 C.2     1  UNL1        0.1160
     21  N         25.5740  -24.4810  -15.4810 N.2     1  UNL1       -0.2730
     22  C         25.5230  -24.3690  -14.1340 C.2     1  UNL1        0.1240
     23  C         17.5510  -22.3360   -5.6210 C.2     1  UNL1       -0.0290
     24  C         16.3000  -22.9750   -5.5580 C.2     1  UNL1        0.0100
     25  C         15.6600  -23.1930   -4.3360 C.2     1  UNL1        0.0010
     26  C         16.2630  -22.7750   -3.1530 C.2     1  UNL1        0.0000
     27  C         17.5020  -22.1420   -3.1940 C.2     1  UNL1        0.0010
     28  C         18.1420  -21.9230   -4.4180 C.2     1  UNL1        0.0100
@<TRIPOS>BOND
     1    20    19    2
     2    20    21    1
     3    19    18    1
     4    21    22    2
     5    18    17    2
     6    22    17    1
     7    17    16    1
     8    15    14    1
     9    16    14    1
    10    14    12   am
    11     2     3    1
    12     2     1    2
    13     3     4    2
    14    12     1    1
    15    12    13    2
    16     1     6    1
    17    11    10    2
    18     4    10    1
    19     4     5    1
    20    10     9    1
    21     6     5    2
    22     5     7    1
    23     9     8    1
    24     7     8    1
    25     8    23    1
    26    23    24    2
    27    23    28    1
    28    24    25    1
    29    28    27    2
    30    25    26    2
    31    27    26    1
