@<TRIPOS>MOLECULE
352_out_ligand_01.pdbqt
 44 48 0 0 0
SMALL
GASTEIGER

@<TRIPOS>ATOM
      1  N         23.2240  -23.2780  -10.7110 N.pl3   1  UNL1       -0.3650
      2  H         22.7190  -23.7170  -11.4740 H       1  UNL1        0.1650
      3  C         22.4930  -22.9850   -9.5820 C.2     1  UNL1        0.1060
      4  C         21.2760  -22.4180   -9.4570 C.2     1  UNL1        0.0590
      5  C         20.6860  -22.4720   -8.0800 C.2     1  UNL1        0.2670
      6  C         20.4750  -21.8330  -10.5360 C.2     1  UNL1       -0.0030
      7  N         19.2890  -22.5990   -8.0530 N.am    1  UNL1       -0.2430
      8  O         21.4220  -22.4030   -7.0930 O.2     1  UNL1       -0.2670
      9  C         18.4620  -22.3970   -9.1740 C.2     1  UNL1        0.2660
     10  C         19.0860  -21.8360  -10.3940 C.2     1  UNL1        0.0440
     11  O         17.2640  -22.6740   -9.2310 O.2     1  UNL1       -0.2670
     12  C         18.2620  -21.2940  -11.3960 C.2     1  UNL1        0.0180
     13  C         18.8290  -20.7120  -12.5270 C.2     1  UNL1        0.0010
     14  C         20.2150  -20.6550  -12.6540 C.2     1  UNL1        0.0010
     15  C         21.0320  -21.1990  -11.6600 C.2     1  UNL1        0.0130
     16  C         18.6510  -22.9080   -6.7980 C.2     1  UNL1        0.0510
     17  C         18.0760  -24.1820   -6.6320 C.2     1  UNL1        0.0310
     18  C         17.4020  -24.5340   -5.4610 C.2     1  UNL1        0.0090
     19  C         17.2830  -23.6200   -4.4160 C.2     1  UNL1       -0.0610
     20  C         16.5620  -24.0030   -3.1580 C.3     1  UNL1        0.0480
     21  C         17.8740  -22.3610   -4.5540 C.2     1  UNL1        0.0150
     22  C         18.5790  -21.9960   -5.7220 C.2     1  UNL1       -0.0340
     23  C         19.2400  -20.6440   -5.7150 C.3     1  UNL1        0.0500
     24  C         24.5070  -22.8110  -11.0470 C.2     1  UNL1        0.0330
     25  C         25.6880  -23.4020  -10.5720 C.2     1  UNL1        0.0290
     26  C         26.9450  -22.8980  -10.9230 C.2     1  UNL1        0.0040
     27  C         27.0440  -21.8060  -11.7790 C.2     1  UNL1        0.0250
     28  C         25.8800  -21.2460  -12.3060 C.2     1  UNL1        0.0820
     29  C         24.6200  -21.7370  -11.9380 C.2     1  UNL1        0.0540
     30  S         25.9990  -19.8470  -13.3910 S.O2    1  UNL1        0.2630
     31  O         24.6610  -19.5340  -13.8530 O.2     1  UNL1       -0.2000
     32  O         26.8160  -18.8420  -12.7450 O.2     1  UNL1       -0.2000
     33  N         26.7990  -20.4860  -14.7340 N.pl3   1  UNL1       -0.2810
     34  H         27.7990  -20.5870  -14.5620 H       1  UNL1        0.1790
     35  C         26.1590  -21.4910  -15.5050 C.2     1  UNL1        0.0430
     36  C         25.6120  -21.1940  -16.7520 C.2     1  UNL1        0.0300
     37  C         24.9660  -22.1910  -17.4830 C.2     1  UNL1        0.0030
     38  C         24.8610  -23.4800  -16.9590 C.2     1  UNL1        0.0160
     39  C         25.3880  -23.7820  -15.6930 C.2     1  UNL1        0.0500
     40  C         26.0280  -22.7680  -14.9630 C.2     1  UNL1        0.0460
     41  C         25.2300  -25.1660  -15.1150 C.3     1  UNL1        0.4170
     42  F         24.2870  -25.9110  -15.7530 F       1  UNL1       -0.1660
     43  F         26.3830  -25.8840  -15.1790 F       1  UNL1       -0.1660
     44  F         24.8680  -25.1530  -13.8010 F       1  UNL1       -0.1660
@<TRIPOS>BOND
     1    37    38    2
     2    37    36    1
     3    38    39    1
     4    36    35    2
     5    42    41    1
     6    39    41    1
     7    39    40    2
     8    35    40    1
     9    35    33    1
    10    43    41    1
    11    41    44    1
    12    33    34    1
    13    33    30    1
    14    31    30    2
    15    30    32    2
    16    30    28    1
    17    14    13    2
    18    14    15    1
    19    13    12    1
    20    28    29    1
    21    28    27    2
    22    29    24    2
    23    27    26    1
    24    15     6    2
    25     2     1    1
    26    12    10    2
    27    24     1    1
    28    24    25    1
    29    26    25    2
    30     1     3    1
    31     6    10    1
    32     6     4    1
    33    10     9    1
    34     3     4    2
    35     4     5    1
    36    11     9    2
    37     9     7   am
    38     5     7   am
    39     5     8    2
    40     7    16    1
    41    16    17    2
    42    16    22    1
    43    17    18    1
    44    22    23    1
    45    22    21    2
    46    18    19    2
    47    21    19    1
    48    19    20    1
