@<TRIPOS>MOLECULE
35303_out_ligand_01.pdbqt
 31 34 0 0 0
SMALL
GASTEIGER

@<TRIPOS>ATOM
      1  C         24.1150  -21.7320  -12.3290 C.2     1  UNL1       -0.0200
      2  C         24.7090  -21.6770  -11.0550 C.2     1  UNL1        0.0100
      3  C         23.9370  -21.6820   -9.8910 C.2     1  UNL1        0.0020
      4  C         22.5480  -21.7430   -9.9710 C.2     1  UNL1        0.0170
      5  C         21.9280  -21.7920  -11.2230 C.2     1  UNL1        0.0320
      6  C         22.7100  -21.7990  -12.3890 C.2     1  UNL1        0.0270
      7  C         20.4470  -21.8710  -11.3660 C.2     1  UNL1        0.2510
      8  O         19.8690  -21.1680  -12.1870 O.2     1  UNL1       -0.2680
      9  N         19.7960  -22.7360  -10.5150 N.am    1  UNL1       -0.3520
     10  H         20.2810  -23.0550   -9.6880 H       1  UNL1        0.1630
     11  C         18.3520  -22.7600  -10.4800 C.3     1  UNL1        0.1690
     12  C         17.9200  -22.6320   -9.0570 C.2     1  UNL1        0.0020
     13  C         16.6350  -22.6280   -8.5540 C.2     1  UNL1        0.0290
     14  C         16.5830  -22.4940   -7.1280 C.2     1  UNL1       -0.0150
     15  C         15.4780  -22.4480   -6.2470 C.2     1  UNL1        0.0550
     16  C         17.8680  -22.3980   -6.5830 C.2     1  UNL1        0.0150
     17  C         15.6890  -22.3110   -4.8770 C.2     1  UNL1        0.1170
     18  F         14.6340  -22.2690   -4.0530 F       1  UNL1       -0.2060
     19  C         16.9660  -22.2170   -4.3500 C.2     1  UNL1        0.0430
     20  C         18.0760  -22.2590   -5.1950 C.2     1  UNL1        0.0230
     21  S         19.0750  -22.4760   -7.8090 S.3     1  UNL1       -0.0920
     22  C         24.9820  -21.7590  -13.5840 C.3     1  UNL1        0.1390
     23  C         26.4610  -21.9710  -13.2550 C.3     1  UNL1        0.0540
     24  N         24.5450  -22.7400  -14.5600 N.am    1  UNL1       -0.3210
     25  C         24.1900  -22.1810  -15.7600 C.2     1  UNL1        0.3240
     26  H         24.5660  -23.7440  -14.4400 H       1  UNL1        0.1650
     27  O         23.8430  -22.8060  -16.7460 O.2     1  UNL1       -0.2470
     28  N         24.3110  -20.8410  -15.6680 N.am    1  UNL1       -0.2770
     29  C         24.8160  -20.4860  -14.4560 C.2     1  UNL1        0.2580
     30  H         24.1440  -20.2060  -16.4290 H       1  UNL1        0.1730
     31  O         25.1060  -19.3390  -14.1420 O.2     1  UNL1       -0.2700
@<TRIPOS>BOND
     1    27    25    2
     2    30    28    1
     3    25    28   am
     4    25    24   am
     5    28    29   am
     6    24    26    1
     7    24    22    1
     8    29    31    2
     9    29    22    1
    10    22    23    1
    11    22     1    1
    12     6     1    2
    13     6     5    1
    14     1     2    1
    15     8     7    2
    16     7     5    1
    17     7     9   am
    18     5     4    2
    19     2     3    2
    20     9    11    1
    21     9    10    1
    22    11    12    1
    23     4     3    1
    24    12    13    2
    25    12    21    1
    26    13    14    1
    27    21    16    1
    28    14    16    2
    29    14    15    1
    30    16    20    1
    31    15    17    2
    32    20    19    2
    33    17    19    1
    34    17    18    1
