@<TRIPOS>MOLECULE
35315_out_ligand_01.pdbqt
 27 29 0 0 0
SMALL
GASTEIGER

@<TRIPOS>ATOM
      1  N         19.2510  -22.9520   -9.3030 N.am    1  UNL1       -0.3270
      2  C         17.9170  -22.7830   -8.9650 C.2     1  UNL1        0.2300
      3  O         17.0970  -22.1050   -9.5800 O.2     1  UNL1       -0.2720
      4  H         19.7780  -23.6000   -8.7270 H       1  UNL1        0.1690
      5  C         19.9480  -22.3890  -10.3900 C.2     1  UNL1        0.0350
      6  C         19.4250  -21.4060  -11.2290 C.2     1  UNL1        0.0290
      7  C         20.1930  -20.8920  -12.2770 C.2     1  UNL1        0.0030
      8  C         21.4890  -21.3540  -12.4960 C.2     1  UNL1        0.0080
      9  C         22.0360  -22.3400  -11.6670 C.2     1  UNL1       -0.0410
     10  C         21.2520  -22.8530  -10.6180 C.2     1  UNL1        0.0370
     11  C         23.4360  -22.8440  -11.8990 C.3     1  UNL1        0.1950
     12  S         24.5410  -22.2780  -10.5940 S.O2    1  UNL1        0.2110
     13  O         25.8980  -22.1810  -11.0850 O.2     1  UNL1       -0.2110
     14  O         23.9170  -21.1740   -9.8990 O.2     1  UNL1       -0.2110
     15  N         24.5410  -23.5400   -9.4920 N.3     1  UNL1       -0.2290
     16  H         25.3390  -23.4610   -8.8600 H       1  UNL1        0.1360
     17  H         24.4800  -24.4370   -9.9760 H       1  UNL1        0.1360
     18  C         17.5120  -23.5020   -7.6700 C.3     1  UNL1        0.1110
     19  C         16.0580  -23.9820   -7.8180 C.3     1  UNL1        0.0190
     20  C         15.5020  -24.4690   -6.4880 C.3     1  UNL1        0.0060
     21  C         15.4680  -23.3190   -5.4870 C.3     1  UNL1        0.0390
     22  C         16.7910  -22.6000   -5.3870 C.2     1  UNL1       -0.0510
     23  C         17.0460  -21.8140   -4.2520 C.2     1  UNL1        0.0070
     24  C         17.7520  -22.6710   -6.4130 C.2     1  UNL1       -0.0390
     25  C         18.2570  -21.1380   -4.1130 C.2     1  UNL1        0.0010
     26  C         19.2270  -21.2400   -5.1040 C.2     1  UNL1        0.0010
     27  C         18.9800  -22.0060   -6.2430 C.2     1  UNL1        0.0080
@<TRIPOS>BOND
     1     8     7    2
     2     8     9    1
     3     7     6    1
     4    11     9    1
     5    11    12    1
     6     9    10    2
     7     6     5    2
     8    13    12    2
     9    10     5    1
    10    12    14    2
    11    12    15    1
    12     5     1    1
    13    17    15    1
    14     3     2    2
    15    15    16    1
    16     1     2   am
    17     1     4    1
    18     2    18    1
    19    19    18    1
    20    19    20    1
    21    18    24    1
    22    20    21    1
    23    24    27    1
    24    24    22    2
    25    27    26    2
    26    21    22    1
    27    22    23    1
    28    26    25    1
    29    23    25    2
