@<TRIPOS>MOLECULE
35359_out_ligand_01.pdbqt
 36 38 0 0 0
SMALL
GASTEIGER

@<TRIPOS>ATOM
      1  C         17.4070  -21.8280  -10.6730 C.3     1  UNL1        0.0490
      2  C         18.9030  -21.8620  -10.8260 C.2     1  UNL1       -0.0460
      3  C         19.4710  -21.3950  -12.0240 C.2     1  UNL1        0.0090
      4  C         20.8510  -21.4450  -12.2300 C.2     1  UNL1        0.0250
      5  C         21.6800  -21.9640  -11.2330 C.2     1  UNL1        0.0750
      6  C         21.1440  -22.4310  -10.0320 C.2     1  UNL1        0.0420
      7  C         19.7600  -22.3500   -9.8190 C.2     1  UNL1        0.0390
      8  S         23.4310  -22.0710  -11.5120 S.O2    1  UNL1        0.2450
      9  O         23.7370  -23.4370  -11.8750 O.2     1  UNL1       -0.2060
     10  O         24.1000  -21.3920  -10.4240 O.2     1  UNL1       -0.2060
     11  N         23.5830  -21.0570  -12.8820 N.pl3   1  UNL1       -0.1810
     12  H         23.7410  -20.1150  -12.5190 H       1  UNL1        0.1460
     13  C         24.6560  -21.4320  -13.7550 C.2     1  UNL1        0.0230
     14  C         25.9680  -21.4650  -13.2860 C.2     1  UNL1        0.0240
     15  C         26.9950  -21.8810  -14.1320 C.2     1  UNL1        0.0030
     16  C         26.7070  -22.2720  -15.4420 C.2     1  UNL1        0.0160
     17  C         25.3860  -22.2530  -15.9180 C.2     1  UNL1        0.0490
     18  C         24.3600  -21.8420  -15.0550 C.2     1  UNL1        0.0400
     19  C         25.0710  -22.7090  -17.3200 C.3     1  UNL1        0.4170
     20  F         24.3950  -23.8890  -17.3490 F       1  UNL1       -0.1660
     21  F         26.1880  -22.8980  -18.0790 F       1  UNL1       -0.1660
     22  F         24.3040  -21.8200  -18.0130 F       1  UNL1       -0.1660
     23  C         19.2650  -22.8090   -8.4960 C.2     1  UNL1        0.2560
     24  O         19.3080  -24.0050   -8.2460 O.2     1  UNL1       -0.2670
     25  N         18.8620  -21.7860   -7.6590 N.am    1  UNL1       -0.3230
     26  H         18.9890  -20.8420   -8.0040 H       1  UNL1        0.1690
     27  C         18.3420  -21.9020   -6.3540 C.2     1  UNL1        0.0350
     28  C         19.0420  -21.2550   -5.3280 C.2     1  UNL1        0.0290
     29  C         18.5940  -21.3220   -4.0080 C.2     1  UNL1        0.0030
     30  C         17.4390  -22.0350   -3.6990 C.2     1  UNL1        0.0160
     31  C         16.7160  -22.6820   -4.7120 C.2     1  UNL1        0.0500
     32  C         17.1810  -22.6110   -6.0390 C.2     1  UNL1        0.0450
     33  C         15.4690  -23.4710   -4.3960 C.3     1  UNL1        0.4170
     34  F         15.6200  -24.3110   -3.3320 F       1  UNL1       -0.1660
     35  F         14.4040  -22.6810   -4.0910 F       1  UNL1       -0.1660
     36  F         15.0740  -24.2570   -5.4350 F       1  UNL1       -0.1660
@<TRIPOS>BOND
     1    21    19    1
     2    22    19    1
     3    20    19    1
     4    19    17    1
     5    17    16    2
     6    17    18    1
     7    16    15    1
     8    18    13    2
     9    15    14    2
    10    13    14    1
    11    13    11    1
    12    11    12    1
    13    11     8    1
    14     4     3    1
    15     4     5    2
    16     3     2    2
    17     9     8    2
    18     8     5    1
    19     8    10    2
    20     5     6    1
    21     2     1    1
    22     2     7    1
    23     6     7    2
    24     7    23    1
    25    23    24    2
    26    23    25   am
    27    26    25    1
    28    25    27    1
    29    27    32    2
    30    27    28    1
    31    32    31    1
    32    36    33    1
    33    28    29    2
    34    31    33    1
    35    31    30    2
    36    33    35    1
    37    33    34    1
    38    29    30    1
