@<TRIPOS>MOLECULE
35356_out_ligand_01.pdbqt
 36 38 0 0 0
SMALL
GASTEIGER

@<TRIPOS>ATOM
      1  C         21.9480  -22.2050  -10.8600 C.2     1  UNL1        0.0750
      2  C         21.4540  -21.6200  -12.0290 C.2     1  UNL1        0.0250
      3  C         20.0930  -21.3190  -12.1280 C.2     1  UNL1        0.0090
      4  C         19.2140  -21.6060  -11.0700 C.2     1  UNL1       -0.0460
      5  C         17.7620  -21.2370  -11.2060 C.3     1  UNL1        0.0490
      6  C         19.7250  -22.2430   -9.9230 C.2     1  UNL1        0.0390
      7  C         21.0910  -22.5290   -9.8080 C.2     1  UNL1        0.0420
      8  S         23.6780  -22.6000  -10.7410 S.O2    1  UNL1        0.2460
      9  O         24.4250  -21.3710  -10.9040 O.2     1  UNL1       -0.2060
     10  O         23.8470  -23.4190   -9.5600 O.2     1  UNL1       -0.2060
     11  N         23.9540  -23.6010  -12.0670 N.pl3   1  UNL1       -0.1790
     12  H         23.0920  -24.0620  -12.3650 H       1  UNL1        0.1460
     13  C         24.7460  -23.1090  -13.1560 C.2     1  UNL1        0.0580
     14  C         26.0770  -23.5530  -13.2630 C.2     1  UNL1        0.0900
     15  C         26.8550  -23.1080  -14.3290 C.2     1  UNL1        0.0410
     16  C         26.3060  -22.2300  -15.2680 C.2     1  UNL1        0.0390
     17  C         24.9860  -21.7870  -15.1580 C.2     1  UNL1        0.0700
     18  C         24.2070  -22.2190  -14.0890 C.2     1  UNL1        0.0640
     19  O         26.4910  -24.4200  -12.2800 O.2     1  UNL1       -0.3540
     20  C         27.1150  -23.8420  -11.1390 C.3     1  UNL1        0.2100
     21  O         24.5840  -20.9300  -16.1470 O.2     1  UNL1       -0.3560
     22  C         25.1750  -21.1200  -17.4290 C.3     1  UNL1        0.2100
     23  C         18.8640  -22.6410   -8.7820 C.2     1  UNL1        0.2560
     24  O         18.1020  -23.5840   -8.9350 O.2     1  UNL1       -0.2670
     25  N         19.0100  -21.8350   -7.6700 N.am    1  UNL1       -0.3230
     26  H         19.6410  -21.0470   -7.7620 H       1  UNL1        0.1690
     27  C         18.3350  -21.9490   -6.4380 C.2     1  UNL1        0.0350
     28  C         18.8470  -21.4880   -5.2240 C.2     1  UNL1        0.0290
     29  C         18.1160  -21.6370   -4.0410 C.2     1  UNL1        0.0030
     30  C         16.8630  -22.2480   -4.0610 C.2     1  UNL1        0.0160
     31  C         16.3310  -22.7230   -5.2670 C.2     1  UNL1        0.0500
     32  C         17.0740  -22.5600   -6.4510 C.2     1  UNL1        0.0450
     33  C         14.9670  -23.3670   -5.3090 C.3     1  UNL1        0.4170
     34  F         14.6750  -24.0320   -4.1580 F       1  UNL1       -0.1660
     35  F         13.9620  -22.4640   -5.4860 F       1  UNL1       -0.1660
     36  F         14.8290  -24.2760   -6.3140 F       1  UNL1       -0.1660
@<TRIPOS>BOND
     1    22    21    1
     2    21    17    1
     3    16    17    2
     4    16    15    1
     5    17    18    1
     6    15    14    2
     7    18    13    2
     8    14    13    1
     9    14    19    1
    10    13    11    1
    11    12    11    1
    12    19    20    1
    13     3     2    1
    14     3     4    2
    15    11     8    1
    16     2     1    2
    17     5     4    1
    18     4     6    1
    19     9     8    2
    20     1     8    1
    21     1     7    1
    22     8    10    2
    23     6     7    2
    24     6    23    1
    25    24    23    2
    26    23    25   am
    27    26    25    1
    28    25    27    1
    29    32    27    2
    30    32    31    1
    31    27    28    1
    32    36    33    1
    33    35    33    1
    34    33    31    1
    35    33    34    1
    36    31    30    2
    37    28    29    2
    38    30    29    1
