@<TRIPOS>MOLECULE
35357_out_ligand_01.pdbqt
 34 36 0 0 0
SMALL
GASTEIGER

@<TRIPOS>ATOM
      1  C         22.1980  -22.2900  -10.7450 C.2     1  UNL1        0.0800
      2  C         21.6120  -21.7550  -11.8950 C.2     1  UNL1        0.0260
      3  C         20.2290  -21.5620  -11.9390 C.2     1  UNL1        0.0090
      4  C         19.4190  -21.9040  -10.8440 C.2     1  UNL1       -0.0460
      5  C         17.9410  -21.6430  -10.9210 C.3     1  UNL1        0.0490
      6  C         20.0280  -22.4840   -9.7120 C.2     1  UNL1        0.0390
      7  C         21.4140  -22.6650   -9.6540 C.2     1  UNL1        0.0420
      8  C         19.2500  -22.9150   -8.5240 C.2     1  UNL1        0.2560
      9  O         18.9010  -24.0860   -8.4620 O.2     1  UNL1       -0.2670
     10  N         18.9760  -21.8940   -7.6370 N.am    1  UNL1       -0.3230
     11  H         19.2820  -20.9680   -7.9080 H       1  UNL1        0.1690
     12  C         18.2780  -21.9870   -6.4160 C.2     1  UNL1        0.0350
     13  C         18.7770  -21.5280   -5.1970 C.2     1  UNL1        0.0290
     14  C         18.0210  -21.6560   -4.0270 C.2     1  UNL1        0.0030
     15  C         16.7560  -22.2400   -4.0680 C.2     1  UNL1        0.0160
     16  C         16.2310  -22.6980   -5.2820 C.2     1  UNL1        0.0500
     17  C         17.0060  -22.5740   -6.4500 C.2     1  UNL1        0.0450
     18  C         14.8730  -23.3520   -5.3320 C.3     1  UNL1        0.4170
     19  F         14.7840  -24.2890   -6.3170 F       1  UNL1       -0.1660
     20  F         13.8640  -22.4640   -5.5680 F       1  UNL1       -0.1660
     21  F         14.5420  -23.9900   -4.1740 F       1  UNL1       -0.1660
     22  S         23.9560  -22.5260  -10.6740 S.O2    1  UNL1        0.2630
     23  O         24.5690  -21.2250  -10.8420 O.2     1  UNL1       -0.2000
     24  O         24.2670  -23.3510   -9.5280 O.2     1  UNL1       -0.2000
     25  N         24.2530  -23.3820  -12.0880 N.pl3   1  UNL1       -0.2810
     26  H         23.5750  -24.1150  -12.2900 H       1  UNL1        0.1790
     27  C         24.9340  -22.7500  -13.1580 C.2     1  UNL1        0.0450
     28  C         26.3270  -22.8150  -13.1870 C.2     1  UNL1        0.0300
     29  C         27.0210  -22.2240  -14.2400 C.2     1  UNL1        0.0050
     30  C         26.3150  -21.5790  -15.2580 C.2     1  UNL1        0.0370
     31  C         24.9180  -21.5210  -15.2360 C.2     1  UNL1        0.0700
     32  C         24.2240  -22.1210  -14.1850 C.2     1  UNL1        0.0660
     33  O         24.3550  -20.8580  -16.2930 O.2     1  UNL1       -0.3560
     34  C         25.2270  -20.4860  -17.3560 C.3     1  UNL1        0.2100
@<TRIPOS>BOND
     1    34    33    1
     2    33    31    1
     3    30    31    2
     4    30    29    1
     5    31    32    1
     6    29    28    2
     7    32    27    2
     8    28    27    1
     9    27    25    1
    10    26    25    1
    11    25    22    1
    12     3     2    1
    13     3     4    2
    14     2     1    2
    15     5     4    1
    16     4     6    1
    17    23    22    2
    18     1    22    1
    19     1     7    1
    20    22    24    2
    21     6     7    2
    22     6     8    1
    23     8     9    2
    24     8    10   am
    25    11    10    1
    26    10    12    1
    27    17    12    2
    28    17    16    1
    29    12    13    1
    30    19    18    1
    31    20    18    1
    32    18    16    1
    33    18    21    1
    34    16    15    2
    35    13    14    2
    36    15    14    1
