@<TRIPOS>MOLECULE
35354_out_ligand_01.pdbqt
 34 36 0 0 0
SMALL
GASTEIGER

@<TRIPOS>ATOM
      1  C         17.9630  -21.8370  -10.7390 C.3     1  UNL1        0.0490
      2  C         19.4510  -22.0520  -10.7000 C.2     1  UNL1       -0.0460
      3  C         20.2170  -21.7170  -11.8290 C.2     1  UNL1        0.0090
      4  C         21.6060  -21.8680  -11.8200 C.2     1  UNL1        0.0260
      5  C         22.2420  -22.3470  -10.6730 C.2     1  UNL1        0.0800
      6  C         21.5020  -22.7190   -9.5500 C.2     1  UNL1        0.0420
      7  C         20.1090  -22.5840   -9.5720 C.2     1  UNL1        0.0390
      8  C         19.3780  -23.0060   -8.3520 C.2     1  UNL1        0.2560
      9  O         19.1550  -24.1990   -8.2040 O.2     1  UNL1       -0.2670
     10  N         18.9950  -21.9590   -7.5400 N.am    1  UNL1       -0.3230
     11  H         19.1980  -21.0260   -7.8790 H       1  UNL1        0.1690
     12  C         18.3070  -22.0370   -6.3120 C.2     1  UNL1        0.0350
     13  C         18.8020  -21.5290   -5.1100 C.2     1  UNL1        0.0290
     14  C         18.0590  -21.6440   -3.9310 C.2     1  UNL1        0.0030
     15  C         16.8110  -22.2640   -3.9450 C.2     1  UNL1        0.0160
     16  C         16.2880  -22.7690   -5.1420 C.2     1  UNL1        0.0500
     17  C         17.0500  -22.6560   -6.3180 C.2     1  UNL1        0.0450
     18  C         14.9470  -23.4570   -5.1650 C.3     1  UNL1        0.4170
     19  F         13.9020  -22.5820   -5.2060 F       1  UNL1       -0.1660
     20  F         14.7980  -24.2660   -6.2500 F       1  UNL1       -0.1660
     21  F         14.7280  -24.2450   -4.0770 F       1  UNL1       -0.1660
     22  S         24.0110  -22.5310  -10.6450 S.O2    1  UNL1        0.2630
     23  O         24.5800  -21.2090  -10.7870 O.2     1  UNL1       -0.2000
     24  O         24.3510  -23.3810   -9.5240 O.2     1  UNL1       -0.2000
     25  N         24.3330  -23.3570  -12.0850 N.pl3   1  UNL1       -0.2780
     26  H         24.7160  -24.2860  -11.8920 H       1  UNL1        0.1790
     27  C         24.9640  -22.6420  -13.1490 C.2     1  UNL1        0.0810
     28  C         24.2150  -22.0240  -14.1480 C.2     1  UNL1        0.0340
     29  C         24.8620  -21.2940  -15.1500 C.2     1  UNL1        0.0210
     30  C         26.2550  -21.1860  -15.1450 C.2     1  UNL1        0.0140
     31 BR         27.1200  -20.1890  -16.4980 Br      1  UNL1       -0.0510
     32  C         27.0120  -21.8030  -14.1530 C.2     1  UNL1        0.0630
     33  C         26.3580  -22.5280  -13.1640 C.2     1  UNL1        0.1440
     34  F         27.0780  -23.1190  -12.1990 F       1  UNL1       -0.2040
@<TRIPOS>BOND
     1    31    30    1
     2    29    30    2
     3    29    28    1
     4    30    32    1
     5    32    33    2
     6    28    27    2
     7    33    27    1
     8    33    34    1
     9    27    25    1
    10    25    26    1
    11    25    22    1
    12     3     4    1
    13     3     2    2
    14     4     5    2
    15    23    22    2
    16     1     2    1
    17     2     7    1
    18     5    22    1
    19     5     6    1
    20    22    24    2
    21     7     6    2
    22     7     8    1
    23     8     9    2
    24     8    10   am
    25    11    10    1
    26    10    12    1
    27    17    12    2
    28    17    16    1
    29    12    13    1
    30    20    18    1
    31    19    18    1
    32    18    16    1
    33    18    21    1
    34    16    15    2
    35    13    14    2
    36    15    14    1
