@<TRIPOS>MOLECULE
35361_out_ligand_01.pdbqt
 39 42 0 0 0
SMALL
GASTEIGER

@<TRIPOS>ATOM
      1  C         17.7820  -21.7950  -10.7600 C.3     1  UNL1        0.0490
      2  C         19.2770  -21.9300  -10.6770 C.2     1  UNL1       -0.0460
      3  C         20.0570  -21.5420  -11.7800 C.2     1  UNL1        0.0090
      4  C         21.4450  -21.6930  -11.7610 C.2     1  UNL1        0.0260
      5  C         22.0660  -22.2420  -10.6380 C.2     1  UNL1        0.0800
      6  C         21.3200  -22.5990   -9.5150 C.2     1  UNL1        0.0420
      7  C         19.9310  -22.4310   -9.5330 C.2     1  UNL1        0.0390
      8  S         23.8280  -22.4780  -10.6170 S.O2    1  UNL1        0.2630
      9  O         24.1150  -23.4540   -9.5870 O.2     1  UNL1       -0.2000
     10  O         24.4560  -21.1740  -10.6090 O.2     1  UNL1       -0.2000
     11  N         24.1260  -23.2380  -12.0960 N.pl3   1  UNL1       -0.2810
     12  H         23.3500  -23.8370  -12.3770 H       1  UNL1        0.1790
     13  C         24.8090  -22.5210  -13.1170 C.2     1  UNL1        0.0420
     14  C         24.1050  -21.7600  -14.0500 C.2     1  UNL1        0.0330
     15  C         24.7900  -21.1050  -15.0770 C.2     1  UNL1        0.0390
     16  C         26.1810  -21.2010  -15.1560 C.2     1  UNL1        0.0760
     17  C         26.8830  -21.9760  -14.2320 C.2     1  UNL1        0.0390
     18  C         26.1980  -22.6300  -13.2060 C.2     1  UNL1        0.0330
     19  O         26.9180  -20.6200  -16.1630 O.2     1  UNL1       -0.3110
     20  C         26.8060  -19.2570  -16.3230 C.2     1  UNL1        0.0760
     21  C         27.1210  -18.4600  -15.2220 C.2     1  UNL1        0.0370
     22  C         26.9970  -17.0740  -15.3090 C.2     1  UNL1        0.0030
     23  C         26.5430  -16.4880  -16.4920 C.2     1  UNL1        0.0000
     24  C         26.2050  -17.2880  -17.5850 C.2     1  UNL1        0.0030
     25  C         26.3280  -18.6760  -17.5000 C.2     1  UNL1        0.0370
     26  C         19.1970  -22.8380   -8.3100 C.2     1  UNL1        0.2560
     27  O         18.8190  -23.9990   -8.2310 O.2     1  UNL1       -0.2670
     28  N         19.0790  -21.8360   -7.3680 N.am    1  UNL1       -0.3230
     29  H         19.5470  -20.9620   -7.5750 H       1  UNL1        0.1690
     30  C         18.4250  -21.9080   -6.1210 C.2     1  UNL1        0.0350
     31  C         19.0550  -21.2900   -5.0330 C.2     1  UNL1        0.0290
     32  C         18.4710  -21.3130   -3.7650 C.2     1  UNL1        0.0030
     33  C         17.2500  -21.9530   -3.5710 C.2     1  UNL1        0.0160
     34  C         16.5980  -22.5720   -4.6480 C.2     1  UNL1        0.0500
     35  C         17.1990  -22.5450   -5.9200 C.2     1  UNL1        0.0450
     36  C         15.2790  -23.2790   -4.4570 C.3     1  UNL1        0.4170
     37  F         14.8780  -23.9780   -5.5580 F       1  UNL1       -0.1660
     38  F         15.3060  -24.1820   -3.4380 F       1  UNL1       -0.1660
     39  F         14.2620  -22.4200   -4.1750 F       1  UNL1       -0.1660
@<TRIPOS>BOND
     1    24    25    1
     2    24    23    2
     3    25    20    2
     4    23    22    1
     5    20    19    1
     6    20    21    1
     7    19    16    1
     8    22    21    2
     9    16    15    2
    10    16    17    1
    11    15    14    1
    12    17    18    2
    13    14    13    2
    14    18    13    1
    15    13    11    1
    16    12    11    1
    17    11     8    1
    18     3     4    1
    19     3     2    2
    20     4     5    2
    21     1     2    1
    22     2     7    1
    23     5     8    1
    24     5     6    1
    25     8    10    2
    26     8     9    2
    27     7     6    2
    28     7    26    1
    29    26    27    2
    30    26    28   am
    31    29    28    1
    32    28    30    1
    33    30    35    2
    34    30    31    1
    35    35    34    1
    36    37    36    1
    37    31    32    2
    38    34    36    1
    39    34    33    2
    40    36    39    1
    41    36    38    1
    42    32    33    1
