@<TRIPOS>MOLECULE
35360_out_ligand_01.pdbqt
 36 38 0 0 0
SMALL
GASTEIGER

@<TRIPOS>ATOM
      1  C         17.7570  -22.0730  -10.6540 C.3     1  UNL1        0.0490
      2  C         19.2560  -22.1700  -10.5830 C.2     1  UNL1       -0.0460
      3  C         20.0230  -21.7370  -11.6840 C.2     1  UNL1        0.0090
      4  C         21.4170  -21.8330  -11.6680 C.2     1  UNL1        0.0260
      5  C         22.0590  -22.3750  -10.5490 C.2     1  UNL1        0.0800
      6  C         21.3230  -22.7830   -9.4320 C.2     1  UNL1        0.0420
      7  C         19.9290  -22.6570   -9.4440 C.2     1  UNL1        0.0390
      8  S         23.8290  -22.5360  -10.5480 S.O2    1  UNL1        0.2630
      9  O         24.2050  -23.4930   -9.5300 O.2     1  UNL1       -0.2000
     10  O         24.3620  -21.1910  -10.5470 O.2     1  UNL1       -0.2000
     11  N         24.1750  -23.1820  -12.0500 N.pl3   1  UNL1       -0.2810
     12  H         24.1820  -24.2050  -12.0660 H       1  UNL1        0.1790
     13  C         24.6830  -22.4630  -13.1690 C.2     1  UNL1        0.0420
     14  C         26.0450  -22.3300  -13.4640 C.2     1  UNL1        0.0310
     15  C         26.4590  -21.6050  -14.5900 C.2     1  UNL1        0.0180
     16  C         25.5200  -20.9750  -15.4200 C.2     1  UNL1        0.0480
     17  C         24.1570  -21.0660  -15.0900 C.2     1  UNL1        0.0180
     18  C         23.7470  -21.8030  -13.9740 C.2     1  UNL1        0.0310
     19  C         25.9710  -20.1780  -16.6280 C.3     1  UNL1        0.4170
     20  F         26.2320  -18.8690  -16.3290 F       1  UNL1       -0.1660
     21  F         25.0440  -20.1590  -17.6370 F       1  UNL1       -0.1660
     22  F         27.1150  -20.6610  -17.1780 F       1  UNL1       -0.1660
     23  C         19.2190  -23.0360   -8.1970 C.2     1  UNL1        0.2560
     24  O         19.0010  -24.2290   -7.9910 O.2     1  UNL1       -0.2670
     25  N         18.9530  -21.9570   -7.3730 N.am    1  UNL1       -0.3230
     26  H         19.2780  -21.0530   -7.6910 H       1  UNL1        0.1690
     27  C         18.3770  -21.9940   -6.0820 C.2     1  UNL1        0.0350
     28  C         18.9470  -21.3980   -4.9530 C.2     1  UNL1        0.0290
     29  C         18.2950  -21.4530   -3.7210 C.2     1  UNL1        0.0030
     30  C         17.0680  -22.1030   -3.5980 C.2     1  UNL1        0.0160
     31  C         16.4810  -22.7190   -4.7130 C.2     1  UNL1        0.0500
     32  C         17.1470  -22.6600   -5.9500 C.2     1  UNL1        0.0450
     33  C         15.1460  -23.4200   -4.6020 C.3     1  UNL1        0.4170
     34  F         15.1140  -24.4050   -3.6520 F       1  UNL1       -0.1660
     35  F         14.1370  -22.5610   -4.2760 F       1  UNL1       -0.1660
     36  F         14.7660  -24.0180   -5.7730 F       1  UNL1       -0.1660
@<TRIPOS>BOND
     1    21    19    1
     2    22    19    1
     3    19    20    1
     4    19    16    1
     5    16    17    2
     6    16    15    1
     7    17    18    1
     8    15    14    2
     9    18    13    2
    10    14    13    1
    11    13    11    1
    12    12    11    1
    13    11     8    1
    14     3     4    1
    15     3     2    2
    16     4     5    2
    17     1     2    1
    18     2     7    1
    19     5     8    1
    20     5     6    1
    21     8    10    2
    22     8     9    2
    23     7     6    2
    24     7    23    1
    25    23    24    2
    26    23    25   am
    27    26    25    1
    28    25    27    1
    29    27    32    2
    30    27    28    1
    31    32    31    1
    32    36    33    1
    33    28    29    2
    34    31    33    1
    35    31    30    2
    36    33    35    1
    37    33    34    1
    38    29    30    1
