@<TRIPOS>MOLECULE
35369_out_ligand_01.pdbqt
 33 35 0 0 0
SMALL
GASTEIGER

@<TRIPOS>ATOM
      1  C         17.8960  -21.8700  -10.6210 C.3     1  UNL1        0.0490
      2  C         19.3830  -22.0920  -10.5880 C.2     1  UNL1       -0.0460
      3  C         20.1390  -21.8010  -11.7350 C.2     1  UNL1        0.0090
      4  C         21.5270  -21.9560  -11.7340 C.2     1  UNL1        0.0250
      5  C         22.1720  -22.4100  -10.5800 C.2     1  UNL1        0.0750
      6  C         21.4440  -22.7140   -9.4300 C.2     1  UNL1        0.0420
      7  C         20.0500  -22.5770   -9.4450 C.2     1  UNL1        0.0390
      8  C         19.3280  -22.9470   -8.2010 C.2     1  UNL1        0.2560
      9  O         18.9610  -24.1050   -8.0690 O.2     1  UNL1       -0.2670
     10  N         19.1200  -21.8870   -7.3400 N.am    1  UNL1       -0.3230
     11  H         19.4280  -20.9770   -7.6590 H       1  UNL1        0.1690
     12  C         18.4840  -21.9190   -6.0830 C.2     1  UNL1        0.0350
     13  C         19.1020  -21.2230   -5.0370 C.2     1  UNL1        0.0290
     14  C         18.5410  -21.2120   -3.7580 C.2     1  UNL1        0.0030
     15  C         17.3540  -21.9000   -3.5120 C.2     1  UNL1        0.0160
     16  C         16.7180  -22.6010   -4.5450 C.2     1  UNL1        0.0500
     17  C         17.2960  -22.6080   -5.8280 C.2     1  UNL1        0.0450
     18  C         15.4410  -23.3660   -4.2960 C.3     1  UNL1        0.4170
     19  F         15.4770  -24.1160   -3.1570 F       1  UNL1       -0.1660
     20  F         15.1520  -24.2370   -5.3020 F       1  UNL1       -0.1660
     21  F         14.3530  -22.5580   -4.1690 F       1  UNL1       -0.1660
     22  S         23.9410  -22.5710  -10.5910 S.O2    1  UNL1        0.2460
     23  O         24.3190  -23.4620   -9.5170 O.2     1  UNL1       -0.2060
     24  O         24.4880  -21.2380  -10.7180 O.2     1  UNL1       -0.2060
     25  N         24.1590  -23.4330  -12.0500 N.pl3   1  UNL1       -0.1780
     26  H         24.6530  -24.2960  -11.8030 H       1  UNL1        0.1460
     27  C         24.9440  -22.7180  -13.0270 C.2     1  UNL1        0.0610
     28  C         24.3260  -21.9520  -14.0140 C.2     1  UNL1        0.0270
     29  C         25.1070  -21.2390  -14.9270 C.2     1  UNL1        0.0020
     30  C         26.5010  -21.2890  -14.8540 C.2     1  UNL1        0.0030
     31  C         27.1210  -22.0530  -13.8660 C.2     1  UNL1        0.0440
     32  C         26.3380  -22.7590  -12.9590 C.2     1  UNL1        0.1380
     33  F         26.9330  -23.5040  -12.0140 F       1  UNL1       -0.2040
@<TRIPOS>BOND
     1    29    30    2
     2    29    28    1
     3    30    31    1
     4    28    27    2
     5    31    32    2
     6    27    32    1
     7    27    25    1
     8    32    33    1
     9    25    26    1
    10    25    22    1
    11     3     4    1
    12     3     2    2
    13     4     5    2
    14    24    22    2
    15     1     2    1
    16    22     5    1
    17    22    23    2
    18     2     7    1
    19     5     6    1
    20     7     6    2
    21     7     8    1
    22     8     9    2
    23     8    10   am
    24    11    10    1
    25    10    12    1
    26    12    17    2
    27    12    13    1
    28    17    16    1
    29    20    18    1
    30    13    14    2
    31    16    18    1
    32    16    15    2
    33    18    21    1
    34    18    19    1
    35    14    15    1
