@<TRIPOS>MOLECULE
35367_out_ligand_01.pdbqt
 33 35 0 0 0
SMALL
GASTEIGER

@<TRIPOS>ATOM
      1  C         19.5290  -20.9880  -12.1100 C.3     1  UNL1        0.0490
      2  C         18.7420  -21.6810  -11.0320 C.2     1  UNL1       -0.0460
      3  C         17.3670  -21.4200  -10.9200 C.2     1  UNL1        0.0090
      4  C         16.6070  -22.0070   -9.9030 C.2     1  UNL1        0.0260
      5  C         17.2240  -22.8620   -8.9880 C.2     1  UNL1        0.0800
      6  C         18.5800  -23.1680   -9.1010 C.2     1  UNL1        0.0420
      7  C         19.3330  -22.5850  -10.1260 C.2     1  UNL1        0.0390
      8  C         20.7720  -22.9390  -10.1740 C.2     1  UNL1        0.2560
      9  O         21.1180  -23.9840   -9.6390 O.2     1  UNL1       -0.2670
     10  N         21.5480  -22.0420  -10.8780 N.am    1  UNL1       -0.3230
     11  H         21.0590  -21.2770  -11.3290 H       1  UNL1        0.1690
     12  C         22.9410  -22.0950  -11.0850 C.2     1  UNL1        0.0350
     13  C         23.8790  -21.5270  -10.2230 C.2     1  UNL1        0.0290
     14  C         25.2450  -21.6160  -10.5020 C.2     1  UNL1        0.0030
     15  C         25.6880  -22.2780  -11.6450 C.2     1  UNL1        0.0160
     16  C         24.7650  -22.8620  -12.5230 C.2     1  UNL1        0.0500
     17  C         23.3920  -22.7570  -12.2360 C.2     1  UNL1        0.0450
     18  C         25.2390  -23.5570  -13.7740 C.3     1  UNL1        0.4170
     19  F         24.8620  -24.8640  -13.8340 F       1  UNL1       -0.1660
     20  F         24.7690  -22.9810  -14.9170 F       1  UNL1       -0.1660
     21  F         26.5950  -23.5510  -13.8860 F       1  UNL1       -0.1660
     22  S         16.2830  -23.5840   -7.6650 S.O2    1  UNL1        0.2630
     23  O         15.4280  -22.5580   -7.1090 O.2     1  UNL1       -0.2000
     24  O         15.7400  -24.8300   -8.1610 O.2     1  UNL1       -0.2000
     25  N         17.4720  -23.9950   -6.5380 N.pl3   1  UNL1       -0.2810
     26  H         18.2230  -24.5430   -6.9560 H       1  UNL1        0.1790
     27  C         17.8140  -23.0680   -5.5140 C.2     1  UNL1        0.0450
     28  C         17.5370  -23.4020   -4.1840 C.2     1  UNL1        0.0300
     29  C         17.8910  -22.5280   -3.1540 C.2     1  UNL1        0.0050
     30  C         18.5180  -21.3210   -3.4540 C.2     1  UNL1        0.0420
     31  C         18.7840  -20.9980   -4.7800 C.2     1  UNL1        0.1180
     32  F         19.3870  -19.8350   -5.0630 F       1  UNL1       -0.2060
     33  C         18.4400  -21.8590   -5.8140 C.2     1  UNL1        0.0720
@<TRIPOS>BOND
     1    20    18    1
     2    21    18    1
     3    19    18    1
     4    18    16    1
     5    16    17    1
     6    16    15    2
     7    17    12    2
     8     1     2    1
     9    15    14    1
    10    11    10    1
    11    12    10    1
    12    12    13    1
    13     2     3    2
    14     2     7    1
    15     3     4    1
    16    10     8   am
    17    14    13    2
    18     8     7    1
    19     8     9    2
    20     7     6    2
    21     4     5    2
    22     6     5    1
    23     5    22    1
    24    24    22    2
    25    22    23    2
    26    22    25    1
    27    26    25    1
    28    25    27    1
    29    33    27    2
    30    33    31    1
    31    27    28    1
    32    32    31    1
    33    31    30    2
    34    28    29    2
    35    30    29    1
