@<TRIPOS>MOLECULE
35364_out_ligand_01.pdbqt
 34 36 0 0 0
SMALL
GASTEIGER

@<TRIPOS>ATOM
      1  C         17.7070  -21.7450  -10.8580 C.3     1  UNL1        0.0490
      2  C         19.2040  -21.8430  -10.9650 C.2     1  UNL1       -0.0460
      3  C         19.8330  -21.4200  -12.1480 C.2     1  UNL1        0.0090
      4  C         21.2240  -21.4570  -12.2730 C.2     1  UNL1        0.0260
      5  C         22.0000  -21.9160  -11.2070 C.2     1  UNL1        0.0800
      6  C         21.4000  -22.3770  -10.0350 C.2     1  UNL1        0.0420
      7  C         20.0050  -22.3510   -9.9210 C.2     1  UNL1        0.0390
      8  C         19.4310  -22.8520   -8.6500 C.2     1  UNL1        0.2560
      9  O         19.4680  -24.0570   -8.4430 O.2     1  UNL1       -0.2670
     10  N         18.8720  -21.8680   -7.8600 N.am    1  UNL1       -0.3230
     11  H         18.8580  -20.9330   -8.2480 H       1  UNL1        0.1690
     12  C         18.2700  -22.0270   -6.5960 C.2     1  UNL1        0.0350
     13  C         18.8420  -21.5900   -5.4000 C.2     1  UNL1        0.0290
     14  C         18.1780  -21.7790   -4.1860 C.2     1  UNL1        0.0030
     15  C         16.9340  -22.4060   -4.1530 C.2     1  UNL1        0.0160
     16  C         16.3440  -22.8590   -5.3400 C.2     1  UNL1        0.0500
     17  C         17.0180  -22.6570   -6.5570 C.2     1  UNL1        0.0450
     18  C         14.9870  -23.5180   -5.3210 C.3     1  UNL1        0.4170
     19  F         14.8260  -24.3970   -6.3480 F       1  UNL1       -0.1660
     20  F         13.9560  -22.6340   -5.4180 F       1  UNL1       -0.1660
     21  F         14.7600  -24.2300   -4.1820 F       1  UNL1       -0.1660
     22  S         23.7660  -21.9600  -11.3610 S.O2    1  UNL1        0.2630
     23  O         24.1390  -23.3200  -11.6870 O.2     1  UNL1       -0.2000
     24  O         24.3510  -21.2790  -10.2260 O.2     1  UNL1       -0.2000
     25  N         24.0340  -21.0540  -12.7640 N.pl3   1  UNL1       -0.2810
     26  H         23.1860  -20.5600  -13.0410 H       1  UNL1        0.1790
     27  C         24.8250  -21.6340  -13.7930 C.2     1  UNL1        0.0440
     28  C         26.2180  -21.6310  -13.6900 C.2     1  UNL1        0.0330
     29  C         26.9880  -22.1800  -14.7170 C.2     1  UNL1        0.0460
     30  C         26.3610  -22.7250  -15.8340 C.2     1  UNL1        0.1380
     31  F         27.1210  -23.2550  -16.8040 F       1  UNL1       -0.2040
     32  C         24.9700  -22.7230  -15.9380 C.2     1  UNL1        0.0740
     33 CL         24.1910  -23.4070  -17.3120 Cl      1  UNL1       -0.0810
     34  C         24.1960  -22.1730  -14.9160 C.2     1  UNL1        0.0570
@<TRIPOS>BOND
     1    33    32    1
     2    31    30    1
     3    32    30    2
     4    32    34    1
     5    30    29    1
     6    34    27    2
     7    29    28    2
     8    27    28    1
     9    27    25    1
    10    26    25    1
    11    25    22    1
    12     4     3    1
    13     4     5    2
    14     3     2    2
    15    23    22    2
    16    22     5    1
    17    22    24    2
    18     5     6    1
    19     2     1    1
    20     2     7    1
    21     6     7    2
    22     7     8    1
    23     8     9    2
    24     8    10   am
    25    11    10    1
    26    10    12    1
    27    12    17    2
    28    12    13    1
    29    17    16    1
    30    19    18    1
    31    20    18    1
    32    13    14    2
    33    16    18    1
    34    16    15    2
    35    18    21    1
    36    14    15    1
