@<TRIPOS>MOLECULE
35366_out_ligand_01.pdbqt
 32 34 0 0 0
SMALL
GASTEIGER

@<TRIPOS>ATOM
      1  C         18.0780  -21.4170  -11.7300 C.3     1  UNL1        0.0490
      2  C         19.5080  -21.6860  -11.3470 C.2     1  UNL1       -0.0460
      3  C         20.5270  -21.3970  -12.2700 C.2     1  UNL1        0.0090
      4  C         21.8640  -21.6650  -11.9640 C.2     1  UNL1        0.0260
      5  C         22.1920  -22.2300  -10.7300 C.2     1  UNL1        0.0800
      6  C         21.2020  -22.4920   -9.7820 C.2     1  UNL1        0.0420
      7  C         19.8660  -22.2100  -10.0900 C.2     1  UNL1        0.0390
      8  C         18.8620  -22.5180   -9.0440 C.2     1  UNL1        0.2560
      9  O         17.9270  -23.2460   -9.3440 O.2     1  UNL1       -0.2670
     10  N         19.1470  -21.9590   -7.8150 N.am    1  UNL1       -0.3230
     11  H         20.0220  -21.4520   -7.7390 H       1  UNL1        0.1690
     12  C         18.3820  -22.0520   -6.6350 C.2     1  UNL1        0.0350
     13  C         18.9140  -21.4680   -5.4800 C.2     1  UNL1        0.0290
     14  C         18.2160  -21.5120   -4.2720 C.2     1  UNL1        0.0030
     15  C         16.9760  -22.1420   -4.2060 C.2     1  UNL1        0.0160
     16  C         16.4240  -22.7360   -5.3500 C.2     1  UNL1        0.0500
     17  C         17.1380  -22.6810   -6.5630 C.2     1  UNL1        0.0450
     18  C         15.0760  -23.4120   -5.3060 C.3     1  UNL1        0.4170
     19  F         14.0390  -22.5340   -5.4010 F       1  UNL1       -0.1660
     20  F         14.8790  -24.1050   -4.1510 F       1  UNL1       -0.1660
     21  F         14.8900  -24.3120   -6.3130 F       1  UNL1       -0.1660
     22  S         23.8920  -22.5650  -10.3410 S.O2    1  UNL1        0.2580
     23  O         23.9200  -23.4710   -9.2150 O.2     1  UNL1       -0.2010
     24  O         24.5930  -21.3000  -10.3160 O.2     1  UNL1       -0.2010
     25  N         24.4250  -23.3870  -11.6890 N.3     1  UNL1       -0.3130
     26  H         23.8660  -24.1980  -11.9620 H       1  UNL1        0.1720
     27  C         25.8610  -23.4630  -11.9930 C.3     1  UNL1        0.1640
     28  C         26.0650  -23.6130  -13.5040 C.3     1  UNL1        0.1400
     29  C         25.0170  -22.9190  -14.3610 C.3     1  UNL1        0.0350
     30  C         25.0940  -23.7210  -15.6360 C.3     1  UNL1        0.0290
     31  C         25.3070  -25.1260  -15.1120 C.3     1  UNL1        0.1680
     32  O         26.0350  -25.0100  -13.8790 O.3     1  UNL1       -0.3840
@<TRIPOS>BOND
     1    30    31    1
     2    30    29    1
     3    31    32    1
     4    29    28    1
     5    32    28    1
     6    28    27    1
     7     3     4    1
     8     3     2    2
     9    27    25    1
    10     4     5    2
    11    26    25    1
    12     1     2    1
    13    25    22    1
    14     2     7    1
    15     5    22    1
    16     5     6    1
    17    22    24    2
    18    22    23    2
    19     7     6    2
    20     7     8    1
    21     9     8    2
    22     8    10   am
    23    10    11    1
    24    10    12    1
    25    12    17    2
    26    12    13    1
    27    17    16    1
    28    21    18    1
    29    13    14    2
    30    19    18    1
    31    16    18    1
    32    16    15    2
    33    18    20    1
    34    14    15    1
