@<TRIPOS>MOLECULE
35376_out_ligand_01.pdbqt
 35 37 0 0 0
SMALL
GASTEIGER

@<TRIPOS>ATOM
      1  C         17.3390  -22.8120   -9.0820 C.2     1  UNL1        0.0750
      2  C         16.7800  -21.9610  -10.0370 C.2     1  UNL1        0.0250
      3  C         17.5880  -21.4330  -11.0460 C.2     1  UNL1        0.0090
      4  C         18.9500  -21.7680  -11.1260 C.2     1  UNL1       -0.0460
      5  C         19.7870  -21.1730  -12.2260 C.3     1  UNL1        0.0490
      6  C         19.4950  -22.6400  -10.1610 C.2     1  UNL1        0.0390
      7  C         18.6910  -23.1610   -9.1370 C.2     1  UNL1        0.0420
      8  S         16.2990  -23.5020   -7.8130 S.O2    1  UNL1        0.2460
      9  O         15.6690  -24.6790   -8.3770 O.2     1  UNL1       -0.2060
     10  O         15.5250  -22.4120   -7.2620 O.2     1  UNL1       -0.2060
     11  N         17.4820  -24.0450   -6.7170 N.pl3   1  UNL1       -0.1790
     12  H         17.0940  -24.8970   -6.2940 H       1  UNL1        0.1460
     13  C         17.7830  -23.1150   -5.6610 C.2     1  UNL1        0.0560
     14  C         18.6330  -22.0380   -5.9230 C.2     1  UNL1        0.0340
     15  C         18.8830  -21.0870   -4.9290 C.2     1  UNL1       -0.0600
     16  C         18.2890  -21.2450   -3.6710 C.2     1  UNL1        0.0090
     17  C         19.8240  -19.9480   -5.1900 C.3     1  UNL1        0.0480
     18  C         17.4270  -22.3190   -3.4140 C.2     1  UNL1        0.0390
     19  C         17.1590  -23.2550   -4.4120 C.2     1  UNL1        0.0900
     20  O         16.3410  -24.3490   -4.2780 O.2     1  UNL1       -0.3540
     21  C         14.9420  -24.0950   -4.2400 C.3     1  UNL1        0.2100
     22  C         20.9360  -23.0160  -10.1930 C.2     1  UNL1        0.2560
     23  O         21.3000  -23.9990   -9.5630 O.2     1  UNL1       -0.2670
     24  N         21.7200  -22.1700  -10.9580 N.am    1  UNL1       -0.3230
     25  H         21.2590  -21.3710  -11.3750 H       1  UNL1        0.1690
     26  C         23.1070  -22.2670  -11.1920 C.2     1  UNL1        0.0350
     27  C         23.9490  -21.5210  -10.3570 C.2     1  UNL1        0.0290
     28  C         25.3340  -21.5550  -10.5260 C.2     1  UNL1        0.0030
     29  C         25.8940  -22.3400  -11.5310 C.2     1  UNL1        0.0160
     30  C         25.0720  -23.1020  -12.3720 C.2     1  UNL1        0.0500
     31  C         23.6770  -23.0500  -12.1980 C.2     1  UNL1        0.0450
     32  C         25.6620  -23.9420  -13.4780 C.3     1  UNL1        0.4170
     33  F         24.8440  -24.9590  -13.8720 F       1  UNL1       -0.1660
     34  F         26.8350  -24.5300  -13.1150 F       1  UNL1       -0.1660
     35  F         25.9300  -23.2290  -14.6070 F       1  UNL1       -0.1660
@<TRIPOS>BOND
     1    35    32    1
     2    33    32    1
     3    32    34    1
     4    32    30    1
     5    30    31    1
     6    30    29    2
     7     5     4    1
     8    31    26    2
     9    29    28    1
    10    25    24    1
    11    26    24    1
    12    26    27    1
    13     4     3    2
    14     4     6    1
    15     3     2    1
    16    24    22   am
    17    28    27    2
    18    22     6    1
    19    22    23    2
    20     6     7    2
    21     2     1    2
    22     7     1    1
    23     1     8    1
    24     9     8    2
    25     8    10    2
    26     8    11    1
    27    11    12    1
    28    11    13    1
    29    14    13    2
    30    14    15    1
    31    13    19    1
    32    17    15    1
    33    15    16    2
    34    19    20    1
    35    19    18    2
    36    20    21    1
    37    16    18    1
