@<TRIPOS>MOLECULE
35373_out_ligand_01.pdbqt
 35 37 0 0 0
SMALL
GASTEIGER

@<TRIPOS>ATOM
      1  C         21.9150  -22.1560  -10.8980 C.2     1  UNL1        0.0750
      2  C         21.4790  -21.4410  -12.0150 C.2     1  UNL1        0.0250
      3  C         20.1240  -21.1330  -12.1550 C.2     1  UNL1        0.0090
      4  C         19.1940  -21.5300  -11.1800 C.2     1  UNL1       -0.0460
      5  C         17.7400  -21.2020  -11.3770 C.3     1  UNL1        0.0490
      6  C         19.6640  -22.2140  -10.0400 C.2     1  UNL1        0.0390
      7  C         21.0180  -22.5430   -9.9030 C.2     1  UNL1        0.0420
      8  S         23.6450  -22.5260  -10.7250 S.O2    1  UNL1        0.2460
      9  O         23.8120  -23.2890   -9.5080 O.2     1  UNL1       -0.2060
     10  O         24.3690  -21.2940  -10.9540 O.2     1  UNL1       -0.2060
     11  N         23.8680  -23.5760  -12.0450 N.pl3   1  UNL1       -0.1790
     12  H         24.2060  -24.4730  -11.6740 H       1  UNL1        0.1460
     13  C         24.8340  -23.1060  -13.0110 C.2     1  UNL1        0.0570
     14  C         24.4470  -22.2340  -14.0290 C.2     1  UNL1        0.0510
     15  C         25.4040  -21.7730  -14.9280 C.2     1  UNL1        0.0350
     16  C         26.7350  -22.1760  -14.8150 C.2     1  UNL1        0.0260
     17 CL         24.9450  -20.6960  -16.1880 Cl      1  UNL1       -0.0840
     18  C         27.1200  -23.0570  -13.7980 C.2     1  UNL1        0.0400
     19  C         26.1710  -23.5300  -12.8910 C.2     1  UNL1        0.0900
     20  O         26.4160  -24.4060  -11.8630 O.2     1  UNL1       -0.3540
     21  C         27.1210  -23.8960  -10.7360 C.3     1  UNL1        0.2100
     22  C         18.7590  -22.6280   -8.9420 C.2     1  UNL1        0.2560
     23  O         18.0420  -23.6010   -9.1260 O.2     1  UNL1       -0.2670
     24  N         18.8790  -21.8580   -7.8030 N.am    1  UNL1       -0.3230
     25  H         19.5880  -21.1330   -7.8210 H       1  UNL1        0.1690
     26  C         18.1530  -21.9850   -6.6020 C.2     1  UNL1        0.0350
     27  C         18.8010  -21.6030   -5.4210 C.2     1  UNL1        0.0290
     28  C         18.1490  -21.6940   -4.1900 C.2     1  UNL1        0.0030
     29  C         16.8390  -22.1640   -4.1280 C.2     1  UNL1        0.0160
     30  C         16.1720  -22.5550   -5.2990 C.2     1  UNL1        0.0500
     31  C         16.8420  -22.4600   -6.5330 C.2     1  UNL1        0.0450
     32  C         14.7500  -23.0550   -5.2530 C.3     1  UNL1        0.4170
     33  F         14.3730  -23.4340   -4.0000 F       1  UNL1       -0.1660
     34  F         13.8450  -22.1220   -5.6540 F       1  UNL1       -0.1660
     35  F         14.5350  -24.1420   -6.0490 F       1  UNL1       -0.1660
@<TRIPOS>BOND
     1    17    15    1
     2    15    16    2
     3    15    14    1
     4    16    18    1
     5    14    13    2
     6    18    19    2
     7    13    19    1
     8    13    11    1
     9    19    20    1
    10     3     2    1
    11     3     4    2
    12    11    12    1
    13    11     8    1
    14     2     1    2
    15    20    21    1
    16     5     4    1
    17     4     6    1
    18    10     8    2
    19     1     8    1
    20     1     7    1
    21     8     9    2
    22     6     7    2
    23     6    22    1
    24    23    22    2
    25    22    24   am
    26    25    24    1
    27    24    26    1
    28    26    31    2
    29    26    27    1
    30    31    30    1
    31    35    32    1
    32    34    32    1
    33    27    28    2
    34    30    32    1
    35    30    29    2
    36    32    33    1
    37    28    29    1
