@<TRIPOS>MOLECULE
35370_out_ligand_01.pdbqt
 36 39 0 0 0
SMALL
GASTEIGER

@<TRIPOS>ATOM
      1  C         17.8880  -21.5400  -10.9980 C.3     1  UNL1        0.0490
      2  C         19.3610  -21.8240  -10.8940 C.2     1  UNL1       -0.0460
      3  C         20.2010  -21.4770  -11.9650 C.2     1  UNL1        0.0090
      4  C         21.5790  -21.6970  -11.8910 C.2     1  UNL1        0.0260
      5  C         22.1290  -22.2610  -10.7380 C.2     1  UNL1        0.0800
      6  C         21.3140  -22.6380   -9.6700 C.2     1  UNL1        0.0420
      7  C         19.9330  -22.4300   -9.7580 C.2     1  UNL1        0.0390
      8  S         23.8770  -22.5400  -10.6340 S.O2    1  UNL1        0.2630
      9  O         24.5200  -21.2550  -10.8100 O.2     1  UNL1       -0.2000
     10  O         24.1500  -23.3560   -9.4720 O.2     1  UNL1       -0.2000
     11  N         24.1950  -23.4290  -12.0370 N.pl3   1  UNL1       -0.2810
     12  H         23.3900  -23.9950  -12.2990 H       1  UNL1        0.1790
     13  C         24.9180  -22.7890  -13.0800 C.2     1  UNL1        0.0450
     14  C         26.3130  -22.7890  -13.0480 C.2     1  UNL1        0.0330
     15  C         27.0320  -22.1270  -14.0460 C.2     1  UNL1        0.0420
     16  C         26.3530  -21.4620  -15.0630 C.2     1  UNL1        0.1020
     17  C         24.9530  -21.4830  -15.1030 C.2     1  UNL1        0.1040
     18  O         27.1210  -20.8130  -15.9950 O.2     1  UNL1       -0.3460
     19  C         24.2340  -22.1320  -14.1010 C.2     1  UNL1        0.0690
     20  O         24.2220  -20.8730  -16.0910 O.2     1  UNL1       -0.3460
     21  C         25.0400  -20.5330  -17.2160 C.3     1  UNL1        0.2020
     22  C         26.3400  -19.8890  -16.7620 C.3     1  UNL1        0.2020
     23  C         19.1170  -22.8590   -8.5970 C.2     1  UNL1        0.2560
     24  O         18.6380  -23.9830   -8.6170 O.2     1  UNL1       -0.2670
     25  N         18.9680  -21.8810   -7.6320 N.am    1  UNL1       -0.3230
     26  H         19.3770  -20.9780   -7.8380 H       1  UNL1        0.1690
     27  C         18.2720  -21.9870   -6.4110 C.2     1  UNL1        0.0350
     28  C         18.7550  -21.5040   -5.1950 C.2     1  UNL1        0.0290
     29  C         18.0010  -21.6430   -4.0260 C.2     1  UNL1        0.0030
     30  C         16.7550  -22.2650   -4.0620 C.2     1  UNL1        0.0160
     31  C         16.2490  -22.7570   -5.2720 C.2     1  UNL1        0.0500
     32  C         17.0180  -22.6110   -6.4410 C.2     1  UNL1        0.0450
     33  C         14.9010  -23.4280   -5.3420 C.3     1  UNL1        0.4170
     34  F         14.8060  -24.2970   -6.3870 F       1  UNL1       -0.1660
     35  F         14.5860  -24.1460   -4.2290 F       1  UNL1       -0.1660
     36  F         13.8870  -22.5340   -5.5100 F       1  UNL1       -0.1660
@<TRIPOS>BOND
     1    21    22    1
     2    21    20    1
     3    22    18    1
     4    20    17    1
     5    18    16    1
     6    17    16    2
     7    17    19    1
     8    16    15    1
     9    19    13    2
    10    15    14    2
    11    13    14    1
    12    13    11    1
    13    12    11    1
    14    11     8    1
    15     3     4    1
    16     3     2    2
    17     4     5    2
    18     1     2    1
    19     2     7    1
    20     9     8    2
    21     5     8    1
    22     5     6    1
    23     8    10    2
    24     7     6    2
    25     7    23    1
    26    24    23    2
    27    23    25   am
    28    26    25    1
    29    25    27    1
    30    32    27    2
    31    32    31    1
    32    27    28    1
    33    34    33    1
    34    36    33    1
    35    33    31    1
    36    33    35    1
    37    31    30    2
    38    28    29    2
    39    30    29    1
