@<TRIPOS>MOLECULE
35379_out_ligand_01.pdbqt
 37 39 0 0 0
SMALL
GASTEIGER

@<TRIPOS>ATOM
      1  C         17.9510  -21.3170  -11.4170 C.3     1  UNL1        0.0490
      2  C         19.3800  -21.6740  -11.1170 C.2     1  UNL1       -0.0460
      3  C         20.3610  -21.4450  -12.0970 C.2     1  UNL1        0.0090
      4  C         21.7040  -21.7320  -11.8450 C.2     1  UNL1        0.0260
      5  C         22.0780  -22.2510  -10.6030 C.2     1  UNL1        0.0800
      6  C         21.1220  -22.5120   -9.6220 C.2     1  UNL1        0.0420
      7  C         19.7760  -22.2360   -9.8860 C.2     1  UNL1        0.0390
      8  S         23.7830  -22.6030  -10.2630 S.O2    1  UNL1        0.2630
      9  O         24.4790  -21.3350  -10.2420 O.2     1  UNL1       -0.2000
     10  O         23.8570  -23.5180   -9.1450 O.2     1  UNL1       -0.2000
     11  N         24.2830  -23.4010  -11.6670 N.pl3   1  UNL1       -0.2810
     12  H         23.5710  -24.0610  -11.9830 H       1  UNL1        0.1790
     13  C         24.9780  -22.6470  -12.6480 C.2     1  UNL1        0.0430
     14  C         25.9470  -21.7320  -12.2530 C.2     1  UNL1        0.0320
     15  C         26.5980  -20.9570  -13.2130 C.2     1  UNL1        0.0270
     16  C         26.2730  -21.0910  -14.5670 C.2     1  UNL1        0.0490
     17 CL         27.1200  -20.0920  -15.6900 Cl      1  UNL1       -0.0830
     18  C         25.2920  -22.0040  -14.9760 C.2     1  UNL1        0.0710
     19  C         24.6460  -22.7830  -13.9960 C.2     1  UNL1        0.0480
     20  C         24.9170  -22.1610  -16.4250 C.3     1  UNL1        0.4190
     21  F         23.9100  -23.0550  -16.6230 F       1  UNL1       -0.1660
     22  F         25.9520  -22.6040  -17.1970 F       1  UNL1       -0.1660
     23  F         24.5180  -20.9930  -16.9990 F       1  UNL1       -0.1660
     24  C         18.8080  -22.5360   -8.8030 C.2     1  UNL1        0.2560
     25  O         17.8660  -23.2680   -9.0700 O.2     1  UNL1       -0.2670
     26  N         19.0850  -21.8960   -7.6130 N.am    1  UNL1       -0.3230
     27  H         19.8700  -21.2570   -7.6150 H       1  UNL1        0.1690
     28  C         18.3670  -21.9940   -6.4040 C.2     1  UNL1        0.0350
     29  C         18.8100  -21.4670   -5.1910 C.2     1  UNL1        0.0290
     30  C         18.0380  -21.6050   -4.0330 C.2     1  UNL1        0.0030
     31  C         16.8120  -22.2670   -4.0800 C.2     1  UNL1        0.0160
     32  C         16.3410  -22.7930   -5.2890 C.2     1  UNL1        0.0500
     33  C         17.1330  -22.6560   -6.4440 C.2     1  UNL1        0.0450
     34  C         15.0280  -23.5290   -5.3480 C.3     1  UNL1        0.4170
     35  F         13.9590  -22.6930   -5.4880 F       1  UNL1       -0.1660
     36  F         14.7730  -24.2700   -4.2350 F       1  UNL1       -0.1660
     37  F         14.9650  -24.3930   -6.3980 F       1  UNL1       -0.1660
@<TRIPOS>BOND
     1    22    20    1
     2    23    20    1
     3    21    20    1
     4    20    18    1
     5    17    16    1
     6    18    16    2
     7    18    19    1
     8    16    15    1
     9    19    13    2
    10    15    14    2
    11    13    14    1
    12    13    11    1
    13     3     4    1
    14     3     2    2
    15    12    11    1
    16     4     5    2
    17    11     8    1
    18     1     2    1
    19     2     7    1
    20     5     8    1
    21     5     6    1
    22     8     9    2
    23     8    10    2
    24     7     6    2
    25     7    24    1
    26    25    24    2
    27    24    26   am
    28    27    26    1
    29    26    28    1
    30    33    28    2
    31    33    32    1
    32    28    29    1
    33    37    34    1
    34    35    34    1
    35    34    32    1
    36    34    36    1
    37    32    31    2
    38    29    30    2
    39    31    30    1
