@<TRIPOS>MOLECULE
35378_out_ligand_01.pdbqt
 36 38 0 0 0
SMALL
GASTEIGER

@<TRIPOS>ATOM
      1  C         20.0650  -20.6970  -12.2160 C.3     1  UNL1        0.0490
      2  C         19.1190  -21.3980  -11.2790 C.2     1  UNL1       -0.0460
      3  C         17.7530  -21.0740  -11.3190 C.2     1  UNL1        0.0090
      4  C         16.8480  -21.6820  -10.4450 C.2     1  UNL1        0.0260
      5  C         17.3080  -22.6150   -9.5130 C.2     1  UNL1        0.0800
      6  C         18.6560  -22.9770   -9.4720 C.2     1  UNL1        0.0420
      7  C         19.5530  -22.3760  -10.3620 C.2     1  UNL1        0.0390
      8  S         16.1540  -23.3740   -8.3920 S.O2    1  UNL1        0.2630
      9  O         15.3310  -22.3190   -7.8390 O.2     1  UNL1       -0.2000
     10  O         15.5600  -24.5110   -9.0640 O.2     1  UNL1       -0.2000
     11  N         17.1540  -23.9130   -7.1330 N.pl3   1  UNL1       -0.2800
     12  H         17.3970  -24.8980   -7.2700 H       1  UNL1        0.1790
     13  C         16.9220  -23.4440   -5.8020 C.2     1  UNL1        0.0570
     14  C         15.8750  -24.0120   -5.0640 C.2     1  UNL1        0.0310
     15  C         15.6380  -23.6270   -3.7450 C.2     1  UNL1        0.0020
     16  C         16.4370  -22.6560   -3.1530 C.2     1  UNL1        0.0010
     17  C         17.4650  -22.0640   -3.8870 C.2     1  UNL1        0.0180
     18  C         17.7230  -22.4490   -5.2190 C.2     1  UNL1        0.0750
     19  C         18.8260  -21.7370   -5.9520 C.3     1  UNL1        0.4190
     20  F         19.5260  -20.8790   -5.1570 F       1  UNL1       -0.1660
     21  F         18.3570  -20.9840   -6.9870 F       1  UNL1       -0.1660
     22  F         19.7580  -22.5670   -6.5030 F       1  UNL1       -0.1660
     23  C         20.9700  -22.8020  -10.2760 C.2     1  UNL1        0.2560
     24  O         21.2610  -23.6620   -9.4580 O.2     1  UNL1       -0.2670
     25  N         21.7950  -22.1700  -11.1850 N.am    1  UNL1       -0.3230
     26  H         21.3520  -21.5260  -11.8290 H       1  UNL1        0.1690
     27  C         23.1840  -22.3440  -11.3430 C.2     1  UNL1        0.0350
     28  C         24.0170  -21.7240  -10.4030 C.2     1  UNL1        0.0290
     29  C         25.4050  -21.8480  -10.4890 C.2     1  UNL1        0.0030
     30  C         25.9760  -22.5950  -11.5170 C.2     1  UNL1        0.0160
     31  C         25.1610  -23.2300  -12.4640 C.2     1  UNL1        0.0500
     32  C         23.7640  -23.0940  -12.3690 C.2     1  UNL1        0.0450
     33  C         25.7570  -24.0390  -13.5910 C.3     1  UNL1        0.4170
     34  F         26.8930  -24.6920  -13.2200 F       1  UNL1       -0.1660
     35  F         26.0930  -23.2760  -14.6680 F       1  UNL1       -0.1660
     36  F         24.9170  -25.0010  -14.0700 F       1  UNL1       -0.1660
@<TRIPOS>BOND
     1    35    33    1
     2    36    33    1
     3    33    34    1
     4    33    31    1
     5    31    32    1
     6    31    30    2
     7    32    27    2
     8     1     2    1
     9    26    25    1
    10    30    29    1
    11    27    25    1
    12    27    28    1
    13     3     2    2
    14     3     4    1
    15     2     7    1
    16    25    23   am
    17    29    28    2
    18     4     5    2
    19     7    23    1
    20     7     6    2
    21    23    24    2
    22     5     6    1
    23     5     8    1
    24    10     8    2
    25     8     9    2
    26     8    11    1
    27    12    11    1
    28    11    13    1
    29    21    19    1
    30    22    19    1
    31    19    18    1
    32    19    20    1
    33    13    18    2
    34    13    14    1
    35    18    17    1
    36    14    15    2
    37    17    16    2
    38    15    16    1
