@<TRIPOS>MOLECULE
35371_out_ligand_01.pdbqt
 34 36 0 0 0
SMALL
GASTEIGER

@<TRIPOS>ATOM
      1  C         21.9730  -22.2380  -10.8990 C.2     1  UNL1        0.0750
      2  C         21.4900  -21.6240  -12.0550 C.2     1  UNL1        0.0250
      3  C         20.1350  -21.3060  -12.1490 C.2     1  UNL1        0.0090
      4  C         19.2520  -21.5890  -11.0910 C.2     1  UNL1       -0.0460
      5  C         17.7960  -21.2440  -11.2430 C.3     1  UNL1        0.0490
      6  C         19.7550  -22.2180   -9.9340 C.2     1  UNL1        0.0390
      7  C         21.1170  -22.5420   -9.8370 C.2     1  UNL1        0.0420
      8  C         18.8540  -22.5850   -8.8050 C.2     1  UNL1        0.2560
      9  O         18.0760  -23.5180   -8.9550 O.2     1  UNL1       -0.2670
     10  N         19.0050  -21.7920   -7.6810 N.am    1  UNL1       -0.3230
     11  H         19.6530  -21.0180   -7.7500 H       1  UNL1        0.1690
     12  C         18.3260  -21.9160   -6.4510 C.2     1  UNL1        0.0350
     13  C         18.8270  -21.4560   -5.2340 C.2     1  UNL1        0.0290
     14  C         18.0860  -21.6080   -4.0570 C.2     1  UNL1        0.0030
     15  C         16.8370  -22.2230   -4.0860 C.2     1  UNL1        0.0160
     16  C         16.3170  -22.7030   -5.2950 C.2     1  UNL1        0.0500
     17  C         17.0680  -22.5360   -6.4730 C.2     1  UNL1        0.0450
     18  C         14.9580  -23.3540   -5.3430 C.3     1  UNL1        0.4170
     19  F         14.6690  -24.0610   -4.2130 F       1  UNL1       -0.1660
     20  F         14.8430  -24.2370   -6.3740 F       1  UNL1       -0.1660
     21  F         13.9390  -22.4640   -5.4940 F       1  UNL1       -0.1660
     22  S         23.7010  -22.6250  -10.7650 S.O2    1  UNL1        0.2450
     23  O         24.4370  -21.4220  -11.0950 O.2     1  UNL1       -0.2060
     24  O         23.8760  -23.3340   -9.5180 O.2     1  UNL1       -0.2060
     25  N         23.9160  -23.6790  -12.0940 N.pl3   1  UNL1       -0.1810
     26  H         23.0020  -23.7830  -12.5400 H       1  UNL1        0.1460
     27  C         24.8870  -23.2180  -13.0460 C.2     1  UNL1        0.0240
     28  C         26.1920  -23.7060  -13.0020 C.2     1  UNL1        0.0240
     29  C         27.1210  -23.2810  -13.9530 C.2     1  UNL1        0.0030
     30  C         26.7340  -22.3870  -14.9540 C.2     1  UNL1        0.0180
     31  C         25.4150  -21.9240  -15.0230 C.2     1  UNL1        0.0010
     32  C         24.4940  -22.3370  -14.0560 C.2     1  UNL1        0.0420
     33  S         24.9650  -20.8020  -16.3350 S.3     1  UNL1       -0.1340
     34  C         25.2230  -21.8750  -17.7770 C.3     1  UNL1        0.0950
@<TRIPOS>BOND
     1    34    33    1
     2    33    31    1
     3    31    30    2
     4    31    32    1
     5    30    29    1
     6    32    27    2
     7    29    28    2
     8    27    28    1
     9    27    25    1
    10    26    25    1
    11     3     2    1
    12     3     4    2
    13    25    22    1
    14     2     1    2
    15     5     4    1
    16    23    22    2
    17     4     6    1
    18     1    22    1
    19     1     7    1
    20    22    24    2
    21     6     7    2
    22     6     8    1
    23     9     8    2
    24     8    10   am
    25    11    10    1
    26    10    12    1
    27    17    12    2
    28    17    16    1
    29    12    13    1
    30    20    18    1
    31    21    18    1
    32    18    16    1
    33    18    19    1
    34    16    15    2
    35    13    14    2
    36    15    14    1
