@<TRIPOS>MOLECULE
35372_out_ligand_01.pdbqt
 35 38 0 0 0
SMALL
GASTEIGER

@<TRIPOS>ATOM
      1  C         17.8750  -22.0760  -10.6060 C.3     1  UNL1        0.0490
      2  C         19.3760  -22.1610  -10.5640 C.2     1  UNL1       -0.0460
      3  C         20.1100  -21.7970  -11.7050 C.2     1  UNL1        0.0090
      4  C         21.5020  -21.9020  -11.7240 C.2     1  UNL1        0.0260
      5  C         22.1730  -22.3800  -10.5970 C.2     1  UNL1        0.0800
      6  C         21.4710  -22.7130   -9.4380 C.2     1  UNL1        0.0420
      7  C         20.0780  -22.5910   -9.4210 C.2     1  UNL1        0.0390
      8  S         23.9430  -22.5470  -10.6140 S.O2    1  UNL1        0.2630
      9  O         24.2990  -23.4260   -9.5200 O.2     1  UNL1       -0.2000
     10  O         24.5170  -21.2240  -10.7300 O.2     1  UNL1       -0.2000
     11  N         24.2240  -23.4120  -12.0380 N.pl3   1  UNL1       -0.2810
     12  H         23.4460  -24.0290  -12.2690 H       1  UNL1        0.1790
     13  C         24.9040  -22.7740  -13.1140 C.2     1  UNL1        0.0450
     14  C         26.3100  -22.7490  -13.1550 C.2     1  UNL1        0.0330
     15  C         26.9790  -22.0880  -14.1910 C.2     1  UNL1        0.0420
     16  C         26.2130  -21.4730  -15.1560 C.2     1  UNL1        0.1050
     17  C         24.8380  -21.5020  -15.1160 C.2     1  UNL1        0.1070
     18  O         26.6870  -20.7840  -16.2280 O.2     1  UNL1       -0.3230
     19  C         24.1510  -22.1450  -14.1090 C.2     1  UNL1        0.0690
     20  O         24.2770  -20.8330  -16.1590 O.2     1  UNL1       -0.3230
     21  C         25.4540  -20.3880  -16.8640 C.3     1  UNL1        0.3520
     22  C         19.3950  -22.9690   -8.1590 C.2     1  UNL1        0.2560
     23  O         19.1600  -24.1550   -7.9700 O.2     1  UNL1       -0.2670
     24  N         19.1490  -21.9070   -7.3130 N.am    1  UNL1       -0.3230
     25  H         19.5050  -21.0050   -7.6040 H       1  UNL1        0.1690
     26  C         18.5040  -21.9430   -6.0610 C.2     1  UNL1        0.0350
     27  C         19.0860  -21.2110   -5.0210 C.2     1  UNL1        0.0290
     28  C         18.5050  -21.1890   -3.7510 C.2     1  UNL1        0.0030
     29  C         17.3320  -21.9010   -3.5100 C.2     1  UNL1        0.0160
     30  C         16.7340  -22.6450   -4.5350 C.2     1  UNL1        0.0500
     31  C         17.3270  -22.6540   -5.8110 C.2     1  UNL1        0.0450
     32  C         15.4560  -23.4120   -4.2990 C.3     1  UNL1        0.4170
     33  F         15.5110  -24.2280   -3.2080 F       1  UNL1       -0.1660
     34  F         15.1210  -24.2180   -5.3450 F       1  UNL1       -0.1660
     35  F         14.3870  -22.5940   -4.0950 F       1  UNL1       -0.1660
@<TRIPOS>BOND
     1    21    18    1
     2    21    20    1
     3    18    16    1
     4    20    17    1
     5    16    17    2
     6    16    15    1
     7    17    19    1
     8    15    14    2
     9    19    13    2
    10    14    13    1
    11    13    11    1
    12    12    11    1
    13    11     8    1
    14     4     3    1
    15     4     5    2
    16     3     2    2
    17    10     8    2
    18     8     5    1
    19     8     9    2
    20     1     2    1
    21     5     6    1
    22     2     7    1
    23     6     7    2
    24     7    22    1
    25    22    23    2
    26    22    24   am
    27    25    24    1
    28    24    26    1
    29    26    31    2
    30    26    27    1
    31    31    30    1
    32    34    32    1
    33    27    28    2
    34    30    32    1
    35    30    29    2
    36    32    35    1
    37    32    33    1
    38    28    29    1
