@<TRIPOS>MOLECULE
35381_out_ligand_01.pdbqt
 39 42 0 0 0
SMALL
GASTEIGER

@<TRIPOS>ATOM
      1  C         17.5260  -21.1590  -11.3510 C.3     1  UNL1        0.0490
      2  C         18.9980  -21.4260  -11.1870 C.2     1  UNL1       -0.0460
      3  C         19.8880  -20.9560  -12.1710 C.2     1  UNL1        0.0090
      4  C         21.2620  -21.1670  -12.0570 C.2     1  UNL1        0.0260
      5  C         21.7590  -21.8530  -10.9490 C.2     1  UNL1        0.0800
      6  C         20.8970  -22.3190   -9.9470 C.2     1  UNL1        0.0420
      7  C         19.5170  -22.1020  -10.0620 C.2     1  UNL1        0.0390
      8  S         23.4960  -22.1850  -10.7870 S.O2    1  UNL1        0.2630
      9  O         23.6410  -23.5990  -10.5090 O.2     1  UNL1       -0.2000
     10  O         24.0150  -21.1750   -9.8890 O.2     1  UNL1       -0.2000
     11  N         24.1280  -21.8490  -12.2970 N.pl3   1  UNL1       -0.2780
     12  H         23.4440  -21.9900  -13.0460 H       1  UNL1        0.1790
     13  C         25.1180  -20.8450  -12.5380 C.2     1  UNL1        0.0760
     14  C         26.1390  -20.5370  -11.6370 C.2     1  UNL1        0.0330
     15  C         27.1200  -19.5940  -11.9730 C.2     1  UNL1        0.0020
     16  C         27.0970  -18.9650  -13.2190 C.2     1  UNL1        0.0030
     17  C         26.1030  -19.2880  -14.1420 C.2     1  UNL1        0.0390
     18  C         25.1390  -20.2460  -13.8100 C.2     1  UNL1        0.1030
     19  O         24.1340  -20.5670  -14.6990 O.2     1  UNL1       -0.3090
     20  C         24.4920  -21.1980  -15.8710 C.2     1  UNL1        0.0760
     21  C         24.9140  -20.5310  -17.0250 C.2     1  UNL1        0.0370
     22  C         25.2890  -21.2650  -18.1520 C.2     1  UNL1        0.0030
     23  C         25.2580  -22.6590  -18.1240 C.2     1  UNL1        0.0000
     24  C         24.8590  -23.3250  -16.9660 C.2     1  UNL1        0.0030
     25  C         24.4800  -22.5940  -15.8400 C.2     1  UNL1        0.0370
     26  C         18.6270  -22.5530   -8.9520 C.2     1  UNL1        0.2560
     27  O         17.8100  -23.4360   -9.1760 O.2     1  UNL1       -0.2670
     28  N         18.8410  -21.9060   -7.7480 N.am    1  UNL1       -0.3230
     29  H         19.6150  -21.2570   -7.7050 H       1  UNL1        0.1690
     30  C         18.1220  -22.0800   -6.5450 C.2     1  UNL1        0.0350
     31  C         18.7230  -21.6140   -5.3680 C.2     1  UNL1        0.0290
     32  C         18.0770  -21.7390   -4.1360 C.2     1  UNL1        0.0030
     33  C         16.8180  -22.3350   -4.0680 C.2     1  UNL1        0.0160
     34  C         16.1930  -22.7980   -5.2330 C.2     1  UNL1        0.0500
     35  C         16.8580  -22.6680   -6.4670 C.2     1  UNL1        0.0450
     36  C         14.8340  -23.4510   -5.1730 C.3     1  UNL1        0.4170
     37  F         13.8180  -22.5450   -5.2290 F       1  UNL1       -0.1660
     38  F         14.6360  -24.1720   -4.0320 F       1  UNL1       -0.1660
     39  F         14.6110  -24.3210   -6.2010 F       1  UNL1       -0.1660
@<TRIPOS>BOND
     1    22    23    2
     2    22    21    1
     3    23    24    1
     4    21    20    2
     5    24    25    2
     6    20    25    1
     7    20    19    1
     8    19    18    1
     9    17    18    1
    10    17    16    2
    11    18    13    2
    12    16    15    1
    13    12    11    1
    14    13    11    1
    15    13    14    1
    16    11     8    1
    17     3     4    1
    18     3     2    2
    19     4     5    2
    20    15    14    2
    21     1     2    1
    22     2     7    1
    23     5     8    1
    24     5     6    1
    25     8     9    2
    26     8    10    2
    27     7     6    2
    28     7    26    1
    29    27    26    2
    30    26    28   am
    31    28    29    1
    32    28    30    1
    33    30    35    2
    34    30    31    1
    35    35    34    1
    36    39    36    1
    37    31    32    2
    38    34    36    1
    39    34    33    2
    40    37    36    1
    41    36    38    1
    42    32    33    1
