@<TRIPOS>MOLECULE
353_out_ligand_01.pdbqt
 35 38 0 0 0
SMALL
GASTEIGER

@<TRIPOS>ATOM
      1  C         21.8950  -22.5200   -9.2420 C.2     1  UNL1        0.0320
      2  C         21.0320  -23.0420  -10.2170 C.2     1  UNL1        0.0180
      3  C         19.7020  -23.3210   -9.8970 C.2     1  UNL1        0.0260
      4  C         19.2330  -23.0570   -8.6050 C.2     1  UNL1        0.0740
      5  C         20.0880  -22.5420   -7.6240 C.2     1  UNL1        0.0260
      6  C         21.4160  -22.2620   -7.9500 C.2     1  UNL1        0.0180
      7  C         23.3110  -22.1870   -9.5490 C.2     1  UNL1        0.2520
      8  N         24.1380  -23.2530   -9.8270 N.am    1  UNL1       -0.3490
      9  H         23.7580  -24.1870   -9.8550 H       1  UNL1        0.1630
     10  O         23.6780  -21.0180   -9.5340 O.2     1  UNL1       -0.2680
     11  C         25.4760  -23.0620  -10.3640 C.3     1  UNL1        0.1140
     12  C         26.3520  -24.2720  -10.0380 C.3     1  UNL1        0.0370
     13  C         25.3700  -22.7480  -11.8480 C.2     1  UNL1       -0.0360
     14  C         25.6490  -21.4460  -12.2880 C.2     1  UNL1        0.0110
     15  C         25.5280  -21.0930  -13.6360 C.2     1  UNL1        0.0300
     16  C         25.1120  -22.0400  -14.5810 C.2     1  UNL1        0.0390
     17  C         24.8160  -23.3400  -14.1470 C.2     1  UNL1        0.0300
     18  C         24.9410  -23.6860  -12.7950 C.2     1  UNL1        0.0110
     19  N         24.9820  -21.6820  -15.9550 N.pl3   1  UNL1       -0.3150
     20  C         25.2400  -20.4550  -16.5320 C.2     1  UNL1        0.1170
     21  C         24.9780  -20.5960  -17.8730 C.2     1  UNL1        0.1350
     22  N         24.5540  -21.8620  -18.1530 N.2     1  UNL1       -0.2540
     23  C         24.5680  -22.4880  -16.9970 C.2     1  UNL1        0.2140
     24  S         17.5300  -23.3970   -8.2100 S.O2    1  UNL1        0.2450
     25  O         16.7730  -23.2730   -9.4380 O.2     1  UNL1       -0.2060
     26  O         17.4880  -24.6100   -7.4200 O.2     1  UNL1       -0.2060
     27  N         17.0890  -22.0830   -7.2420 N.pl3   1  UNL1       -0.1780
     28  H         17.6870  -21.2770   -7.4300 H       1  UNL1        0.1460
     29  C         16.8100  -22.3270   -5.8610 C.2     1  UNL1        0.0610
     30  C         17.8400  -22.4750   -4.9350 C.2     1  UNL1        0.0270
     31  C         17.5360  -22.6680   -3.5840 C.2     1  UNL1        0.0020
     32  C         16.2060  -22.7100   -3.1600 C.2     1  UNL1        0.0030
     33  C         15.1730  -22.5640   -4.0860 C.2     1  UNL1        0.0440
     34  C         15.4820  -22.3730   -5.4270 C.2     1  UNL1        0.1380
     35  F         14.4880  -22.2200   -6.3160 F       1  UNL1       -0.2040
@<TRIPOS>BOND
     1    22    21    1
     2    22    23    2
     3    21    20    2
     4    23    19    1
     5    20    19    1
     6    19    16    1
     7    16    17    2
     8    16    15    1
     9    17    18    1
    10    15    14    2
    11    18    13    2
    12    14    13    1
    13    13    11    1
    14    11    12    1
    15    11     8    1
    16     2     3    1
    17     2     1    2
    18     3     4    2
    19     9     8    1
    20     8     7   am
    21     7    10    2
    22     7     1    1
    23    25    24    2
    24     1     6    1
    25     4    24    1
    26     4     5    1
    27    24    26    2
    28    24    27    1
    29     6     5    2
    30    28    27    1
    31    27    29    1
    32    35    34    1
    33    29    34    2
    34    29    30    1
    35    34    33    1
    36    30    31    2
    37    33    32    2
    38    31    32    1
