@<TRIPOS>MOLECULE
35425_out_ligand_01.pdbqt
 32 35 0 0 0
SMALL
GASTEIGER

@<TRIPOS>ATOM
      1  C         21.2560  -23.0050   -9.9040 C.2     1  UNL1        0.1060
      2  C         22.5190  -23.5840   -9.6180 C.2     1  UNL1        0.0670
      3  C         23.4620  -22.8720  -10.3420 C.2     1  UNL1        0.1060
      4  O         22.8150  -21.8910  -11.0490 O.2     1  UNL1       -0.3110
      5  C         21.4800  -21.9840  -10.7950 C.2     1  UNL1        0.0720
      6  C         20.6120  -21.0150  -11.4950 C.3     1  UNL1        0.0780
      7  S         19.7360  -23.4860   -9.2690 S.O2    1  UNL1        0.2480
      8  O         18.8990  -23.5920  -10.4420 O.2     1  UNL1       -0.2050
      9  O         20.0590  -24.6160   -8.4260 O.2     1  UNL1       -0.2050
     10  N         19.2110  -22.2170   -8.2650 N.pl3   1  UNL1       -0.1810
     11  H         20.0070  -21.6270   -8.0300 H       1  UNL1        0.1460
     12  C         18.4590  -22.6290   -7.1120 C.2     1  UNL1        0.0290
     13  C         17.5530  -23.6820   -7.2730 C.2     1  UNL1        0.0250
     14  C         16.8000  -24.1330   -6.1960 C.2     1  UNL1        0.0020
     15  C         16.9430  -23.5270   -4.9530 C.2     1  UNL1        0.0070
     16  C         17.8450  -22.4660   -4.7660 C.2     1  UNL1       -0.0540
     17  C         17.9480  -21.8500   -3.3950 C.3     1  UNL1        0.0490
     18  C         18.6410  -22.0210   -5.8510 C.2     1  UNL1       -0.0340
     19  C         19.6090  -20.8790   -5.6720 C.3     1  UNL1        0.0500
     20  C         24.8800  -23.0420  -10.4060 C.2     1  UNL1        0.1010
     21  N         25.5480  -24.0700   -9.7940 N.pl3   1  UNL1       -0.2750
     22  N         26.8760  -24.0640  -10.0030 N.2     1  UNL1       -0.1860
     23  H         25.1610  -24.8170   -9.2290 H       1  UNL1        0.1890
     24  C         27.0530  -23.0180  -10.8150 C.2     1  UNL1        0.1580
     25  C         25.8560  -22.3140  -11.0670 C.2     1  UNL1        0.0820
     26  C         25.7000  -21.1470  -11.9090 C.2     1  UNL1        0.2570
     27  O         25.8040  -20.0170  -11.4390 O.2     1  UNL1       -0.2670
     28  N         25.3680  -21.3660  -13.2340 N.am    1  UNL1       -0.3480
     29  C         25.1800  -20.2530  -14.1450 C.3     1  UNL1        0.1260
     30  C         25.0320  -22.6320  -13.8670 C.3     1  UNL1        0.1260
     31  C         24.4420  -20.8520  -15.3340 C.3     1  UNL1        0.0210
     32  C         24.9300  -22.2940  -15.3490 C.3     1  UNL1        0.0210
@<TRIPOS>BOND
     1    32    31    1
     2    32    30    1
     3    31    29    1
     4    29    28    1
     5    30    28    1
     6    28    26   am
     7    26    27    2
     8    26    25    1
     9     6     5    1
    10    25    24    1
    11    25    20    2
    12     4     5    1
    13     4     3    1
    14    24    22    2
    15     5     1    2
    16     8     7    2
    17    20     3    1
    18    20    21    1
    19     3     2    2
    20    22    21    1
    21     1     2    1
    22     1     7    1
    23    21    23    1
    24     7     9    2
    25     7    10    1
    26    10    11    1
    27    10    12    1
    28    13    12    2
    29    13    14    1
    30    12    18    1
    31    14    15    2
    32    18    19    1
    33    18    16    2
    34    15    16    1
    35    16    17    1
