@<TRIPOS>MOLECULE
35422_out_ligand_01.pdbqt
 36 40 0 0 0
SMALL
GASTEIGER

@<TRIPOS>ATOM
      1  C         21.2430  -21.4780  -12.5620 C.2     1  UNL1        0.0360
      2  C         22.5430  -21.4380  -12.2110 C.2     1  UNL1        0.0740
      3  S         23.1240  -21.6650  -10.6140 S.3     1  UNL1       -0.0830
      4  C         24.5910  -22.5920  -10.9830 C.2     1  UNL1        0.0320
      5  C         25.0880  -23.4050   -9.9490 C.2     1  UNL1        0.0210
      6  C         26.2610  -24.1350  -10.1130 C.2     1  UNL1        0.0020
      7  C         26.9500  -24.0480  -11.3130 C.2     1  UNL1        0.0020
      8  C         26.4650  -23.2370  -12.3440 C.2     1  UNL1        0.0310
      9  C         25.2710  -22.5000  -12.2080 C.2     1  UNL1        0.0550
     10  N         24.7830  -21.6660  -13.2730 N.am    1  UNL1       -0.3080
     11  C         23.5200  -21.0700  -13.2830 C.2     1  UNL1        0.2650
     12  O         23.1620  -20.2880  -14.1700 O.2     1  UNL1       -0.2670
     13  C         20.1070  -21.7810  -11.6850 C.2     1  UNL1       -0.0350
     14  C         18.8970  -21.1040  -11.8690 C.2     1  UNL1        0.0120
     15  C         17.8000  -21.3900  -11.0520 C.2     1  UNL1        0.0180
     16  C         17.9050  -22.3530  -10.0410 C.2     1  UNL1        0.0320
     17  C         19.1080  -23.0510   -9.8730 C.2     1  UNL1        0.0180
     18  C         20.2030  -22.7650  -10.6930 C.2     1  UNL1        0.0120
     19  C         16.7140  -22.6230   -9.1890 C.2     1  UNL1        0.2520
     20  O         15.6470  -22.9370   -9.7040 O.2     1  UNL1       -0.2680
     21  N         16.8910  -22.4590   -7.8290 N.am    1  UNL1       -0.3520
     22  H         17.7010  -21.9380   -7.5210 H       1  UNL1        0.1630
     23  C         15.7670  -22.5600   -6.9020 C.3     1  UNL1        0.0840
     24  C         15.5320  -24.0360   -6.5380 C.3     1  UNL1        0.0250
     25  C         14.8580  -24.1830   -5.1800 C.3     1  UNL1        0.0020
     26  C         15.7180  -23.6000   -4.0580 C.3     1  UNL1        0.0000
     27  C         16.6070  -22.4390   -4.5100 C.3     1  UNL1        0.0020
     28  C         15.9840  -21.6660   -5.6660 C.3     1  UNL1        0.0250
     29  C         25.6130  -21.4180  -14.4570 C.3     1  UNL1        0.1740
     30  C         25.1050  -22.0030  -15.7590 C.2     1  UNL1       -0.0010
     31  C         24.7070  -23.3510  -15.7910 C.2     1  UNL1        0.0120
     32  C         24.2580  -23.9410  -16.9770 C.2     1  UNL1        0.0010
     33  C         24.2150  -23.1950  -18.1530 C.2     1  UNL1        0.0030
     34  C         24.6250  -21.8660  -18.1430 C.2     1  UNL1        0.0430
     35  C         25.0720  -21.2830  -16.9590 C.2     1  UNL1        0.1240
     36  F         25.4650  -20.0030  -17.0040 F       1  UNL1       -0.2050
@<TRIPOS>BOND
     1    33    34    2
     2    33    32    1
     3    34    35    1
     4    36    35    1
     5    32    31    2
     6    35    30    2
     7    31    30    1
     8    30    29    1
     9    29    10    1
    10    12    11    2
    11    11    10   am
    12    11     2    1
    13    10     9    1
    14     1     2    2
    15     1    13    1
    16     8     9    1
    17     8     7    2
    18     2     3    1
    19     9     4    2
    20    14    13    2
    21    14    15    1
    22    13    18    1
    23     7     6    1
    24    15    16    2
    25     4     3    1
    26     4     5    1
    27    18    17    2
    28     6     5    2
    29    16    17    1
    30    16    19    1
    31    20    19    2
    32    19    21   am
    33    21    22    1
    34    21    23    1
    35    23    24    1
    36    23    28    1
    37    24    25    1
    38    28    27    1
    39    25    26    1
    40    27    26    1
