@<TRIPOS>MOLECULE
35421_out_ligand_01.pdbqt
 35 37 0 0 0
SMALL
GASTEIGER

@<TRIPOS>ATOM
      1  C         26.5280  -18.0880  -16.4600 C.3     1  UNL1        0.0500
      2  C         26.1490  -19.0950  -15.4080 C.2     1  UNL1       -0.0340
      3  C         26.6200  -18.7940  -14.0670 C.2     1  UNL1        0.0330
      4  C         26.4690  -19.6680  -13.0590 C.2     1  UNL1        0.0120
      5  C         26.9830  -19.3330  -11.6850 C.3     1  UNL1        0.0680
      6  N         25.7920  -20.8690  -13.2840 N.am    1  UNL1       -0.3080
      7  C         25.1630  -21.1430  -14.4980 C.2     1  UNL1        0.2690
      8  O         24.3590  -22.0730  -14.6140 O.2     1  UNL1       -0.2660
      9  C         25.4470  -20.2240  -15.6370 C.2     1  UNL1        0.1180
     10  C         24.9450  -20.5960  -16.9120 C.1     1  UNL1        0.1050
     11  N         24.5520  -20.8780  -17.9680 N.1     1  UNL1       -0.1910
     12  C         25.6210  -21.8650  -12.2090 C.3     1  UNL1        0.2350
     13  C         24.3230  -21.6960  -11.4040 C.2     1  UNL1        0.2400
     14  O         24.3330  -21.0970  -10.3330 O.2     1  UNL1       -0.2710
     15  N         23.2290  -22.3380  -11.9660 N.am    1  UNL1       -0.3260
     16  H         23.4340  -22.9610  -12.7360 H       1  UNL1        0.1690
     17  C         21.8880  -22.2840  -11.5380 C.2     1  UNL1        0.0340
     18  C         20.9070  -21.5010  -12.1550 C.2     1  UNL1        0.0300
     19  C         19.5900  -21.5090  -11.6820 C.2     1  UNL1        0.0190
     20  C         19.2380  -22.3220  -10.6040 C.2     1  UNL1        0.0320
     21  C         20.2090  -23.1150   -9.9800 C.2     1  UNL1        0.0190
     22  C         21.5270  -23.0910  -10.4490 C.2     1  UNL1        0.0300
     23  C         17.8310  -22.3020  -10.1370 C.2     1  UNL1        0.2510
     24  O         17.0320  -21.5170  -10.6340 O.2     1  UNL1       -0.2680
     25  N         17.4980  -23.2540   -9.1950 N.am    1  UNL1       -0.3530
     26  H         18.1590  -23.9900   -8.9780 H       1  UNL1        0.1630
     27  C         16.1270  -23.4270   -8.7520 C.3     1  UNL1        0.1640
     28  C         15.9330  -23.2450   -7.2640 C.2     1  UNL1       -0.0020
     29  C         15.0680  -22.2960   -6.7060 C.2     1  UNL1        0.0150
     30  C         14.9680  -22.1460   -5.3210 C.2     1  UNL1        0.0430
     31  C         15.7560  -22.9210   -4.4870 C.2     1  UNL1        0.1190
     32  F         15.6800  -22.7570   -3.1550 F       1  UNL1       -0.2060
     33  C         16.6300  -23.8630   -5.0050 C.2     1  UNL1        0.0850
     34  C         16.7100  -24.0140   -6.3890 C.2     1  UNL1        0.1270
     35  F         17.5650  -24.9130   -6.8830 F       1  UNL1       -0.2050
@<TRIPOS>BOND
     1    11    10    3
     2    10     9    1
     3     1     2    1
     4     9     2    2
     5     9     7    1
     6     2     3    1
     7     8     7    2
     8     7     6   am
     9     3     4    2
    10     6     4    1
    11     6    12    1
    12     4     5    1
    13    16    15    1
    14    12    13    1
    15    18    19    1
    16    18    17    2
    17    15    17    1
    18    15    13   am
    19    19    20    2
    20    17    22    1
    21    13    14    2
    22    24    23    2
    23    20    23    1
    24    20    21    1
    25    22    21    2
    26    23    25   am
    27    25    26    1
    28    25    27    1
    29    27    28    1
    30    28    29    2
    31    28    34    1
    32    35    34    1
    33    29    30    1
    34    34    33    2
    35    30    31    2
    36    33    31    1
    37    31    32    1
