@<TRIPOS>MOLECULE
35433_out_ligand_01.pdbqt
 32 35 0 0 0
SMALL
GASTEIGER

@<TRIPOS>ATOM
      1  C         23.2180  -22.4640   -9.9760 C.2     1  UNL1        0.0320
      2  C         23.0210  -21.7520   -8.7870 C.2     1  UNL1        0.0190
      3  C         21.8190  -21.8890   -8.0830 C.2     1  UNL1        0.0300
      4  C         20.8060  -22.7390   -8.5540 C.2     1  UNL1        0.0360
      5  C         20.9990  -23.4250   -9.7550 C.2     1  UNL1        0.0300
      6  C         22.1970  -23.2850  -10.4660 C.2     1  UNL1        0.0190
      7  N         19.6270  -22.8170   -7.7890 N.am    1  UNL1       -0.3090
      8  C         18.3350  -22.5550   -8.2010 C.2     1  UNL1        0.3270
      9  O         18.0060  -22.3740   -9.3710 O.2     1  UNL1       -0.2460
     10  N         17.3860  -22.6330   -7.1720 N.am    1  UNL1       -0.2960
     11  C         16.0050  -22.9390   -7.5540 C.3     1  UNL1        0.1440
     12  C         17.5980  -22.2720   -5.7960 C.2     1  UNL1        0.0740
     13  C         15.4690  -24.1260   -6.7700 C.3     1  UNL1        0.1010
     14  S         15.3020  -23.7280   -5.0060 S.3     1  UNL1       -0.1060
     15  C         16.7350  -22.6930   -4.7640 C.2     1  UNL1        0.1200
     16  N         16.9120  -22.3480   -3.4610 N.2     1  UNL1       -0.2520
     17  C         17.9470  -21.5430   -3.1530 C.2     1  UNL1        0.1180
     18  C         18.8290  -21.0510   -4.0930 C.2     1  UNL1        0.0220
     19  C         18.6460  -21.4150   -5.4260 C.2     1  UNL1        0.0340
     20  H         19.6940  -23.2930   -6.9010 H       1  UNL1        0.1700
     21  C         24.4830  -22.3570  -10.7530 C.2     1  UNL1        0.2510
     22  O         25.1930  -21.3620  -10.6550 O.2     1  UNL1       -0.2680
     23  N         24.7640  -23.4100  -11.5950 N.am    1  UNL1       -0.3530
     24  H         24.0480  -24.0970  -11.7940 H       1  UNL1        0.1630
     25  C         25.9190  -23.3700  -12.4610 C.3     1  UNL1        0.1610
     26  C         25.4980  -23.1460  -13.8900 C.2     1  UNL1       -0.0400
     27  C         25.2180  -21.8490  -14.3500 C.2     1  UNL1        0.0120
     28  C         24.7970  -21.6440  -15.6660 C.2     1  UNL1        0.0430
     29  C         24.6480  -22.7350  -16.5160 C.2     1  UNL1        0.1160
     30  F         24.2470  -22.5370  -17.7800 F       1  UNL1       -0.2060
     31  C         24.9060  -24.0270  -16.0760 C.2     1  UNL1        0.0430
     32  C         25.3290  -24.2350  -14.7620 C.2     1  UNL1        0.0120
@<TRIPOS>BOND
     1    30    29    1
     2    29    31    2
     3    29    28    1
     4    31    32    1
     5    28    27    2
     6    32    26    2
     7    27    26    1
     8    26    25    1
     9    25    23    1
    10    24    23    1
    11    23    21   am
    12    21    22    2
    13    21     1    1
    14     6     1    2
    15     6     5    1
    16     1     2    1
    17     5     4    2
    18     9     8    2
    19     2     3    2
    20     4     3    1
    21     4     7    1
    22     8     7   am
    23     8    10   am
    24     7    20    1
    25    11    10    1
    26    11    13    1
    27    10    12    1
    28    13    14    1
    29    12    19    2
    30    12    15    1
    31    19    18    1
    32    14    15    1
    33    15    16    2
    34    18    17    2
    35    16    17    1
