@<TRIPOS>MOLECULE
35439_out_ligand_01.pdbqt
 32 35 0 0 0
SMALL
GASTEIGER

@<TRIPOS>ATOM
      1  C         21.2030  -22.9830   -9.9220 C.2     1  UNL1        0.1060
      2  C         22.4640  -23.5500   -9.6030 C.2     1  UNL1        0.0670
      3  C         23.4140  -22.8600  -10.3380 C.2     1  UNL1        0.1060
      4  O         22.7740  -21.9000  -11.0810 O.2     1  UNL1       -0.3110
      5  C         21.4400  -21.9690  -10.8180 C.2     1  UNL1        0.0720
      6  C         20.5840  -20.9910  -11.5190 C.3     1  UNL1        0.0780
      7  S         19.6740  -23.4700   -9.3140 S.O2    1  UNL1        0.2480
      8  O         18.8660  -23.6290  -10.5050 O.2     1  UNL1       -0.2050
      9  O         19.9890  -24.5650   -8.4270 O.2     1  UNL1       -0.2050
     10  N         19.0510  -22.1460   -8.4420 N.pl3   1  UNL1       -0.1810
     11  H         18.7040  -21.4650   -9.1200 H       1  UNL1        0.1460
     12  C         18.0280  -22.5020   -7.4990 C.2     1  UNL1        0.0280
     13  C         16.9840  -23.3350   -7.9130 C.2     1  UNL1        0.0250
     14  C         16.0020  -23.7350   -7.0060 C.2     1  UNL1        0.0080
     15  C         16.0580  -23.3130   -5.6740 C.2     1  UNL1       -0.0610
     16  C         15.0220  -23.7760   -4.6940 C.3     1  UNL1        0.0480
     17  C         17.1210  -22.4970   -5.2620 C.2     1  UNL1        0.0150
     18  C         18.1080  -22.0730   -6.1680 C.2     1  UNL1       -0.0390
     19  C         19.2300  -21.2030   -5.6760 C.3     1  UNL1        0.0500
     20  C         24.8320  -23.0360  -10.3880 C.2     1  UNL1        0.1010
     21  N         25.4930  -24.0590   -9.7620 N.pl3   1  UNL1       -0.2750
     22  N         26.8210  -24.0610   -9.9660 N.2     1  UNL1       -0.1860
     23  H         25.1010  -24.7940   -9.1840 H       1  UNL1        0.1890
     24  C         27.0090  -23.0130  -10.7720 C.2     1  UNL1        0.1580
     25  C         25.8150  -22.3090  -11.0370 C.2     1  UNL1        0.0820
     26  C         25.6610  -21.1450  -11.8820 C.2     1  UNL1        0.2570
     27  O         25.7870  -20.0140  -11.4190 O.2     1  UNL1       -0.2670
     28  N         25.3180  -21.3690  -13.2020 N.am    1  UNL1       -0.3480
     29  C         25.0130  -22.6420  -13.8390 C.3     1  UNL1        0.1260
     30  C         25.1560  -20.2640  -14.1270 C.3     1  UNL1        0.1260
     31  C         24.9630  -22.3140  -15.3240 C.3     1  UNL1        0.0210
     32  C         24.4620  -20.8760  -15.3360 C.3     1  UNL1        0.0210
@<TRIPOS>BOND
     1    32    31    1
     2    32    30    1
     3    31    29    1
     4    30    28    1
     5    29    28    1
     6    28    26   am
     7    26    27    2
     8    26    25    1
     9     6     5    1
    10     4     5    1
    11     4     3    1
    12    25    24    1
    13    25    20    2
    14     5     1    2
    15    24    22    2
    16     8     7    2
    17    20     3    1
    18    20    21    1
    19     3     2    2
    20    22    21    1
    21     1     2    1
    22     1     7    1
    23    21    23    1
    24     7    10    1
    25     7     9    2
    26    11    10    1
    27    10    12    1
    28    13    12    2
    29    13    14    1
    30    12    18    1
    31    14    15    2
    32    18    19    1
    33    18    17    2
    34    15    17    1
    35    15    16    1
