@<TRIPOS>MOLECULE
35434_out_ligand_01.pdbqt
 32 36 0 0 0
SMALL
GASTEIGER

@<TRIPOS>ATOM
      1  C         17.8360  -22.5330   -8.7400 C.2     1  UNL1        0.0880
      2  C         16.9380  -21.9010   -9.7580 C.2     1  UNL1        0.0380
      3  C         17.4870  -21.5280  -10.9230 C.2     1  UNL1        0.0570
      4  C         18.8680  -21.7310  -11.1340 C.ar    1  UNL1        0.1750
      5  N         19.6600  -21.4690  -12.1550 N.ar    1  UNL1       -0.1280
      6  N         20.9210  -21.9050  -11.8270 N.ar    1  UNL1       -0.1200
      7  C         20.8680  -22.4030  -10.6090 C.ar    1  UNL1        0.2130
      8  N         19.5890  -22.3150  -10.1100 N.ar    1  UNL1       -0.1870
      9  N         19.1140  -22.7260   -8.8940 N.2     1  UNL1       -0.1630
     10  S         22.1860  -23.1000   -9.7330 S.3     1  UNL1       -0.0790
     11  C         23.3030  -21.6760   -9.5970 C.3     1  UNL1        0.1850
     12  C         24.2220  -21.5770  -10.8040 C.2     1  UNL1        0.2310
     13  O         25.2450  -20.8950  -10.7570 O.2     1  UNL1       -0.2720
     14  N         23.7900  -22.3220  -11.8900 N.am    1  UNL1       -0.3260
     15  H         22.8340  -22.6750  -11.8450 H       1  UNL1        0.1690
     16  C         24.4670  -22.5470  -13.1020 C.2     1  UNL1        0.0370
     17  C         25.4170  -23.5560  -13.2830 C.2     1  UNL1        0.0320
     18  C         26.0090  -23.7620  -14.5350 C.2     1  UNL1        0.0420
     19  C         25.6500  -22.9590  -15.6130 C.2     1  UNL1        0.1020
     20  C         24.7380  -21.9160  -15.4320 C.2     1  UNL1        0.1040
     21  O         26.2240  -23.2520  -16.8220 O.2     1  UNL1       -0.3460
     22  C         24.1340  -21.7240  -14.1870 C.2     1  UNL1        0.0690
     23  O         24.3740  -21.0520  -16.4360 O.2     1  UNL1       -0.3460
     24  C         25.2340  -21.1750  -17.5780 C.3     1  UNL1        0.2020
     25  C         25.5010  -22.6390  -17.8940 C.3     1  UNL1        0.2020
     26  C         17.1950  -22.9490   -7.4640 C.2     1  UNL1       -0.0060
     27  C         17.9190  -23.6080   -6.4630 C.2     1  UNL1        0.0140
     28  C         17.2880  -23.9670   -5.2670 C.2     1  UNL1        0.0070
     29  C         15.9330  -23.6790   -5.0650 C.2     1  UNL1       -0.0620
     30  C         15.2660  -24.0390   -3.7670 C.3     1  UNL1        0.0480
     31  C         15.2240  -22.9930   -6.0610 C.2     1  UNL1        0.0070
     32  C         15.8520  -22.6270   -7.2540 C.2     1  UNL1        0.0140
@<TRIPOS>BOND
     1    25    24    1
     2    25    21    1
     3    24    23    1
     4    21    19    1
     5    23    20    1
     6    19    20    2
     7    19    18    1
     8    20    22    1
     9    18    17    2
    10    22    16    2
    11    17    16    1
    12    16    14    1
    13     5     6   ar
    14     5     4   ar
    15    14    15    1
    16    14    12   am
    17     6     7   ar
    18     4     3    1
    19     4     8   ar
    20     3     2    2
    21    12    13    2
    22    12    11    1
    23     7     8   ar
    24     7    10    1
    25     8     9    1
    26     2     1    1
    27    10    11    1
    28     9     1    2
    29     1    26    1
    30    26    32    2
    31    26    27    1
    32    32    31    1
    33    27    28    2
    34    31    29    2
    35    28    29    1
    36    29    30    1
