@<TRIPOS>MOLECULE
35440_out_ligand_01.pdbqt
 30 33 0 0 0
SMALL
GASTEIGER

@<TRIPOS>ATOM
      1  C         19.4980  -21.4270  -11.4940 C.2     1  UNL1        0.0340
      2  C         20.0940  -20.7700  -12.5670 C.2     1  UNL1        0.0180
      3  C         21.4490  -20.9660  -12.8190 C.2     1  UNL1        0.0220
      4  C         22.2190  -21.8280  -12.0150 C.2     1  UNL1        0.0270
      5  C         21.6360  -22.5290  -10.9260 C.2     1  UNL1        0.0480
      6  C         20.2630  -22.3020  -10.6990 C.2     1  UNL1        0.0470
      7  N         22.3780  -23.4280  -10.1360 N.pl3   1  UNL1       -0.3750
      8  C         23.8000  -23.0750   -9.9900 C.3     1  UNL1        0.1340
      9  C         24.5150  -23.2130  -11.3260 C.3     1  UNL1        0.0990
     10  S         23.9510  -21.9430  -12.4900 S.3     1  UNL1       -0.1260
     11  C         18.0530  -21.2610  -11.1640 C.2     1  UNL1        0.2520
     12  O         17.3710  -20.4550  -11.7880 O.2     1  UNL1       -0.2680
     13  N         17.5500  -22.0750  -10.1720 N.am    1  UNL1       -0.3530
     14  H         18.0910  -22.8690   -9.8630 H       1  UNL1        0.1630
     15  C         16.1410  -22.0850   -9.8470 C.3     1  UNL1        0.1610
     16  C         15.8890  -22.8700   -8.5860 C.2     1  UNL1       -0.0390
     17  C         16.0280  -24.2660   -8.5840 C.2     1  UNL1        0.0090
     18  C         15.8080  -25.0020   -7.4180 C.2     1  UNL1        0.0020
     19  C         15.4530  -24.3510   -6.2380 C.2     1  UNL1        0.0190
     20  C         15.3220  -22.9630   -6.2300 C.2     1  UNL1        0.0110
     21 BR         14.8490  -22.0760   -4.6280 Br      1  UNL1       -0.0510
     22  C         15.5400  -22.2210   -7.3920 C.2     1  UNL1        0.0270
     23  C         21.7520  -24.1720   -9.0330 C.3     1  UNL1        0.1610
     24  C         20.9670  -23.2590   -8.1090 C.2     1  UNL1       -0.0400
     25  C         19.6740  -23.6080   -7.6860 C.2     1  UNL1        0.0120
     26  C         18.9630  -22.7670   -6.8270 C.2     1  UNL1        0.0430
     27  C         19.5460  -21.5830   -6.3870 C.2     1  UNL1        0.1160
     28  F         18.8590  -20.7790   -5.5650 F       1  UNL1       -0.2060
     29  C         20.8270  -21.2230   -6.7880 C.2     1  UNL1        0.0430
     30  C         21.5380  -22.0610   -7.6450 C.2     1  UNL1        0.0120
@<TRIPOS>BOND
     1     3     2    1
     2     3     4    2
     3     2     1    2
     4    10     4    1
     5    10     9    1
     6     4     5    1
     7    12    11    2
     8     1    11    1
     9     1     6    1
    10     9     8    1
    11    11    13   am
    12     5     6    2
    13     5     7    1
    14    13    14    1
    15    13    15    1
    16     7     8    1
    17     7    23    1
    18    15    16    1
    19    23    24    1
    20    16    17    2
    21    16    22    1
    22    17    18    1
    23    24    25    2
    24    24    30    1
    25    25    26    1
    26    30    29    2
    27    18    19    2
    28    22    20    2
    29    26    27    2
    30    29    27    1
    31    27    28    1
    32    19    20    1
    33    20    21    1
