@<TRIPOS>MOLECULE
35452_out_ligand_01.pdbqt
 32 35 0 0 0
SMALL
GASTEIGER

@<TRIPOS>ATOM
      1  C         22.8120  -22.6110   -9.4120 C.2     1  UNL1        0.0170
      2  C         21.9610  -23.6370   -9.8500 C.2     1  UNL1        0.0170
      3  C         20.7500  -23.8920   -9.2000 C.2     1  UNL1        0.0180
      4  C         20.3730  -23.1290   -8.0900 C.2     1  UNL1        0.0320
      5  C         21.2050  -22.0920   -7.6510 C.2     1  UNL1        0.0180
      6  C         22.4170  -21.8410   -8.3070 C.2     1  UNL1        0.0170
      7  C         24.0710  -22.3710  -10.1120 C.ar    1  UNL1        0.1800
      8  O         24.4530  -21.0650  -10.2750 O.2     1  UNL1       -0.2940
      9  C         25.6500  -21.1390  -10.9300 C.ar    1  UNL1        0.0770
     10  C         26.3230  -19.8650  -11.2380 C.3     1  UNL1        0.0790
     11  C         25.9450  -22.4730  -11.1270 C.ar    1  UNL1        0.0780
     12  N         24.9160  -23.2450  -10.6250 N.ar    1  UNL1       -0.2250
     13  C         27.1210  -23.1090  -11.7670 C.3     1  UNL1        0.1760
     14  S         26.8080  -23.7400  -13.4480 S.O     1  UNL1        0.0550
     15  O         25.6920  -24.7440  -13.3850 O.2     1  UNL1       -0.2520
     16  C         26.1280  -22.2500  -14.2110 C.2     1  UNL1        0.0310
     17  C         24.7530  -22.1330  -14.4440 C.2     1  UNL1        0.0210
     18  C         24.2330  -20.9800  -15.0350 C.2     1  UNL1        0.0010
     19  C         25.0850  -19.9420  -15.4040 C.2     1  UNL1        0.0000
     20  C         26.4570  -20.0550  -15.1870 C.2     1  UNL1        0.0010
     21  C         26.9800  -21.2080  -14.5960 C.2     1  UNL1        0.0210
     22  C         19.0750  -23.4330   -7.4290 C.2     1  UNL1        0.2520
     23  O         18.4520  -24.4370   -7.7510 O.2     1  UNL1       -0.2680
     24  N         18.6750  -22.5520   -6.4440 N.am    1  UNL1       -0.3520
     25  H         19.3510  -21.8780   -6.1100 H       1  UNL1        0.1630
     26  C         17.4700  -22.7270   -5.6300 C.3     1  UNL1        0.0840
     27  C         17.6550  -22.1540   -4.2170 C.3     1  UNL1        0.0250
     28  C         16.5000  -22.3700   -3.2330 C.3     1  UNL1        0.0020
     29  C         15.6570  -23.6180   -3.4840 C.2     1  UNL1        0.0000
     30  C         14.7590  -23.5860   -4.7290 C.2     1  UNL1        0.0000
     31  C         14.8910  -22.3630   -5.6320 C.3     1  UNL1        0.0020
     32  C         16.2210  -22.2440   -6.3770 C.3     1  UNL1        0.0250
@<TRIPOS>BOND
     1    19    20    2
     2    19    18    1
     3    20    21    1
     4    18    17    2
     5    21    16    2
     6    17    16    1
     7    16    14    1
     8    14    15    2
     9    14    13    1
    10    13    11    1
    11    10     9    1
    12    11     9   ar
    13    11    12   ar
    14     9     8   ar
    15    12     7   ar
    16     8     7   ar
    17     7     1    1
    18     2     1    2
    19     2     3    1
    20     1     6    1
    21     3     4    2
    22     6     5    2
    23     4     5    1
    24     4    22    1
    25    23    22    2
    26    22    24   am
    27    24    25    1
    28    24    26    1
    29    32    31    1
    30    32    26    1
    31    31    30    1
    32    26    27    1
    33    30    29    2
    34    27    28    1
    35    29    28    1
