@<TRIPOS>MOLECULE
35472_out_ligand_01.pdbqt
 35 38 0 0 0
SMALL
GASTEIGER

@<TRIPOS>ATOM
      1  C         18.2810  -22.4390  -10.1170 C.2     1  UNL1        0.0320
      2  C         18.6440  -21.6600  -11.2230 C.2     1  UNL1        0.0190
      3  C         19.9690  -21.6560  -11.6780 C.2     1  UNL1        0.0300
      4  C         20.9440  -22.4250  -11.0400 C.2     1  UNL1        0.0360
      5  C         20.5710  -23.2180   -9.9470 C.2     1  UNL1        0.0300
      6  C         19.2490  -23.2290   -9.4910 C.2     1  UNL1        0.0190
      7  N         22.2900  -22.4790  -11.4400 N.am    1  UNL1       -0.3090
      8  C         23.3850  -21.8540  -10.8650 C.2     1  UNL1        0.3270
      9  O         23.3570  -21.2190   -9.8120 O.2     1  UNL1       -0.2460
     10  N         24.5880  -22.0850  -11.5750 N.am    1  UNL1       -0.2990
     11  C         25.8110  -21.6200  -10.9100 C.3     1  UNL1        0.1340
     12  C         24.6250  -22.1800  -13.0000 C.2     1  UNL1        0.0450
     13  C         27.1060  -22.3220  -11.3050 C.3     1  UNL1        0.0210
     14  C         26.8670  -23.8020  -11.5600 C.3     1  UNL1        0.0060
     15  C         26.4110  -24.0680  -12.9950 C.3     1  UNL1        0.0410
     16  C         25.4770  -23.0810  -13.6630 C.2     1  UNL1       -0.0310
     17  C         25.4240  -23.1410  -15.0740 C.2     1  UNL1        0.0090
     18  C         24.5720  -22.3190  -15.8100 C.2     1  UNL1        0.0010
     19  C         23.7480  -21.4190  -15.1520 C.2     1  UNL1        0.0020
     20  C         23.7750  -21.3510  -13.7590 C.2     1  UNL1        0.0300
     21  H         22.5150  -23.1080  -12.1980 H       1  UNL1        0.1700
     22  C         16.8870  -22.4720   -9.5940 C.2     1  UNL1        0.2510
     23  N         16.7300  -22.9670   -8.3200 N.am    1  UNL1       -0.3550
     24  H         17.4730  -23.5180   -7.9040 H       1  UNL1        0.1620
     25  O         15.9500  -22.1070  -10.2950 O.2     1  UNL1       -0.2680
     26  C         15.4150  -23.2280   -7.7650 C.3     1  UNL1        0.1530
     27  C         15.5120  -24.2170   -6.5880 C.3     1  UNL1        0.2920
     28  N         15.2060  -23.5790   -5.2740 N.3     1  UNL1        0.0900
     29  C         14.7090  -22.2160   -5.5000 C.3     1  UNL1        0.3100
     30  C         16.3870  -23.6270   -4.3640 C.3     1  UNL1        0.2220
     31  C         17.7680  -23.7680   -5.0590 C.3     1  UNL1        0.0360
     32  C         18.2860  -22.4300   -5.5740 C.3     1  UNL1        0.0020
     33  C         18.5210  -21.4420   -4.4310 C.3     1  UNL1        0.0000
     34  C         17.7660  -21.8110   -3.1530 C.3     1  UNL1        0.0020
     35  C         16.3760  -22.3520   -3.4680 C.3     1  UNL1        0.0360
@<TRIPOS>BOND
     1    18    19    2
     2    18    17    1
     3    19    20    1
     4    17    16    2
     5    20    12    2
     6    16    12    1
     7    16    15    1
     8    12    10    1
     9    15    14    1
    10    21     7    1
    11     3     2    1
    12     3     4    2
    13    10    11    1
    14    10     8   am
    15    14    13    1
    16     7     4    1
    17     7     8   am
    18    13    11    1
    19     2     1    2
    20     4     5    1
    21     8     9    2
    22    25    22    2
    23     1    22    1
    24     1     6    1
    25     5     6    2
    26    22    23   am
    27    23    24    1
    28    23    26    1
    29    26    27    1
    30    27    28    1
    31    32    31    1
    32    32    33    1
    33    29    28    1
    34    28    30    1
    35    31    30    1
    36    33    34    1
    37    30    35    1
    38    35    34    1
