@<TRIPOS>MOLECULE
35489_out_ligand_01.pdbqt
 33 37 0 0 0
SMALL
GASTEIGER

@<TRIPOS>ATOM
      1  C         23.1600  -22.5020  -11.6280 C.ar    1  UNL1        0.1500
      2  O         22.1030  -22.0610  -12.3740 O.2     1  UNL1       -0.3040
      3  C         21.0240  -21.9940  -11.5570 C.ar    1  UNL1        0.0880
      4  C         19.7580  -21.6000  -11.9740 C.2     1  UNL1        0.0410
      5  C         18.7610  -21.6040  -11.0040 C.2     1  UNL1        0.0400
      6  C         19.0420  -21.9600   -9.6810 C.2     1  UNL1        0.0790
      7  C         20.3450  -22.2990   -9.2530 C.2     1  UNL1        0.0180
      8  C         21.3570  -22.3640  -10.2570 C.ar    1  UNL1        0.0180
      9  C         22.7480  -22.7390  -10.3210 C.ar    1  UNL1       -0.0090
     10  C         23.6090  -23.2630   -9.2280 C.3     1  UNL1        0.0520
     11  C         20.5830  -22.5950   -7.7960 C.3     1  UNL1        0.1570
     12  C         19.3910  -22.2130   -6.9270 C.3     1  UNL1        0.0750
     13  C         18.0590  -22.5920   -7.5810 C.3     1  UNL1        0.0700
     14  C         17.8660  -24.1180   -7.7920 C.3     1  UNL1        0.0380
     15  C         17.1230  -24.7760   -6.6350 C.3     1  UNL1        0.0030
     16  C         15.7080  -24.2130   -6.4860 C.3     1  UNL1        0.0000
     17  C         15.5980  -22.7490   -6.9140 C.3     1  UNL1        0.0030
     18  C         16.9150  -22.0100   -6.7040 C.3     1  UNL1        0.0380
     19  O         17.9460  -21.9330   -8.8570 O.2     1  UNL1       -0.3390
     20  C         24.4530  -22.6360  -12.2790 C.2     1  UNL1        0.2760
     21  N         24.4680  -23.5810  -13.2790 N.am    1  UNL1       -0.3510
     22  H         23.5990  -24.0600  -13.4800 H       1  UNL1        0.1630
     23  O         25.4410  -21.9700  -11.9850 O.2     1  UNL1       -0.2650
     24  C         25.5990  -23.7900  -14.1480 C.3     1  UNL1        0.1620
     25  C         25.4290  -23.2370  -15.5520 C.2     1  UNL1       -0.0350
     26  C         24.5430  -23.8200  -16.4770 C.2     1  UNL1        0.0090
     27  C         24.3960  -23.3010  -17.7660 C.2     1  UNL1        0.0010
     28  C         25.1290  -22.1860  -18.1530 C.2     1  UNL1        0.0010
     29  C         26.0070  -21.5860  -17.2530 C.2     1  UNL1        0.0070
     30  C         26.1690  -22.0980  -15.9540 C.2     1  UNL1       -0.0540
     31  C         27.1200  -21.4040  -15.0160 C.3     1  UNL1        0.0490
     32  O         21.7150  -21.8600   -7.3310 O.3     1  UNL1       -0.3910
     33  H         21.5810  -21.6720   -6.3880 H       1  UNL1        0.2100
@<TRIPOS>BOND
     1    28    27    2
     2    28    29    1
     3    27    26    1
     4    29    30    2
     5    26    25    2
     6    30    25    1
     7    30    31    1
     8    25    24    1
     9    24    21    1
    10    22    21    1
    11    21    20   am
    12     2     1   ar
    13     2     3   ar
    14    20    23    2
    15    20     1    1
    16     4     3    2
    17     4     5    1
    18     1     9   ar
    19     3     8   ar
    20     5     6    2
    21     9     8   ar
    22     9    10    1
    23     8     7    2
    24     6     7    1
    25     6    19    1
    26     7    11    1
    27    19    13    1
    28    11    32    1
    29    11    12    1
    30    14    13    1
    31    14    15    1
    32    13    12    1
    33    13    18    1
    34    32    33    1
    35    17    18    1
    36    17    16    1
    37    15    16    1
