@<TRIPOS>MOLECULE
35488_out_ligand_01.pdbqt
 32 35 0 0 0
SMALL
GASTEIGER

@<TRIPOS>ATOM
      1  C         18.1910  -23.5970   -8.5870 C.2     1  UNL1       -0.0050
      2  C         19.6320  -23.8840   -8.9780 C.2     1  UNL1        0.0410
      3  C         20.3920  -24.9940   -8.2840 C.3     1  UNL1        0.0710
      4  N         20.3020  -23.2460   -9.8930 N.2     1  UNL1       -0.2330
      5  C         19.6560  -22.2710  -10.5900 C.2     1  UNL1        0.1680
      6  C         20.0740  -21.4350  -11.6120 C.2     1  UNL1        0.0980
      7  C         18.9270  -20.6720  -11.9090 C.2     1  UNL1        0.1600
      8  N         17.8790  -20.9650  -11.1440 N.2     1  UNL1       -0.1770
      9  N         18.3200  -21.9650  -10.3330 N.pl3   1  UNL1       -0.2190
     10  C         17.5850  -22.6410   -9.3380 C.2     1  UNL1        0.0430
     11  C         16.1490  -22.2020   -9.2080 C.3     1  UNL1        0.0710
     12  C         21.3890  -21.4040  -12.2310 C.2     1  UNL1        0.2570
     13  O         21.5870  -21.0250  -13.3810 O.2     1  UNL1       -0.2670
     14  N         22.4170  -21.8420  -11.4110 N.am    1  UNL1       -0.3520
     15  H         22.1710  -22.3570  -10.5790 H       1  UNL1        0.1630
     16  C         23.7840  -21.9980  -11.9110 C.3     1  UNL1        0.0840
     17  C         23.9220  -23.3740  -12.5820 C.3     1  UNL1        0.0250
     18  C         25.3370  -23.8620  -12.9070 C.3     1  UNL1        0.0020
     19  C         26.2200  -22.8890  -13.6870 C.3     1  UNL1        0.0000
     20  C         27.1210  -21.9950  -12.8240 C.3     1  UNL1        0.0000
     21  C         26.4930  -20.6690  -12.3950 C.3     1  UNL1        0.0000
     22  C         25.7980  -20.6710  -11.0320 C.3     1  UNL1        0.0020
     23  C         24.7810  -21.7800  -10.7620 C.3     1  UNL1        0.0250
     24  C         17.5420  -24.3950   -7.4790 C.3     1  UNL1        0.0820
     25  C         17.0660  -23.6140   -6.2630 C.2     1  UNL1       -0.0470
     26  C         15.7460  -23.6660   -5.7680 C.2     1  UNL1       -0.0550
     27  C         15.4090  -22.9060   -4.6340 C.2     1  UNL1        0.0080
     28  C         14.6690  -24.5020   -6.4000 C.3     1  UNL1        0.0490
     29  C         16.3630  -22.1310   -3.9720 C.2     1  UNL1        0.0070
     30  C         17.6750  -22.0860   -4.4370 C.2     1  UNL1       -0.0610
     31  C         18.7180  -21.2900   -3.7090 C.3     1  UNL1        0.0480
     32  C         18.0180  -22.8410   -5.5650 C.2     1  UNL1        0.0140
@<TRIPOS>BOND
     1    19    18    1
     2    19    20    1
     3    13    12    2
     4    18    17    1
     5    20    21    1
     6    17    16    1
     7    21    22    1
     8    12     6    1
     9    12    14   am
    10    16    14    1
    11    16    23    1
    12     7     6    1
    13     7     8    2
    14     6     5    2
    15    14    15    1
    16     8     9    1
    17    22    23    1
    18     5     9    1
    19     5     4    1
    20     9    10    1
    21     4     2    2
    22    10    11    1
    23    10     1    2
    24     2     1    1
    25     2     3    1
    26     1    24    1
    27    24    25    1
    28    28    26    1
    29    25    26    2
    30    25    32    1
    31    26    27    1
    32    32    30    2
    33    27    29    2
    34    30    29    1
    35    30    31    1
