@<TRIPOS>MOLECULE
35485_out_ligand_01.pdbqt
 35 38 0 0 0
SMALL
GASTEIGER

@<TRIPOS>ATOM
      1  C         18.7740  -23.3690   -9.5150 C.3     1  UNL1        0.1290
      2  C         17.8180  -22.6290  -10.4520 C.3     1  UNL1        0.1220
      3  C         18.4070  -21.3830  -11.0740 C.2     1  UNL1        0.2240
      4  O         17.7040  -20.4830  -11.5250 O.2     1  UNL1       -0.2730
      5  N         19.7690  -21.3210  -11.1720 N.am    1  UNL1       -0.3110
      6  C         20.6540  -22.2260  -10.6730 C.ar    1  UNL1        0.1450
      7  N         21.9580  -21.9920  -10.9940 N.ar    1  UNL1       -0.2060
      8  C         22.8230  -22.8090  -10.4950 C.ar    1  UNL1        0.1710
      9  N         22.5070  -23.8590   -9.6930 N.ar    1  UNL1       -0.3020
     10  C         21.2200  -24.1610   -9.3740 C.ar    1  UNL1        0.2580
     11  O         20.9160  -25.1510   -8.7220 O.2     1  UNL1       -0.2670
     12  C         20.2130  -23.2160   -9.8900 C.ar    1  UNL1        0.0700
     13  H         20.1500  -20.5380  -11.6920 H       1  UNL1        0.1700
     14  H         23.2370  -24.4730   -9.3630 H       1  UNL1        0.1710
     15  C         18.5520  -22.9260   -8.0610 C.2     1  UNL1        0.2310
     16  N         17.5360  -23.6010   -7.4010 N.am    1  UNL1       -0.3260
     17  H         17.0430  -24.3280   -7.9040 H       1  UNL1        0.1690
     18  O         19.2740  -22.0630   -7.5700 O.2     1  UNL1       -0.2720
     19  C         17.0900  -23.3990   -6.0760 C.2     1  UNL1        0.0370
     20  C         17.7610  -23.8560   -4.9440 C.2     1  UNL1        0.0290
     21  C         17.2480  -23.6020   -3.6680 C.2     1  UNL1        0.0050
     22  C         16.0590  -22.8880   -3.5110 C.2     1  UNL1        0.0370
     23  C         15.3770  -22.4250   -4.6340 C.2     1  UNL1        0.0700
     24  C         15.8980  -22.6810   -5.9080 C.2     1  UNL1        0.0660
     25  O         14.2070  -21.7130   -4.6300 O.2     1  UNL1       -0.3560
     26  C         13.6040  -21.4630   -5.8940 C.3     1  UNL1        0.2100
     27  S         24.5290  -22.6860  -10.7690 S.3     1  UNL1       -0.0870
     28  C         24.5420  -21.7370  -12.3170 C.3     1  UNL1        0.1210
     29  C         24.7660  -22.6360  -13.5080 C.2     1  UNL1       -0.0480
     30  C         25.1360  -23.9760  -13.3320 C.2     1  UNL1        0.0080
     31  C         25.3570  -24.7980  -14.4360 C.2     1  UNL1        0.0010
     32  C         25.2140  -24.2920  -15.7280 C.2     1  UNL1        0.0070
     33  C         24.8450  -22.9560  -15.9280 C.2     1  UNL1       -0.0610
     34  C         24.7080  -22.3940  -17.3110 C.3     1  UNL1        0.0480
     35  C         24.6300  -22.1340  -14.8130 C.2     1  UNL1        0.0140
@<TRIPOS>BOND
     1    34    33    1
     2    33    32    2
     3    33    35    1
     4    32    31    1
     5    35    29    2
     6    31    30    2
     7    29    30    1
     8    29    28    1
     9    28    27    1
    10    13     5    1
    11     4     3    2
    12     5     3   am
    13     5     6    1
    14     3     2    1
    15     7     6   ar
    16     7     8   ar
    17    27     8    1
    18     6    12   ar
    19     8     9   ar
    20     2     1    1
    21    12     1    1
    22    12    10   ar
    23     9    10   ar
    24     9    14    1
    25     1    15    1
    26    10    11    2
    27    15    18    2
    28    15    16   am
    29    17    16    1
    30    16    19    1
    31    19    24    2
    32    19    20    1
    33    24    23    1
    34    26    25    1
    35    20    21    2
    36    23    25    1
    37    23    22    2
    38    21    22    1
