@<TRIPOS>MOLECULE
35492_out_ligand_01.pdbqt
 35 38 0 0 0
SMALL
GASTEIGER

@<TRIPOS>ATOM
      1  C         21.1690  -21.9980  -11.1520 C.2     1  UNL1       -0.0190
      2  C         20.7470  -21.0260  -12.0610 C.2     1  UNL1        0.0130
      3  C         19.4020  -20.6520  -12.1120 C.2     1  UNL1        0.0090
      4  C         18.4540  -21.2320  -11.2540 C.2     1  UNL1       -0.0390
      5  C         17.0200  -20.7950  -11.3780 C.3     1  UNL1        0.0500
      6  C         18.8890  -22.2200  -10.3470 C.2     1  UNL1        0.0810
      7  C         20.2420  -22.5980  -10.2980 C.2     1  UNL1        0.0370
      8  C         22.5610  -22.3890  -11.1020 C.ar    1  UNL1        0.0470
      9  C         23.4440  -22.2830  -12.1660 C.ar    1  UNL1        0.1480
     10  N         24.6540  -22.8030  -11.6990 N.ar    1  UNL1       -0.1830
     11  N         23.1370  -21.7700  -13.4200 N.am    1  UNL1       -0.3110
     12  N         24.5960  -23.0590  -10.3600 N.ar    1  UNL1       -0.1670
     13  C         25.8440  -23.1200  -12.3820 C.2     1  UNL1        0.2460
     14  C         23.3290  -22.8440  -10.0080 C.ar    1  UNL1        0.0700
     15  C         25.7580  -23.0300  -13.8720 C.3     1  UNL1        0.1140
     16  O         26.8500  -23.4820  -11.7790 O.2     1  UNL1       -0.2710
     17  C         25.4560  -21.6100  -14.2860 C.3     1  UNL1        0.1120
     18  C         23.9740  -21.4150  -14.4340 C.2     1  UNL1        0.2230
     19  O         23.5050  -20.8910  -15.4440 O.2     1  UNL1       -0.2730
     20  H         22.1710  -21.5050  -13.5950 H       1  UNL1        0.1700
     21  C         22.8960  -23.0860   -8.5970 C.3     1  UNL1        0.0620
     22  C         22.5170  -21.8130   -7.8380 C.3     1  UNL1        0.0020
     23  C         21.1050  -21.8450   -7.2700 C.3     1  UNL1        0.0050
     24  S         17.7580  -23.0710   -9.2540 S.O2    1  UNL1        0.2460
     25  O         16.6400  -23.5410  -10.0390 O.2     1  UNL1       -0.2060
     26  O         18.5340  -23.9750   -8.4300 O.2     1  UNL1       -0.2060
     27  N         17.2850  -21.7960   -8.2230 N.pl3   1  UNL1       -0.1810
     28  H         18.1040  -21.1890   -8.1270 H       1  UNL1        0.1460
     29  C         16.8630  -22.2180   -6.9160 C.2     1  UNL1        0.0230
     30  C         15.6080  -22.8110   -6.7890 C.2     1  UNL1        0.0240
     31  C         15.1560  -23.2150   -5.5330 C.2     1  UNL1        0.0020
     32  C         15.9580  -23.0180   -4.4060 C.2     1  UNL1        0.0070
     33  C         17.2110  -22.3970   -4.5220 C.2     1  UNL1       -0.0600
     34  C         18.0860  -22.2220   -3.3140 C.3     1  UNL1        0.0480
     35  C         17.6620  -22.0020   -5.7880 C.2     1  UNL1        0.0310
@<TRIPOS>BOND
     1    19    18    2
     2    18    17    1
     3    18    11   am
     4    17    15    1
     5    15    13    1
     6    20    11    1
     7    11     9    1
     8    13    16    2
     9    13    10   am
    10     9    10   ar
    11     9     8   ar
    12     3     2    1
    13     3     4    2
    14     2     1    2
    15    10    12   ar
    16     5     4    1
    17     4     6    1
    18     1     8    1
    19     1     7    1
    20     8    14   ar
    21    12    14   ar
    22     6     7    2
    23     6    24    1
    24    25    24    2
    25    14    21    1
    26    24    26    2
    27    24    27    1
    28    21    22    1
    29    27    28    1
    30    27    29    1
    31    22    23    1
    32    29    30    2
    33    29    35    1
    34    30    31    1
    35    35    33    2
    36    31    32    2
    37    33    32    1
    38    33    34    1
