@<TRIPOS>MOLECULE
354_out_ligand_01.pdbqt
 37 39 0 0 0
SMALL
GASTEIGER

@<TRIPOS>ATOM
      1  C         19.8550  -23.3360   -9.6160 C.2     1  UNL1        0.0330
      2  C         19.2840  -22.5460  -10.6200 C.2     1  UNL1        0.0190
      3  C         17.9060  -22.3140  -10.6370 C.2     1  UNL1        0.0260
      4  C         17.0790  -22.8580   -9.6470 C.2     1  UNL1        0.0570
      5 CL         15.4010  -22.4750   -9.7510 Cl      1  UNL1       -0.0830
      6  C         17.6490  -23.6290   -8.6340 C.2     1  UNL1        0.1020
      7  C         19.0360  -23.8700   -8.6170 C.2     1  UNL1        0.0440
      8  C         21.3300  -23.5450   -9.6320 C.2     1  UNL1        0.2510
      9  N         22.0390  -22.8580  -10.5920 N.am    1  UNL1       -0.3530
     10  H         21.5970  -22.1090  -11.1040 H       1  UNL1        0.1630
     11  O         21.8450  -24.2810   -8.7990 O.2     1  UNL1       -0.2680
     12  C         23.4850  -22.8990  -10.6320 C.3     1  UNL1        0.1610
     13  C         23.9840  -22.7820  -12.0510 C.2     1  UNL1       -0.0400
     14  C         24.9680  -23.6550  -12.5390 C.2     1  UNL1        0.0100
     15  C         25.4160  -23.5520  -13.8570 C.2     1  UNL1        0.0250
     16  C         24.8680  -22.5780  -14.6960 C.2     1  UNL1        0.0740
     17  C         23.8890  -21.6990  -14.2260 C.2     1  UNL1        0.0250
     18  C         23.4440  -21.8100  -12.9080 C.2     1  UNL1        0.0100
     19  S         25.4320  -22.4280  -16.3690 S.O2    1  UNL1        0.2390
     20  O         25.0760  -23.6320  -17.0850 O.2     1  UNL1       -0.2060
     21  O         26.7750  -21.9000  -16.3540 O.2     1  UNL1       -0.2060
     22  N         24.4070  -21.2330  -16.9640 N.3     1  UNL1       -0.2250
     23  H         24.4280  -21.2590  -17.9850 H       1  UNL1        0.1360
     24  H         23.4580  -21.2980  -16.5990 H       1  UNL1        0.1360
     25  S         16.6700  -24.3540   -7.3400 S.O2    1  UNL1        0.2650
     26  O         17.5700  -25.1240   -6.5060 O.2     1  UNL1       -0.2000
     27  O         15.5180  -24.9910   -7.9360 O.2     1  UNL1       -0.2000
     28  N         16.1280  -23.0180   -6.4590 N.pl3   1  UNL1       -0.2790
     29  H         15.5860  -22.3770   -7.0470 H       1  UNL1        0.1790
     30  C         16.9870  -22.4120   -5.4800 C.2     1  UNL1        0.0660
     31  C         18.0550  -21.6040   -5.8770 C.2     1  UNL1        0.0550
     32  C         18.8700  -21.0020   -4.9190 C.2     1  UNL1        0.0360
     33 CL         20.1700  -19.9910   -5.4170 Cl      1  UNL1       -0.0840
     34  C         18.6430  -21.2110   -3.5590 C.2     1  UNL1        0.0260
     35  C         17.5970  -22.0410   -3.1530 C.2     1  UNL1        0.0280
     36  C         16.7770  -22.6440   -4.1090 C.2     1  UNL1        0.0610
     37 CL         15.5090  -23.6780   -3.5610 Cl      1  UNL1       -0.0820
@<TRIPOS>BOND
     1    23    22    1
     2    20    19    2
     3    22    24    1
     4    22    19    1
     5    19    21    2
     6    19    16    1
     7    16    17    2
     8    16    15    1
     9    17    18    1
    10    15    14    2
    11    18    13    2
    12    14    13    1
    13    13    12    1
    14    10     9    1
    15     3     2    1
    16     3     4    2
    17    12     9    1
    18     2     1    2
    19     9     8   am
    20     5     4    1
    21     4     6    1
    22     8     1    1
    23     8    11    2
    24     1     7    1
    25     6     7    2
    26     6    25    1
    27    27    25    2
    28    25    26    2
    29    25    28    1
    30    29    28    1
    31    28    30    1
    32    31    30    2
    33    31    32    1
    34    30    36    1
    35    33    32    1
    36    32    34    2
    37    36    37    1
    38    36    35    2
    39    34    35    1
