@<TRIPOS>MOLECULE
35509_out_ligand_01.pdbqt
 29 32 0 0 0
SMALL
GASTEIGER

@<TRIPOS>ATOM
      1  C         18.0720  -22.5250  -10.0010 C.2     1  UNL1       -0.0400
      2  C         18.4890  -21.7850  -11.1260 C.2     1  UNL1        0.0110
      3  C         19.8320  -21.7730  -11.5240 C.2     1  UNL1        0.0310
      4  C         20.7490  -22.5010  -10.7840 C.2     1  UNL1        0.0430
      5  C         20.3440  -23.2300   -9.6670 C.2     1  UNL1       -0.0290
      6  C         19.0180  -23.2500   -9.2610 C.2     1  UNL1        0.0180
      7  C         21.4920  -23.9470   -9.0360 C.2     1  UNL1        0.0610
      8  C         22.6690  -23.5100   -9.9160 C.2     1  UNL1        0.1370
      9  N         22.1350  -22.6370  -10.9790 N.am    1  UNL1       -0.3130
     10  C         22.8560  -22.0910  -12.0280 C.2     1  UNL1        0.2580
     11  O         22.4080  -21.4260  -12.9580 O.2     1  UNL1       -0.2670
     12  C         16.6300  -22.4990   -9.5590 C.3     1  UNL1        0.1610
     13  N         16.5500  -22.4050   -8.1210 N.am    1  UNL1       -0.3530
     14  C         16.0540  -23.4350   -7.3560 C.2     1  UNL1        0.2530
     15  O         15.5400  -24.4530   -7.7960 O.2     1  UNL1       -0.2680
     16  H         17.0360  -21.6400   -7.6730 H       1  UNL1        0.1630
     17  C         16.2310  -23.2540   -5.9000 C.2     1  UNL1        0.0490
     18  C         17.3710  -23.8180   -5.3080 C.2     1  UNL1        0.0180
     19  C         17.5790  -23.6870   -3.9340 C.2     1  UNL1        0.0010
     20  C         16.6510  -22.9990   -3.1530 C.2     1  UNL1        0.0010
     21  C         15.5150  -22.4380   -3.7430 C.2     1  UNL1        0.0200
     22  C         15.2980  -22.5660   -5.1200 C.2     1  UNL1        0.0260
     23 BR         13.7570  -21.7350   -5.8500 Br      1  UNL1       -0.0500
     24  C         24.3100  -22.3480  -12.0390 C.2     1  UNL1        0.0320
     25  C         24.8040  -23.4220  -12.7840 C.2     1  UNL1        0.0170
     26  C         26.1760  -23.6670  -12.8060 C.2     1  UNL1        0.0010
     27  C         27.0450  -22.8360  -12.0960 C.2     1  UNL1        0.0000
     28  C         26.5480  -21.7520  -11.3690 C.2     1  UNL1        0.0010
     29  C         25.1760  -21.5000  -11.3420 C.2     1  UNL1        0.0170
@<TRIPOS>BOND
     1    11    10    2
     2    26    25    1
     3    26    27    2
     4    25    24    2
     5    27    28    1
     6    24    10    1
     7    24    29    1
     8    10     9   am
     9     3     2    1
    10     3     4    2
    11    28    29    2
    12     2     1    2
    13     9     4    1
    14     9     8    1
    15     4     5    1
    16     1    12    1
    17     1     6    1
    18     8     7    2
    19     5     6    2
    20     5     7    1
    21    12    13    1
    22    13    16    1
    23    13    14   am
    24    15    14    2
    25    14    17    1
    26    17    18    2
    27    17    22    1
    28    23    22    1
    29    18    19    1
    30    22    21    2
    31    19    20    2
    32    21    20    1
