@<TRIPOS>MOLECULE
3550_out_ligand_01.pdbqt
 34 38 0 0 0
SMALL
GASTEIGER

@<TRIPOS>ATOM
      1  C         17.6140  -22.3790  -10.0870 C.2     1  UNL1        0.0800
      2  C         17.1030  -21.3510  -10.8800 C.2     1  UNL1        0.0250
      3  C         17.9530  -20.6800  -11.7560 C.2     1  UNL1        0.0030
      4  C         19.3020  -21.0410  -11.8340 C.2     1  UNL1        0.0160
      5  C         19.8210  -22.0860  -11.0520 C.2     1  UNL1        0.0210
      6  C         18.9570  -22.7650  -10.1830 C.2     1  UNL1        0.0410
      7  S         16.5490  -23.2450   -8.9570 S.O2    1  UNL1        0.2630
      8  O         17.3130  -24.3480   -8.4140 O.2     1  UNL1       -0.2000
      9  O         15.2810  -23.4690   -9.6180 O.2     1  UNL1       -0.2000
     10  N         16.3530  -22.1380   -7.6950 N.pl3   1  UNL1       -0.2800
     11  H         15.7220  -21.3880   -7.9700 H       1  UNL1        0.1790
     12  C         16.2460  -22.6170   -6.3490 C.2     1  UNL1        0.0530
     13  C         15.0370  -23.1940   -5.9390 C.2     1  UNL1        0.0310
     14  C         14.8740  -23.6480   -4.6310 C.2     1  UNL1        0.0020
     15  C         15.9190  -23.5320   -3.7220 C.2     1  UNL1        0.0010
     16  C         17.1310  -22.9660   -4.1250 C.2     1  UNL1        0.0140
     17  C         17.3230  -22.5010   -5.4400 C.2     1  UNL1        0.0010
     18  C         18.6260  -21.9150   -5.7990 C.2     1  UNL1       -0.0240
     19  C         19.0870  -20.7340   -5.1940 C.2     1  UNL1        0.0120
     20  C         20.3290  -20.1910   -5.5330 C.2     1  UNL1        0.0010
     21  C         21.1230  -20.8100   -6.4960 C.2     1  UNL1        0.0000
     22  C         20.6720  -21.9660   -7.1280 C.2     1  UNL1        0.0010
     23  C         19.4330  -22.5110   -6.7830 C.2     1  UNL1        0.0120
     24  C         21.2420  -22.4030  -11.1230 C.2     1  UNL1        0.2060
     25  N         22.1630  -21.9530  -11.9500 N.2     1  UNL1       -0.2040
     26  C         23.3030  -22.5470  -11.4690 C.2     1  UNL1        0.1620
     27  N         23.1150  -23.3620  -10.4200 N.4     1  UNL1       -0.1100
     28  O         21.7420  -23.2630  -10.1840 O.2     1  UNL1       -0.1910
     29  C         24.6450  -22.2910  -12.0480 C.3     1  UNL1        0.1500
     30  C         24.8810  -23.1020  -13.2680 C.2     1  UNL1        0.0870
     31  C         24.9450  -22.8160  -14.6120 C.2     1  UNL1        0.0570
     32  C         25.1870  -24.0630  -15.2120 C.2     1  UNL1        0.1490
     33  N         25.2690  -25.0450  -14.3130 N.2     1  UNL1       -0.1410
     34  O         25.0750  -24.4370  -13.0840 O.2     1  UNL1       -0.2180
@<TRIPOS>BOND
     1    32    31    1
     2    32    33    2
     3    31    30    2
     4    33    34    1
     5    30    34    1
     6    30    29    1
     7    29    26    1
     8    25    26    2
     9    25    24    2
    10     4     3    2
    11     4     5    1
    12     3     2    1
    13    26    27    1
    14    24     5    1
    15    24    28    1
    16     5     6    2
    17     2     1    2
    18    27    28    1
    19     6     1    1
    20     1     7    1
    21     9     7    2
    22     7     8    2
    23     7    10    1
    24    11    10    1
    25    10    12    1
    26    22    23    1
    27    22    21    2
    28    23    18    2
    29    21    20    1
    30    12    13    2
    31    12    17    1
    32    13    14    1
    33    18    17    1
    34    18    19    1
    35    20    19    2
    36    17    16    2
    37    14    15    2
    38    16    15    1
