@<TRIPOS>MOLECULE
35514_out_ligand_01.pdbqt
 29 32 0 0 0
SMALL
GASTEIGER

@<TRIPOS>ATOM
      1  C         20.8140  -22.0340  -11.2310 C.2     1  UNL1        0.0350
      2  C         20.3400  -22.9380  -10.2730 C.2     1  UNL1        0.0300
      3  C         19.0010  -22.9200   -9.8720 C.2     1  UNL1        0.0090
      4  C         18.1100  -21.9930  -10.4220 C.2     1  UNL1       -0.0580
      5  C         18.5840  -21.0870  -11.3770 C.2     1  UNL1        0.0090
      6  C         19.9240  -21.1100  -11.7800 C.2     1  UNL1        0.0300
      7  C         16.6530  -22.0000  -10.0190 C.3     1  UNL1        0.0460
      8  C         16.2160  -23.3100   -9.3570 C.3     1  UNL1        0.0830
      9  C         16.2080  -23.2190   -7.8670 C.ar    1  UNL1        0.1050
     10  N         15.3570  -22.5430   -7.1240 N.ar    1  UNL1       -0.2330
     11  C         15.7590  -22.7450   -5.8260 C.ar    1  UNL1        0.0850
     12  C         15.2140  -22.2560   -4.6300 C.2     1  UNL1        0.0340
     13  C         16.8810  -23.5630   -5.7750 C.ar    1  UNL1        0.0620
     14  C         15.8240  -22.6090   -3.4190 C.2     1  UNL1        0.0020
     15  C         16.9530  -23.4320   -3.4010 C.2     1  UNL1        0.0020
     16  C         17.5110  -23.9300   -4.5840 C.2     1  UNL1        0.0320
     17  N         17.1440  -23.8560   -7.0870 N.ar    1  UNL1       -0.3430
     18  H         17.9160  -24.4100   -7.4310 H       1  UNL1        0.1670
     19  N         22.1770  -22.1280  -11.5860 N.am    1  UNL1       -0.3230
     20  C         23.2660  -21.6980  -10.8500 C.2     1  UNL1        0.2560
     21  O         23.2510  -21.1990   -9.7320 O.2     1  UNL1       -0.2670
     22  H         22.3670  -22.6230  -12.4470 H       1  UNL1        0.1690
     23  C         24.5880  -21.9110  -11.5030 C.2     1  UNL1        0.0330
     24  C         25.6440  -21.0520  -11.1690 C.2     1  UNL1        0.0170
     25  C         26.8980  -21.2160  -11.7610 C.2     1  UNL1        0.0020
     26  C         27.0980  -22.2300  -12.6960 C.2     1  UNL1        0.0190
     27  C         26.0400  -23.0710  -13.0420 C.2     1  UNL1        0.0110
     28 BR         26.3110  -24.4320  -14.3280 Br      1  UNL1       -0.0510
     29  C         24.7840  -22.9170  -12.4570 C.2     1  UNL1        0.0360
@<TRIPOS>BOND
     1    28    27    1
     2    27    26    2
     3    27    29    1
     4    26    25    1
     5    29    23    2
     6    22    19    1
     7     6     5    1
     8     6     1    2
     9    25    24    2
    10    19     1    1
    11    19    20   am
    12    23    24    1
    13    23    20    1
    14     5     4    2
    15     1     2    1
    16    20    21    2
    17     4     7    1
    18     4     3    1
    19     2     3    2
    20     7     8    1
    21     8     9    1
    22     9    10   ar
    23     9    17   ar
    24    18    17    1
    25    10    11   ar
    26    17    13   ar
    27    11    13   ar
    28    11    12    1
    29    13    16    1
    30    12    14    2
    31    16    15    2
    32    14    15    1
