@<TRIPOS>MOLECULE
35519_out_ligand_01.pdbqt
 34 38 0 0 0
SMALL
GASTEIGER

@<TRIPOS>ATOM
      1  C         21.1400  -22.5090  -11.0710 C.2     1  UNL1       -0.0160
      2  C         20.8810  -21.5690  -12.0920 C.2     1  UNL1        0.0130
      3  C         19.6400  -20.9370  -12.2060 C.2     1  UNL1        0.0430
      4  C         18.6350  -21.2350  -11.3010 C.2     1  UNL1        0.1170
      5  F         17.4410  -20.6410  -11.4180 F       1  UNL1       -0.2060
      6  C         18.8570  -22.1250  -10.2640 C.2     1  UNL1        0.0680
      7  C         20.1170  -22.7320  -10.1200 C.2     1  UNL1        0.0900
      8  S         20.3070  -23.7580   -8.6630 S.O2    1  UNL1        0.2630
      9  O         21.3450  -23.2200   -7.8120 O.2     1  UNL1       -0.2000
     10  O         20.3560  -25.1300   -9.1200 O.2     1  UNL1       -0.2000
     11  N         18.8260  -23.5840   -7.8700 N.pl3   1  UNL1       -0.2800
     12  H         18.0340  -23.7080   -8.4950 H       1  UNL1        0.1790
     13  C         18.6970  -22.7270   -6.7330 C.2     1  UNL1        0.0490
     14  C         19.6540  -21.7330   -6.5040 C.2     1  UNL1        0.0310
     15  C         19.5180  -20.8480   -5.4390 C.2     1  UNL1        0.0030
     16  C         18.4230  -20.9530   -4.5880 C.2     1  UNL1        0.0080
     17  C         17.4610  -21.9580   -4.7820 C.2     1  UNL1       -0.0500
     18  C         17.6120  -22.8840   -5.8400 C.2     1  UNL1       -0.0250
     19  C         16.3120  -22.0400   -3.8020 C.3     1  UNL1        0.0390
     20  C         16.5870  -23.9840   -6.0360 C.3     1  UNL1        0.0410
     21  C         15.6530  -24.2020   -4.8450 C.3     1  UNL1        0.0050
     22  C         15.1430  -22.8700   -4.3240 C.3     1  UNL1        0.0050
     23  C         22.4750  -23.2370  -11.0110 C.3     1  UNL1        0.1760
     24  N         23.6300  -22.4480  -11.4100 N.am    1  UNL1       -0.2740
     25  C         24.1480  -21.4260  -10.6500 C.2     1  UNL1        0.2800
     26  C         25.2460  -20.8530  -11.4430 C.2     1  UNL1        0.1400
     27  O         23.7910  -21.0650   -9.5420 O.2     1  UNL1       -0.2650
     28  N         26.0500  -19.8390  -11.0780 N.2     1  UNL1       -0.2540
     29  C         25.3110  -21.5410  -12.6320 C.2     1  UNL1        0.0670
     30  C         26.9820  -19.5140  -12.0080 C.2     1  UNL1        0.1170
     31  C         27.1210  -20.1540  -13.2480 C.2     1  UNL1        0.0200
     32  C         26.2590  -21.2050  -13.5750 C.2     1  UNL1        0.0210
     33  C         24.2680  -22.5580  -12.6140 C.2     1  UNL1        0.2630
     34  O         24.0640  -23.3280  -13.5350 O.2     1  UNL1       -0.2670
@<TRIPOS>BOND
     1    32    31    2
     2    32    29    1
     3    34    33    2
     4    31    30    1
     5    29    33    1
     6    29    26    2
     7    33    24   am
     8     3     2    1
     9     3     4    2
    10     2     1    2
    11    30    28    2
    12    26    28    1
    13    26    25    1
    14     5     4    1
    15    24    23    1
    16    24    25   am
    17     4     6    1
    18     1    23    1
    19     1     7    1
    20    25    27    2
    21     6     7    2
    22     7     8    1
    23    10     8    2
    24     8    11    1
    25     8     9    2
    26    12    11    1
    27    11    13    1
    28    13    14    2
    29    13    18    1
    30    14    15    1
    31    20    18    1
    32    20    21    1
    33    18    17    2
    34    15    16    2
    35    21    22    1
    36    17    16    1
    37    17    19    1
    38    22    19    1
