@<TRIPOS>MOLECULE
35515_out_ligand_01.pdbqt
 34 37 0 0 0
SMALL
GASTEIGER

@<TRIPOS>ATOM
      1  C         21.8530  -22.2580  -11.2150 C.2     1  UNL1        0.0170
      2  C         20.8860  -21.5030  -11.8960 C.2     1  UNL1        0.0170
      3  C         19.5470  -21.5240  -11.4910 C.2     1  UNL1        0.0180
      4  C         19.1500  -22.3080  -10.4030 C.2     1  UNL1        0.0320
      5  C         20.1070  -23.0520   -9.7040 C.2     1  UNL1        0.0180
      6  C         21.4460  -23.0260  -10.1130 C.2     1  UNL1        0.0170
      7  C         23.2570  -22.2640  -11.6170 C.ar    1  UNL1        0.1800
      8  O         24.0690  -21.3150  -11.0520 O.2     1  UNL1       -0.2940
      9  C         25.2970  -21.5420  -11.6080 C.ar    1  UNL1        0.0770
     10  C         26.3920  -20.6500  -11.1950 C.3     1  UNL1        0.0790
     11  C         25.1780  -22.6040  -12.4820 C.ar    1  UNL1        0.0760
     12  N         23.8750  -23.0650  -12.4630 N.ar    1  UNL1       -0.2250
     13  C         26.1980  -23.2570  -13.3440 C.3     1  UNL1        0.1410
     14  S         25.5000  -24.3950  -14.5900 S.3     1  UNL1       -0.1240
     15  C         25.1900  -23.3320  -15.9940 C.2     1  UNL1        0.0000
     16  C         24.3410  -23.6640  -17.0560 C.2     1  UNL1        0.0180
     17  C         24.1640  -22.7800  -18.1260 C.2     1  UNL1        0.0010
     18  C         24.8460  -21.5640  -18.1530 C.2     1  UNL1        0.0000
     19  C         25.7070  -21.2300  -17.1100 C.2     1  UNL1        0.0010
     20  C         25.8790  -22.1110  -16.0390 C.2     1  UNL1        0.0180
     21  C         17.7140  -22.3040  -10.0120 C.2     1  UNL1        0.2510
     22  O         16.9400  -21.5020  -10.5210 O.2     1  UNL1       -0.2680
     23  N         17.3280  -23.2650   -9.0950 N.am    1  UNL1       -0.3530
     24  H         17.9540  -24.0440   -8.9350 H       1  UNL1        0.1630
     25  C         15.9200  -23.4600   -8.7440 C.3     1  UNL1        0.0810
     26  C         15.2760  -24.3960   -9.7690 C.3     1  UNL1        0.0320
     27  C         15.8280  -23.9970   -7.3030 C.3     1  UNL1        0.0290
     28  C         17.1860  -24.2500   -6.6340 C.3     1  UNL1        0.0400
     29  C         17.6540  -23.1670   -5.6970 C.2     1  UNL1       -0.0580
     30  C         17.2540  -23.1620   -4.3530 C.2     1  UNL1        0.0070
     31  C         17.6920  -22.1600   -3.4870 C.2     1  UNL1        0.0010
     32  C         18.5360  -21.1540   -3.9530 C.2     1  UNL1        0.0000
     33  C         18.9440  -21.1510   -5.2860 C.2     1  UNL1        0.0010
     34  C         18.5090  -22.1540   -6.1540 C.2     1  UNL1        0.0070
@<TRIPOS>BOND
     1    18    17    2
     2    18    19    1
     3    17    16    1
     4    19    20    2
     5    16    15    2
     6    20    15    1
     7    15    14    1
     8    14    13    1
     9    13    11    1
    10    11    12   ar
    11    11     9   ar
    12    12     7   ar
    13     2     3    1
    14     2     1    2
    15     7     1    1
    16     7     8   ar
    17     9    10    1
    18     9     8   ar
    19     3     4    2
    20     1     6    1
    21    22    21    2
    22     4    21    1
    23     4     5    1
    24     6     5    2
    25    21    23   am
    26    26    25    1
    27    23    24    1
    28    23    25    1
    29    25    27    1
    30    27    28    1
    31    28    29    1
    32    34    29    2
    33    34    33    1
    34    29    30    1
    35    33    32    2
    36    30    31    2
    37    32    31    1
