@<TRIPOS>MOLECULE
35523_out_ligand_01.pdbqt
 31 34 0 0 0
SMALL
GASTEIGER

@<TRIPOS>ATOM
      1  C         19.9750  -22.7360  -10.0160 C.2     1  UNL1        0.0850
      2  C         18.7660  -22.0510  -10.2040 C.2     1  UNL1        0.0670
      3  C         18.6210  -21.2100  -11.2970 C.2     1  UNL1        0.1170
      4  F         17.4640  -20.5590  -11.4770 F       1  UNL1       -0.2060
      5  C         19.6460  -21.0480  -12.2160 C.2     1  UNL1        0.0430
      6  C         20.8510  -21.7290  -12.0340 C.2     1  UNL1        0.0130
      7  C         21.0550  -22.5650  -10.9160 C.2     1  UNL1       -0.0170
      8  S         20.1080  -23.8940   -8.6600 S.O2    1  UNL1        0.2460
      9  O         20.9040  -23.2500   -7.6390 O.2     1  UNL1       -0.2060
     10  O         20.4770  -25.1640   -9.2480 O.2     1  UNL1       -0.2060
     11  N         18.5260  -23.9760   -8.0260 N.pl3   1  UNL1       -0.1810
     12  H         17.9310  -23.5020   -8.7100 H       1  UNL1        0.1460
     13  C         18.3680  -23.3910   -6.7280 C.2     1  UNL1        0.0230
     14  C         17.6960  -24.0850   -5.7220 C.2     1  UNL1        0.0240
     15  C         17.5160  -23.4880   -4.4750 C.2     1  UNL1        0.0020
     16  C         17.9930  -22.1960   -4.2420 C.2     1  UNL1        0.0070
     17  C         18.6360  -21.4800   -5.2600 C.2     1  UNL1       -0.0600
     18  C         19.1600  -20.0980   -5.0030 C.3     1  UNL1        0.0480
     19  C         18.8270  -22.0910   -6.5060 C.2     1  UNL1        0.0310
     20  C         22.3750  -23.3050  -10.7490 C.3     1  UNL1        0.1760
     21  N         23.5350  -22.5440  -11.1780 N.am    1  UNL1       -0.2740
     22  C         24.2120  -22.7760  -12.3430 C.2     1  UNL1        0.2630
     23  O         24.0250  -23.6250  -13.1910 O.2     1  UNL1       -0.2670
     24  C         25.2680  -21.7770  -12.4210 C.2     1  UNL1        0.0670
     25  C         26.2450  -21.5380  -13.3640 C.2     1  UNL1        0.0210
     26  C         25.1810  -20.9870  -11.3020 C.2     1  UNL1        0.1400
     27  C         27.1110  -20.4720  -13.1080 C.2     1  UNL1        0.0200
     28  C         26.9480  -19.7210  -11.9350 C.2     1  UNL1        0.1170
     29  N         25.9880  -19.9530  -11.0060 N.2     1  UNL1       -0.2540
     30  C         24.0570  -21.4760  -10.4910 C.2     1  UNL1        0.2800
     31  O         23.6900  -21.0230   -9.4230 O.2     1  UNL1       -0.2650
@<TRIPOS>BOND
     1    25    27    1
     2    25    24    2
     3    23    22    2
     4    27    28    2
     5    24    22    1
     6    24    26    1
     7    22    21   am
     8     5     6    2
     9     5     3    1
    10     6     7    1
    11    28    29    1
    12     4     3    1
    13    26    29    2
    14    26    30    1
    15     3     2    2
    16    21    20    1
    17    21    30   am
    18     7    20    1
    19     7     1    2
    20    30    31    2
    21     2     1    1
    22     1     8    1
    23    10     8    2
    24    12    11    1
    25     8    11    1
    26     8     9    2
    27    11    13    1
    28    13    19    2
    29    13    14    1
    30    19    17    1
    31    14    15    2
    32    17    18    1
    33    17    16    2
    34    15    16    1
