@<TRIPOS>MOLECULE
35522_out_ligand_01.pdbqt
 33 37 0 0 0
SMALL
GASTEIGER

@<TRIPOS>ATOM
      1  C         21.0960  -21.8760  -11.4450 C.2     1  UNL1        0.0320
      2  C         21.4530  -21.2450  -12.6430 C.2     1  UNL1        0.0170
      3  C         22.7230  -21.4500  -13.1860 C.2     1  UNL1        0.0100
      4  C         23.6530  -22.2820  -12.5420 C.2     1  UNL1       -0.0400
      5  C         23.2910  -22.8940  -11.3320 C.2     1  UNL1        0.0100
      6  C         22.0220  -22.6880  -10.7820 C.2     1  UNL1        0.0170
      7  C         25.0350  -22.4900  -13.1310 C.3     1  UNL1        0.1720
      8  N         25.3430  -21.5550  -14.2040 N.am    1  UNL1       -0.2910
      9  C         25.8640  -20.3060  -13.8760 C.2     1  UNL1        0.2760
     10  O         26.1170  -19.9720  -12.7210 O.2     1  UNL1       -0.2650
     11  C         26.0980  -19.4230  -14.9910 C.2     1  UNL1        0.1080
     12  C         26.5940  -18.1320  -15.0050 C.2     1  UNL1        0.0370
     13  N         25.8330  -19.7910  -16.2850 N.pl3   1  UNL1       -0.3140
     14  C         26.6300  -17.7060  -16.3510 C.2     1  UNL1        0.0200
     15  C         26.1580  -18.7480  -17.1200 C.2     1  UNL1        0.0980
     16  C         25.3210  -21.0580  -16.6010 C.2     1  UNL1        0.0860
     17  C         25.0610  -21.4520  -17.9160 C.2     1  UNL1        0.0350
     18  C         25.0760  -21.9400  -15.5450 C.2     1  UNL1        0.1600
     19  C         24.5610  -22.7270  -18.1450 C.2     1  UNL1        0.0220
     20  C         24.3480  -23.5500  -17.0540 C.2     1  UNL1        0.1190
     21  N         24.5960  -23.1860  -15.7750 N.2     1  UNL1       -0.2410
     22  C         19.7480  -21.6850  -10.8400 C.2     1  UNL1        0.2560
     23  N         19.4620  -22.5500   -9.7990 N.am    1  UNL1       -0.3230
     24  H         20.2230  -23.1260   -9.4650 H       1  UNL1        0.1690
     25  O         19.0390  -20.7810  -11.2650 O.2     1  UNL1       -0.2670
     26  C         18.2550  -22.6480   -9.0750 C.2     1  UNL1        0.0360
     27  C         17.0810  -22.8370   -9.8170 C.2     1  UNL1        0.0290
     28  C         15.8410  -22.9280   -9.1800 C.2     1  UNL1        0.0040
     29  C         15.7660  -22.8340   -7.7930 C.2     1  UNL1        0.0180
     30  C         16.9290  -22.6490   -7.0400 C.2     1  UNL1        0.0020
     31  C         18.1680  -22.5470   -7.6840 C.2     1  UNL1        0.0480
     32  S         16.8240  -22.5100   -5.2660 S.3     1  UNL1       -0.1340
     33  C         15.0190  -22.4560   -5.1070 C.3     1  UNL1        0.0950
@<TRIPOS>BOND
     1    19    17    1
     2    19    20    2
     3    17    16    2
     4    15    14    2
     5    15    13    1
     6    20    21    1
     7    16    13    1
     8    16    18    1
     9    14    12    1
    10    13    11    1
    11    21    18    2
    12    18     8    1
    13    12    11    2
    14    11     9    1
    15     8     9   am
    16     8     7    1
    17     9    10    2
    18     3     2    1
    19     3     4    2
    20     7     4    1
    21     2     1    2
    22     4     5    1
    23     1    22    1
    24     1     6    1
    25     5     6    2
    26    25    22    2
    27    22    23   am
    28    27    28    1
    29    27    26    2
    30    23    24    1
    31    23    26    1
    32    28    29    2
    33    26    31    1
    34    29    30    1
    35    31    30    2
    36    30    32    1
    37    32    33    1
