@<TRIPOS>MOLECULE
35524_out_ligand_01.pdbqt
 37 40 0 0 0
SMALL
GASTEIGER

@<TRIPOS>ATOM
      1  C         23.4030  -22.8700  -11.8440 C.3     1  UNL1        0.1700
      2  N         24.7380  -23.2820  -11.4270 N.3     1  UNL1       -0.3110
      3  H         24.8300  -23.8150  -10.5640 H       1  UNL1        0.1720
      4  S         25.8360  -23.7120  -12.6100 S.O2    1  UNL1        0.2590
      5  O         27.0610  -24.0660  -11.9310 O.2     1  UNL1       -0.2010
      6  O         25.1750  -24.6180  -13.5230 O.2     1  UNL1       -0.2010
      7  C         26.1120  -22.1610  -13.4310 C.2     1  UNL1        0.0800
      8  C         25.9650  -22.0720  -14.8200 C.2     1  UNL1        0.0360
      9  C         26.1870  -20.8380  -15.4120 C.2     1  UNL1       -0.0130
     10  C         26.1040  -20.4400  -16.8690 C.3     1  UNL1        0.0630
     11  C         26.5510  -19.7280  -14.6440 C.2     1  UNL1        0.0440
     12  C         26.4810  -18.9390  -16.8150 C.2     1  UNL1        0.2360
     13  C         27.1210  -21.1970  -17.7230 C.3     1  UNL1        0.0300
     14  C         24.6850  -20.5930  -17.4150 C.3     1  UNL1        0.0300
     15  N         26.7170  -18.6180  -15.4760 N.am    1  UNL1       -0.3210
     16  O         26.5540  -18.1840  -17.7720 O.2     1  UNL1       -0.2720
     17  C         27.0990  -17.3100  -15.0120 C.3     1  UNL1        0.1590
     18  C         26.7050  -19.8070  -13.2700 C.2     1  UNL1        0.0320
     19  C         26.4850  -21.0430  -12.6580 C.2     1  UNL1        0.0270
     20  C         22.4860  -22.7090  -10.6530 C.2     1  UNL1       -0.0400
     21  C         21.1030  -22.5620  -10.8390 C.2     1  UNL1        0.0100
     22  C         20.2490  -22.4260   -9.7420 C.2     1  UNL1        0.0170
     23  C         20.7640  -22.4510   -8.4410 C.2     1  UNL1        0.0320
     24  C         22.1440  -22.5810   -8.2470 C.2     1  UNL1        0.0170
     25  C         22.9990  -22.7110   -9.3480 C.2     1  UNL1        0.0100
     26  C         19.8100  -22.3330   -7.3030 C.2     1  UNL1        0.2520
     27  O         19.9420  -21.4310   -6.4840 O.2     1  UNL1       -0.2680
     28  N         18.7740  -23.2470   -7.2770 N.am    1  UNL1       -0.3520
     29  H         18.5890  -23.7770   -8.1200 H       1  UNL1        0.1630
     30  C         17.6700  -23.1150   -6.3220 C.3     1  UNL1        0.0840
     31  C         16.3350  -23.3760   -7.0520 C.3     1  UNL1        0.0250
     32  C         15.3140  -22.2510   -6.8860 C.3     1  UNL1        0.0020
     33  C         14.4280  -22.3640   -5.6470 C.3     1  UNL1        0.0000
     34  C         15.1620  -22.2990   -4.3100 C.3     1  UNL1        0.0000
     35  C         15.7350  -23.6410   -3.8430 C.3     1  UNL1        0.0000
     36  C         17.2600  -23.7010   -3.8360 C.3     1  UNL1        0.0020
     37  C         17.9140  -24.0910   -5.1620 C.3     1  UNL1        0.0250
@<TRIPOS>BOND
     1    16    12    2
     2    13    10    1
     3    14    10    1
     4    10    12    1
     5    10     9    1
     6    12    15   am
     7    15    17    1
     8    15    11    1
     9     9     8    1
    10     9    11    2
    11     8     7    2
    12    11    18    1
    13     6     4    2
    14     7    19    1
    15     7     4    1
    16    18    19    2
    17     4     5    2
    18     4     2    1
    19     1     2    1
    20     1    20    1
    21     2     3    1
    22    21    20    2
    23    21    22    1
    24    20    25    1
    25    22    23    2
    26    25    24    2
    27    23    24    1
    28    23    26    1
    29    29    28    1
    30    26    28   am
    31    26    27    2
    32    28    30    1
    33    31    32    1
    34    31    30    1
    35    32    33    1
    36    30    37    1
    37    33    34    1
    38    37    36    1
    39    34    35    1
    40    35    36    1
