@<TRIPOS>MOLECULE
35546_out_ligand_01.pdbqt
 34 38 0 0 0
SMALL
GASTEIGER

@<TRIPOS>ATOM
      1  C         22.4850  -22.9040  -10.6850 C.ar    1  UNL1        0.0620
      2  C         22.7290  -22.1290  -11.8070 C.ar    1  UNL1        0.1020
      3  S         21.2820  -21.3770  -12.3490 S.2     1  UNL1       -0.0620
      4  C         20.3610  -22.0740  -11.1030 C.ar    1  UNL1        0.1110
      5  N         19.0420  -21.8160  -11.0080 N.2     1  UNL1       -0.2450
      6  C         18.4170  -22.4320   -9.9780 C.2     1  UNL1        0.0450
      7  C         19.0440  -23.2860   -9.0700 C.2     1  UNL1       -0.0040
      8  C         20.4200  -23.5100   -9.2070 C.2     1  UNL1        0.0270
      9  C         21.1140  -22.8850  -10.2650 C.ar    1  UNL1        0.0280
     10  C         18.2860  -23.8930   -7.9120 C.3     1  UNL1        0.3130
     11  N         16.8350  -23.9030   -8.1220 N.3     1  UNL1        0.0970
     12  C         16.3610  -22.5730   -8.5090 C.3     1  UNL1        0.2790
     13  C         16.9300  -22.2010   -9.8810 C.3     1  UNL1        0.0900
     14  C         24.0080  -21.9100  -12.4900 C.2     1  UNL1        0.2650
     15  O         25.0650  -22.3200  -12.0140 O.2     1  UNL1       -0.2670
     16  N         23.9150  -21.2170  -13.6880 N.am    1  UNL1       -0.3220
     17  H         22.9760  -20.9420  -13.9530 H       1  UNL1        0.1690
     18  C         24.9480  -20.8500  -14.5740 C.2     1  UNL1        0.0360
     19  C         25.4730  -21.6910  -15.5580 C.2     1  UNL1        0.0290
     20  C         26.5020  -21.2490  -16.3990 C.2     1  UNL1        0.0040
     21  C         27.0140  -19.9600  -16.2620 C.2     1  UNL1        0.0240
     22  C         26.4940  -19.1190  -15.2830 C.2     1  UNL1        0.0360
     23 CL         27.1210  -17.5260  -15.1060 Cl      1  UNL1       -0.0840
     24  C         25.4680  -19.5560  -14.4430 C.2     1  UNL1        0.0530
     25  N         23.4460  -23.6160  -10.0510 N.pl3   1  UNL1       -0.3970
     26  H         23.5800  -24.6050  -10.2850 H       1  UNL1        0.1560
     27  H         24.2680  -23.1840   -9.6430 H       1  UNL1        0.1560
     28  C         16.0880  -24.5020   -7.0080 C.3     1  UNL1        0.3110
     29  C         16.1680  -23.8010   -5.6680 C.2     1  UNL1       -0.0300
     30  C         15.0510  -23.1360   -5.1390 C.2     1  UNL1        0.0090
     31  C         15.1280  -22.4890   -3.9040 C.2     1  UNL1        0.0010
     32  C         16.3190  -22.5020   -3.1810 C.2     1  UNL1        0.0000
     33  C         17.4340  -23.1640   -3.6920 C.2     1  UNL1        0.0010
     34  C         17.3590  -23.8110   -4.9260 C.2     1  UNL1        0.0090
@<TRIPOS>BOND
     1    20    21    2
     2    20    19    1
     3    21    22    1
     4    19    18    2
     5    22    23    1
     6    22    24    2
     7    18    24    1
     8    18    16    1
     9    17    16    1
    10    16    14   am
    11    14    15    2
    12    14     2    1
    13     3     2   ar
    14     3     4   ar
    15     2     1   ar
    16     4     5    2
    17     4     9   ar
    18     5     6    1
    19     1     9   ar
    20     1    25    1
    21    26    25    1
    22     9     8    2
    23    25    27    1
    24     6    13    1
    25     6     7    2
    26    13    12    1
    27     8     7    1
    28     7    10    1
    29    12    11    1
    30    11    10    1
    31    11    28    1
    32    28    29    1
    33    29    30    2
    34    29    34    1
    35    30    31    1
    36    34    33    2
    37    31    32    2
    38    33    32    1
