@<TRIPOS>MOLECULE
35552_out_ligand_01.pdbqt
 34 37 0 0 0
SMALL
GASTEIGER

@<TRIPOS>ATOM
      1  C         21.3670  -22.1050  -11.6450 C.2     1  UNL1        0.0170
      2  C         20.3590  -21.2310  -12.0840 C.2     1  UNL1        0.0170
      3  C         19.1030  -21.2220  -11.4740 C.2     1  UNL1        0.0180
      4  C         18.8260  -22.0980  -10.4190 C.2     1  UNL1        0.0320
      5  C         19.8300  -22.9600   -9.9570 C.2     1  UNL1        0.0180
      6  C         21.0900  -22.9660  -10.5720 C.2     1  UNL1        0.0170
      7  C         22.6660  -22.0860  -12.3110 C.ar    1  UNL1        0.1800
      8  N         23.0860  -21.2920  -13.2740 N.ar    1  UNL1       -0.2250
      9  C         24.3650  -21.7280  -13.5510 C.ar    1  UNL1        0.0780
     10  C         24.6850  -22.7680  -12.7030 C.ar    1  UNL1        0.0770
     11  O         23.5950  -23.0160  -11.9130 O.2     1  UNL1       -0.2940
     12  C         25.8710  -23.6200  -12.4950 C.3     1  UNL1        0.0790
     13  C         25.1620  -21.0850  -14.6200 C.3     1  UNL1        0.1760
     14  S         26.6220  -20.2140  -13.9590 S.O     1  UNL1        0.0550
     15  O         26.2180  -19.6160  -12.6400 O.2     1  UNL1       -0.2520
     16  C         26.6570  -18.8380  -15.1270 C.2     1  UNL1        0.0310
     17  C         26.2560  -19.0040  -16.4540 C.2     1  UNL1        0.0210
     18  C         26.2850  -17.9230  -17.3380 C.2     1  UNL1        0.0080
     19  C         26.7200  -16.6640  -16.9070 C.2     1  UNL1       -0.0620
     20  C         26.7310  -15.4920  -17.8460 C.3     1  UNL1        0.0480
     21  C         27.1140  -16.5000  -15.5760 C.2     1  UNL1        0.0080
     22  C         27.0850  -17.5810  -14.6900 C.2     1  UNL1        0.0210
     23  C         17.4690  -22.0470   -9.8020 C.2     1  UNL1        0.2510
     24  O         16.5200  -21.6280  -10.4510 O.2     1  UNL1       -0.2680
     25  N         17.3620  -22.5260   -8.5140 N.am    1  UNL1       -0.3530
     26  H         18.1260  -23.0470   -8.1010 H       1  UNL1        0.1630
     27  C         16.0980  -22.5260   -7.8000 C.3     1  UNL1        0.1640
     28  C         16.2470  -22.6010   -6.3020 C.2     1  UNL1       -0.0020
     29  C         17.4470  -22.9570   -5.6560 C.2     1  UNL1        0.0120
     30  C         17.5080  -23.0280   -4.2610 C.2     1  UNL1        0.0010
     31  C         16.3810  -22.7500   -3.4920 C.2     1  UNL1        0.0030
     32  C         15.1800  -22.4090   -4.1190 C.2     1  UNL1        0.0430
     33  C         15.1260  -22.3420   -5.5070 C.2     1  UNL1        0.1240
     34  F         13.9570  -22.0320   -6.0890 F       1  UNL1       -0.2050
@<TRIPOS>BOND
     1    20    19    1
     2    18    19    2
     3    18    17    1
     4    19    21    1
     5    17    16    2
     6    21    22    2
     7    16    22    1
     8    16    14    1
     9    13    14    1
    10    13     9    1
    11    14    15    2
    12     9     8   ar
    13     9    10   ar
    14     8     7   ar
    15    10    12    1
    16    10    11   ar
    17     7    11   ar
    18     7     1    1
    19     2     1    2
    20     2     3    1
    21     1     6    1
    22     3     4    2
    23     6     5    2
    24    24    23    2
    25     4     5    1
    26     4    23    1
    27    23    25   am
    28    25    26    1
    29    25    27    1
    30    27    28    1
    31    28    29    2
    32    28    33    1
    33    34    33    1
    34    29    30    1
    35    33    32    2
    36    30    31    2
    37    32    31    1
