@<TRIPOS>MOLECULE
35569_out_ligand_01.pdbqt
 30 33 0 0 0
SMALL
GASTEIGER

@<TRIPOS>ATOM
      1  N         20.0130  -23.6980   -9.4180 N.pl3   1  UNL1       -0.3530
      2  C         18.8730  -23.9450   -8.6960 C.2     1  UNL1        0.1100
      3  C         17.8940  -23.1020   -9.1610 C.2     1  UNL1        0.0290
      4  C         18.4480  -22.3060  -10.2020 C.2     1  UNL1        0.0090
      5  C         17.9450  -21.2960  -11.0510 C.2     1  UNL1        0.0150
      6  C         18.7890  -20.6950  -11.9920 C.2     1  UNL1        0.0010
      7  C         20.1190  -21.0890  -12.1010 C.2     1  UNL1        0.0020
      8  C         20.6420  -22.0910  -11.2780 C.2     1  UNL1        0.0300
      9  C         19.7890  -22.6880  -10.3340 C.2     1  UNL1        0.0450
     10  C         21.2750  -24.3870   -9.2040 C.3     1  UNL1        0.1480
     11  C         22.3740  -23.4990   -8.6160 C.3     1  UNL1        0.1430
     12  N         23.4920  -23.3130   -9.5260 N.am    1  UNL1       -0.3550
     13  C         23.8700  -22.0640   -9.9710 C.2     1  UNL1        0.2540
     14  O         23.4110  -21.0270   -9.5020 O.2     1  UNL1       -0.2680
     15  H         23.9090  -24.1320   -9.9550 H       1  UNL1        0.1620
     16  C         24.8820  -21.9990  -11.0630 C.2     1  UNL1        0.0700
     17  C         25.9460  -21.0940  -10.9320 C.2     1  UNL1        0.0200
     18  C         26.9180  -20.9870  -11.9320 C.2     1  UNL1        0.0010
     19  C         26.8340  -21.7830  -13.0730 C.2     1  UNL1        0.0030
     20  C         25.7800  -22.6850  -13.2160 C.2     1  UNL1        0.0430
     21  C         24.8140  -22.7870  -12.2150 C.2     1  UNL1        0.1320
     22  F         23.8150  -23.6660  -12.3970 F       1  UNL1       -0.2050
     23  S         16.2550  -23.0470   -8.5620 S.3     1  UNL1       -0.1230
     24  C         16.3670  -24.3020   -7.2520 C.3     1  UNL1        0.1180
     25  C         16.3410  -23.6770   -5.8800 C.2     1  UNL1       -0.0490
     26  C         17.4630  -23.7530   -5.0400 C.2     1  UNL1        0.0080
     27  C         17.4340  -23.1800   -3.7670 C.2     1  UNL1        0.0010
     28  C         16.2850  -22.5340   -3.3180 C.2     1  UNL1        0.0000
     29  C         15.1610  -22.4610   -4.1390 C.2     1  UNL1        0.0010
     30  C         15.1870  -23.0310   -5.4120 C.2     1  UNL1        0.0080
@<TRIPOS>BOND
     1    20    19    2
     2    20    21    1
     3    19    18    1
     4    22    21    1
     5    21    16    2
     6     7     6    2
     7     7     8    1
     8     6     5    1
     9    18    17    2
    10     8     9    2
    11    16    17    1
    12    16    13    1
    13     5     4    2
    14     9     4    1
    15     9     1    1
    16     4     3    1
    17    13    12   am
    18    13    14    2
    19    15    12    1
    20    12    11    1
    21     1    10    1
    22     1     2    1
    23    10    11    1
    24     3     2    2
    25     3    23    1
    26    23    24    1
    27    24    25    1
    28    25    30    2
    29    25    26    1
    30    30    29    1
    31    26    27    2
    32    29    28    2
    33    27    28    1
