@<TRIPOS>MOLECULE
35575_out_ligand_01.pdbqt
 32 35 0 0 0
SMALL
GASTEIGER

@<TRIPOS>ATOM
      1  C         18.6410  -22.6540  -10.0240 C.2     1  UNL1        0.0320
      2  C         19.7020  -23.3590   -9.4480 C.2     1  UNL1        0.0190
      3  C         21.0160  -23.1500   -9.8860 C.2     1  UNL1        0.0300
      4  C         21.2850  -22.2220  -10.8940 C.2     1  UNL1        0.0360
      5  C         20.2210  -21.5110  -11.4640 C.2     1  UNL1        0.0300
      6  C         18.9060  -21.7190  -11.0290 C.2     1  UNL1        0.0190
      7  N         22.5740  -21.9650  -11.4000 N.am    1  UNL1       -0.3090
      8  C         23.7080  -21.6140  -10.6930 C.2     1  UNL1        0.3270
      9  O         23.7180  -21.3110   -9.5030 O.2     1  UNL1       -0.2460
     10  N         24.8610  -21.5150  -11.4860 N.am    1  UNL1       -0.2960
     11  C         25.9290  -20.6310  -11.0090 C.3     1  UNL1        0.1440
     12  C         25.1720  -22.3200  -12.6350 C.2     1  UNL1        0.0740
     13  C         26.3300  -19.6270  -12.0740 C.3     1  UNL1        0.1010
     14  S         27.1210  -20.4500  -13.4810 S.3     1  UNL1       -0.1060
     15  C         26.1520  -21.9460  -13.5720 C.2     1  UNL1        0.1200
     16  N         26.4630  -22.7000  -14.6590 N.2     1  UNL1       -0.2520
     17  C         25.8180  -23.8710  -14.8260 C.2     1  UNL1        0.1180
     18  C         24.8670  -24.3430  -13.9460 C.2     1  UNL1        0.0220
     19  C         24.5500  -23.5620  -12.8390 C.2     1  UNL1        0.0340
     20  H         22.6540  -21.8590  -12.4010 H       1  UNL1        0.1700
     21  C         17.2620  -22.9120   -9.5240 C.2     1  UNL1        0.2510
     22  O         16.3010  -22.3790  -10.0690 O.2     1  UNL1       -0.2680
     23  N         17.1540  -23.7310   -8.4210 N.am    1  UNL1       -0.3530
     24  H         17.9840  -23.9320   -7.8820 H       1  UNL1        0.1630
     25  C         15.8850  -23.9360   -7.7590 C.3     1  UNL1        0.1610
     26  C         15.9570  -23.4970   -6.3190 C.2     1  UNL1       -0.0380
     27  C         14.9780  -22.6400   -5.7900 C.2     1  UNL1        0.0090
     28  C         15.0490  -22.2090   -4.4640 C.2     1  UNL1        0.0040
     29  C         16.1020  -22.6260   -3.6530 C.2     1  UNL1        0.0420
     30  C         17.0760  -23.4660   -4.1780 C.2     1  UNL1        0.1170
     31  F         18.0930  -23.8620   -3.4010 F       1  UNL1       -0.2060
     32  C         17.0160  -23.9040   -5.4970 C.2     1  UNL1        0.0510
@<TRIPOS>BOND
     1    17    16    2
     2    17    18    1
     3    16    15    1
     4    18    19    2
     5    15    14    1
     6    15    12    2
     7    14    13    1
     8    19    12    1
     9    12    10    1
    10    20     7    1
    11    13    11    1
    12    10    11    1
    13    10     8   am
    14     5     6    1
    15     5     4    2
    16     7     4    1
    17     7     8   am
    18     6     1    2
    19     4     3    1
    20     8     9    2
    21    22    21    2
    22     1    21    1
    23     1     2    1
    24     3     2    2
    25    21    23   am
    26    23    24    1
    27    23    25    1
    28    25    26    1
    29    26    27    2
    30    26    32    1
    31    27    28    1
    32    32    30    2
    33    28    29    2
    34    30    29    1
    35    30    31    1
