@<TRIPOS>MOLECULE
35594_out_ligand_01.pdbqt
 33 36 0 0 0
SMALL
GASTEIGER

@<TRIPOS>ATOM
      1  C         19.3400  -22.9430   -9.2360 C.2     1  UNL1       -0.0160
      2  C         18.0480  -22.5740   -9.6640 C.2     1  UNL1        0.0130
      3  C         17.8630  -21.7270  -10.7600 C.2     1  UNL1        0.0430
      4  C         18.9650  -21.2300  -11.4370 C.2     1  UNL1        0.1170
      5  F         18.7840  -20.4230  -12.4910 F       1  UNL1       -0.2060
      6  C         20.2520  -21.5360  -11.0250 C.2     1  UNL1        0.0680
      7  C         20.4420  -22.3690   -9.9130 C.2     1  UNL1        0.0900
      8  S         22.1170  -22.6130   -9.3420 S.O2    1  UNL1        0.2630
      9  O         22.3910  -24.0260   -9.4670 O.2     1  UNL1       -0.2000
     10  O         22.2850  -21.9090   -8.0890 O.2     1  UNL1       -0.2000
     11  N         23.0750  -21.8510  -10.4930 N.pl3   1  UNL1       -0.2810
     12  H         22.5700  -21.1050  -10.9690 H       1  UNL1        0.1790
     13  C         24.1770  -22.4710  -11.1520 C.2     1  UNL1        0.0450
     14  C         25.3560  -22.6170  -10.4080 C.2     1  UNL1        0.0300
     15  C         26.4690  -23.2700  -10.9440 C.2     1  UNL1        0.0050
     16  C         26.4090  -23.8080  -12.2270 C.2     1  UNL1        0.0360
     17  C         25.2210  -23.6910  -12.9600 C.2     1  UNL1        0.1050
     18  C         24.1030  -23.0340  -12.4250 C.2     1  UNL1        0.0660
     19  N         25.1410  -24.2810  -14.3020 N.pl3   1  UNL1       -0.1160
     20  O         25.1610  -25.5170  -14.3880 O.2     1  UNL1       -0.5320
     21  O         25.0650  -23.5070  -15.2670 O.2     1  UNL1       -0.5320
     22  C         19.5190  -23.8930   -8.0590 C.3     1  UNL1        0.1760
     23  N         18.6970  -23.5760   -6.9050 N.am    1  UNL1       -0.2740
     24  C         17.7090  -24.3980   -6.4230 C.2     1  UNL1        0.2800
     25  C         17.1720  -23.7260   -5.2310 C.2     1  UNL1        0.1400
     26  O         17.3410  -25.4670   -6.8730 O.2     1  UNL1       -0.2650
     27  N         16.1760  -24.1680   -4.4430 N.2     1  UNL1       -0.2540
     28  C         17.8700  -22.5550   -5.0580 C.2     1  UNL1        0.0670
     29  C         15.8860  -23.3430   -3.4070 C.2     1  UNL1        0.1170
     30  C         16.5440  -22.1320   -3.1530 C.2     1  UNL1        0.0200
     31  C         17.5720  -21.7190   -4.0050 C.2     1  UNL1        0.0210
     32  C         18.8520  -22.4610   -6.1290 C.2     1  UNL1        0.2630
     33  O         19.6270  -21.5330   -6.2560 O.2     1  UNL1       -0.2670
@<TRIPOS>BOND
     1    21    19    2
     2    20    19    2
     3    19    17    1
     4    17    18    1
     5    17    16    2
     6     5     4    1
     7    18    13    2
     8    16    15    1
     9     4     6    2
    10     4     3    1
    11    13    11    1
    12    13    14    1
    13     6     7    1
    14    12    11    1
    15    15    14    2
    16     3     2    2
    17    11     8    1
    18     7     8    1
    19     7     1    2
    20     2     1    1
    21     9     8    2
    22     8    10    2
    23     1    22    1
    24    22    23    1
    25    23    24   am
    26    23    32   am
    27    26    24    2
    28    24    25    1
    29    33    32    2
    30    32    28    1
    31    25    28    2
    32    25    27    1
    33    28    31    1
    34    27    29    2
    35    31    30    2
    36    29    30    1
