@<TRIPOS>MOLECULE
35595_out_ligand_01.pdbqt
 28 31 0 0 0
SMALL
GASTEIGER

@<TRIPOS>ATOM
      1  C         18.1240  -22.8560   -9.0770 C.3     1  UNL1        0.1690
      2  C         19.5800  -22.4990   -8.7710 C.3     1  UNL1        0.0770
      3  C         20.2800  -22.2100  -10.0690 C.2     1  UNL1       -0.0380
      4  C         21.6490  -22.4700  -10.2350 C.2     1  UNL1        0.0250
      5  C         22.2740  -22.1780  -11.4560 C.2     1  UNL1        0.0320
      6  C         21.5270  -21.6400  -12.5110 C.2     1  UNL1        0.0180
      7  C         20.1690  -21.3600  -12.3410 C.2     1  UNL1        0.0190
      8  C         19.5450  -21.6410  -11.1190 C.2     1  UNL1        0.0450
      9  C         18.1070  -21.3030  -10.9390 C.2     1  UNL1        0.2940
     10  O         17.5090  -20.6150  -11.7520 O.2     1  UNL1       -0.2590
     11  O         17.5130  -21.7710   -9.8120 O.3     1  UNL1       -0.3070
     12  C         23.7180  -22.4560  -11.6840 C.2     1  UNL1        0.2520
     13  O         24.4290  -22.7900  -10.7460 O.2     1  UNL1       -0.2680
     14  N         24.1630  -22.3370  -12.9840 N.am    1  UNL1       -0.3520
     15  H         23.5150  -22.0960  -13.7200 H       1  UNL1        0.1630
     16  C         25.5710  -22.4970  -13.3290 C.3     1  UNL1        0.0840
     17  C         25.8450  -23.9220  -13.8400 C.3     1  UNL1        0.0250
     18  C         25.7190  -24.0150  -15.3570 C.3     1  UNL1        0.0020
     19  C         26.7200  -23.1030  -16.0670 C.3     1  UNL1        0.0000
     20  C         27.1210  -21.8770  -15.2430 C.3     1  UNL1        0.0020
     21  C         25.9860  -21.4120  -14.3390 C.3     1  UNL1        0.0250
     22  C         17.2430  -23.1490   -7.8750 C.2     1  UNL1       -0.0290
     23  C         17.6770  -24.1100   -6.9440 C.2     1  UNL1        0.0100
     24  C         16.9210  -24.4130   -5.8080 C.2     1  UNL1        0.0070
     25  C         15.7160  -23.7540   -5.5660 C.2     1  UNL1       -0.0620
     26  C         14.8820  -24.0980   -4.3670 C.3     1  UNL1        0.0480
     27  C         15.2670  -22.8060   -6.4900 C.2     1  UNL1        0.0070
     28  C         16.0230  -22.5030   -7.6280 C.2     1  UNL1        0.0100
@<TRIPOS>BOND
     1    19    18    1
     2    19    20    1
     3    18    17    1
     4    20    21    1
     5    21    16    1
     6    17    16    1
     7    15    14    1
     8    16    14    1
     9    14    12   am
    10     6     7    2
    11     6     5    1
    12     7     8    1
    13    10     9    2
    14    12     5    1
    15    12    13    2
    16     5     4    2
    17     8     9    1
    18     8     3    2
    19     9    11    1
    20     4     3    1
    21     3     2    1
    22    11     1    1
    23     1     2    1
    24     1    22    1
    25    22    28    2
    26    22    23    1
    27    28    27    1
    28    23    24    2
    29    27    25    2
    30    24    25    1
    31    25    26    1
