@<TRIPOS>MOLECULE
355_out_ligand_01.pdbqt
 33 36 0 0 0
SMALL
GASTEIGER

@<TRIPOS>ATOM
      1  C         19.8130  -22.8060   -9.8860 C.2     1  UNL1        0.0330
      2  C         19.3670  -22.0360  -10.9700 C.2     1  UNL1        0.0170
      3  C         18.0050  -21.7620  -11.1270 C.2     1  UNL1        0.0030
      4  C         17.0830  -22.2370  -10.1950 C.2     1  UNL1        0.0250
      5  C         17.5330  -22.9820   -9.1030 C.2     1  UNL1        0.0800
      6  C         18.8890  -23.2830   -8.9490 C.2     1  UNL1        0.0420
      7  C         21.2540  -23.0980   -9.6560 C.2     1  UNL1        0.2510
      8  O         21.5940  -24.2240   -9.3120 O.2     1  UNL1       -0.2680
      9  N         22.1340  -22.0620   -9.8680 N.am    1  UNL1       -0.3530
     10  H         21.8170  -21.2230  -10.3300 H       1  UNL1        0.1630
     11  C         23.5660  -22.2490   -9.7800 C.3     1  UNL1        0.1610
     12  C         24.2370  -21.7710  -11.0410 C.2     1  UNL1       -0.0380
     13  C         25.5060  -21.1730  -10.9840 C.2     1  UNL1        0.0120
     14  C         26.1370  -20.7330  -12.1490 C.2     1  UNL1        0.0400
     15  C         25.5070  -20.8880  -13.3800 C.2     1  UNL1        0.1020
     16  C         24.2580  -21.5110  -13.4530 C.2     1  UNL1        0.1020
     17  O         26.1720  -20.4090  -14.4790 O.2     1  UNL1       -0.3460
     18  C         23.6190  -21.9380  -12.2890 C.2     1  UNL1        0.0480
     19  O         23.5910  -21.7260  -14.6320 O.2     1  UNL1       -0.3460
     20  C         24.4500  -21.5400  -15.7630 C.3     1  UNL1        0.2020
     21  C         25.2920  -20.2860  -15.6020 C.3     1  UNL1        0.2020
     22  S         16.3800  -23.5520   -7.8740 S.O2    1  UNL1        0.2630
     23  O         15.6130  -22.4140   -7.4140 O.2     1  UNL1       -0.2000
     24  O         15.7320  -24.7310   -8.4060 O.2     1  UNL1       -0.2000
     25  N         17.3910  -24.0820   -6.6260 N.pl3   1  UNL1       -0.2810
     26  H         18.1130  -24.7140   -6.9690 H       1  UNL1        0.1790
     27  C         17.7310  -23.1860   -5.5720 C.2     1  UNL1        0.0440
     28  C         17.4560  -23.5670   -4.2560 C.2     1  UNL1        0.0300
     29  C         17.8160  -22.7320   -3.1970 C.2     1  UNL1        0.0040
     30  C         18.4480  -21.5160   -3.4550 C.2     1  UNL1        0.0240
     31  C         18.7120  -21.1380   -4.7700 C.2     1  UNL1        0.0360
     32 CL         19.4960  -19.6380   -5.0820 Cl      1  UNL1       -0.0840
     33  C         18.3550  -21.9670   -5.8330 C.2     1  UNL1        0.0540
@<TRIPOS>BOND
     1    20    21    1
     2    20    19    1
     3    21    17    1
     4    19    16    1
     5    17    15    1
     6    16    15    2
     7    16    18    1
     8    15    14    1
     9    18    12    2
    10    14    13    2
    11     3     2    1
    12     3     4    2
    13    12    13    1
    14    12    11    1
    15     2     1    2
    16    10     9    1
    17     4     5    1
    18     1     7    1
    19     1     6    1
    20     9    11    1
    21     9     7   am
    22     7     8    2
    23     5     6    2
    24     5    22    1
    25    24    22    2
    26    22    23    2
    27    22    25    1
    28    26    25    1
    29    25    27    1
    30    33    27    2
    31    33    31    1
    32    27    28    1
    33    32    31    1
    34    31    30    2
    35    28    29    2
    36    30    29    1
