@<TRIPOS>MOLECULE
35605_out_ligand_01.pdbqt
 35 39 0 0 0
SMALL
GASTEIGER

@<TRIPOS>ATOM
      1  C         20.3820  -21.9480  -11.2680 C.2     1  UNL1        0.0910
      2  C         20.7930  -21.4590  -12.5090 C.2     1  UNL1        0.0390
      3  C         22.1520  -21.4090  -12.8260 C.2     1  UNL1        0.0110
      4  C         23.1190  -21.8350  -11.9030 C.2     1  UNL1       -0.0380
      5  C         22.7010  -22.3230  -10.6570 C.2     1  UNL1        0.0370
      6  C         21.3370  -22.3570  -10.3350 C.2     1  UNL1        0.1130
      7  S         20.8330  -22.9490   -8.7400 S.O2    1  UNL1        0.2660
      8  O         20.6200  -24.3800   -8.8380 O.2     1  UNL1       -0.2000
      9  O         21.7520  -22.4200   -7.7510 O.2     1  UNL1       -0.2000
     10  N         19.3100  -22.2280   -8.5280 N.pl3   1  UNL1       -0.2800
     11  H         19.4020  -21.2140   -8.5560 H       1  UNL1        0.1790
     12  C         18.3900  -22.7910   -7.5850 C.2     1  UNL1        0.0490
     13  C         17.5200  -23.7990   -8.0160 C.2     1  UNL1        0.0310
     14  C         16.6330  -24.4020   -7.1290 C.2     1  UNL1        0.0030
     15  C         16.6050  -24.0000   -5.7990 C.2     1  UNL1        0.0080
     16  C         17.4540  -22.9770   -5.3450 C.2     1  UNL1       -0.0500
     17  C         18.3330  -22.3350   -6.2500 C.2     1  UNL1       -0.0250
     18  C         17.3370  -22.5550   -3.8990 C.3     1  UNL1        0.0390
     19  C         19.2190  -21.2080   -5.7640 C.3     1  UNL1        0.0410
     20  C         18.7760  -20.5910   -4.4390 C.3     1  UNL1        0.0050
     21  C         18.4960  -21.6860   -3.4220 C.3     1  UNL1        0.0050
     22  O         19.0560  -21.9150  -10.9320 O.2     1  UNL1       -0.3540
     23  C         18.3260  -21.0230  -11.7830 C.3     1  UNL1        0.2100
     24  C         24.5880  -21.7910  -12.2610 C.3     1  UNL1        0.1740
     25  N         24.7850  -21.8210  -13.6920 N.am    1  UNL1       -0.2740
     26  C         24.9160  -20.7030  -14.4680 C.2     1  UNL1        0.2630
     27  O         24.8620  -19.5300  -14.1530 O.2     1  UNL1       -0.2670
     28  C         25.1490  -21.1630  -15.8280 C.2     1  UNL1        0.0670
     29  C         25.3510  -20.4850  -17.0110 C.2     1  UNL1        0.0210
     30  C         25.1530  -22.5370  -15.8110 C.2     1  UNL1        0.1400
     31  C         25.5510  -21.2660  -18.1530 C.2     1  UNL1        0.0200
     32  C         25.5370  -22.6640  -18.0400 C.2     1  UNL1        0.1170
     33  N         25.3390  -23.3350  -16.8780 N.2     1  UNL1       -0.2540
     34  C         24.9220  -22.9700  -14.4260 C.2     1  UNL1        0.2800
     35  O         24.8690  -24.1210  -14.0290 O.2     1  UNL1       -0.2650
@<TRIPOS>BOND
     1    31    32    2
     2    31    29    1
     3    32    33    1
     4    29    28    2
     5    33    30    2
     6    28    30    1
     7    28    26    1
     8    30    34    1
     9    26    27    2
    10    26    25   am
    11    34    35    2
    12    34    25   am
    13    25    24    1
    14     3     2    1
    15     3     4    2
    16     2     1    2
    17    24     4    1
    18     4     5    1
    19    23    22    1
    20     1    22    1
    21     1     6    1
    22     5     6    2
    23     6     7    1
    24     8     7    2
    25     7    10    1
    26     7     9    2
    27    11    10    1
    28    10    12    1
    29    13    12    2
    30    13    14    1
    31    12    17    1
    32    14    15    2
    33    17    19    1
    34    17    16    2
    35    15    16    1
    36    19    20    1
    37    16    18    1
    38    20    21    1
    39    18    21    1
