@<TRIPOS>MOLECULE
35617_out_ligand_01.pdbqt
 34 37 0 0 0
SMALL
GASTEIGER

@<TRIPOS>ATOM
      1  C         21.1040  -23.1930   -9.8230 C.2     1  UNL1        0.0340
      2  C         20.7320  -23.9840   -8.7250 C.2     1  UNL1        0.0310
      3  C         19.4040  -24.0300   -8.2920 C.2     1  UNL1        0.0270
      4  C         18.4340  -23.2920   -8.9710 C.2     1  UNL1        0.0800
      5  C         18.7910  -22.4840  -10.0520 C.2     1  UNL1        0.0270
      6  C         20.1230  -22.4430  -10.4780 C.2     1  UNL1        0.0310
      7  N         22.4660  -23.2090  -10.1910 N.am    1  UNL1       -0.3270
      8  C         23.3950  -22.1820  -10.0440 C.2     1  UNL1        0.2310
      9  O         23.1710  -21.0860   -9.5410 O.2     1  UNL1       -0.2720
     10  H         22.8000  -24.0780  -10.5900 H       1  UNL1        0.1690
     11  C         24.7690  -22.5940  -10.5690 C.3     1  UNL1        0.1860
     12  S         25.7490  -21.2050  -11.1880 S.3     1  UNL1       -0.0750
     13  C         25.4940  -21.3520  -12.9060 C.ar    1  UNL1        0.2120
     14  O         25.8100  -20.3520  -13.7980 O.2     1  UNL1       -0.2820
     15  C         25.4650  -20.8800  -15.0050 C.ar    1  UNL1        0.1260
     16  C         25.5810  -20.3180  -16.2640 C.2     1  UNL1        0.0430
     17  C         24.9430  -22.1420  -14.7820 C.ar    1  UNL1        0.1870
     18  C         25.1280  -21.1420  -17.2970 C.2     1  UNL1        0.0290
     19  C         24.6090  -22.4170  -17.0170 C.2     1  UNL1        0.0330
     20  C         24.1250  -23.2770  -18.1530 C.3     1  UNL1        0.0700
     21  N         24.4960  -22.9430  -15.7740 N.2     1  UNL1       -0.2320
     22  N         24.9500  -22.4240  -13.4490 N.ar    1  UNL1       -0.1960
     23  S         16.7430  -23.3320   -8.4190 S.O2    1  UNL1        0.2630
     24  O         16.5860  -24.5010   -7.5790 O.2     1  UNL1       -0.2000
     25  O         15.8950  -23.1250   -9.5740 O.2     1  UNL1       -0.2000
     26  N         16.6400  -22.0010   -7.3850 N.pl3   1  UNL1       -0.2800
     27  H         16.0610  -21.2580   -7.7690 H       1  UNL1        0.1790
     28  C         16.6580  -22.1880   -5.9730 C.2     1  UNL1        0.0480
     29  C         15.4980  -22.6200   -5.3230 C.2     1  UNL1        0.0300
     30  C         15.4840  -22.7920   -3.9400 C.2     1  UNL1        0.0020
     31  C         16.6340  -22.5390   -3.1990 C.2     1  UNL1        0.0010
     32  C         17.7990  -22.1160   -3.8410 C.2     1  UNL1        0.0090
     33  C         17.8260  -21.9290   -5.2340 C.2     1  UNL1       -0.0350
     34  C         19.1050  -21.4880   -5.8860 C.3     1  UNL1        0.0500
@<TRIPOS>BOND
     1    20    19    1
     2    18    19    2
     3    18    16    1
     4    19    21    1
     5    16    15    2
     6    21    17    2
     7    15    17   ar
     8    15    14   ar
     9    17    22   ar
    10    14    13   ar
    11    22    13   ar
    12    13    12    1
    13    12    11    1
    14    10     7    1
    15    11     8    1
    16     6     5    1
    17     6     1    2
    18     7     8   am
    19     7     1    1
    20     5     4    2
    21     8     9    2
    22     1     2    1
    23    25    23    2
    24     4    23    1
    25     4     3    1
    26     2     3    2
    27    23    24    2
    28    23    26    1
    29    27    26    1
    30    26    28    1
    31    28    29    2
    32    28    33    1
    33    34    33    1
    34    29    30    1
    35    33    32    2
    36    30    31    2
    37    32    31    1
