@<TRIPOS>MOLECULE
35615_out_ligand_01.pdbqt
 36 39 0 0 0
SMALL
GASTEIGER

@<TRIPOS>ATOM
      1  C         19.9820  -22.6010  -10.2560 C.2     1  UNL1        0.0340
      2  C         19.0230  -21.9720  -11.0560 C.2     1  UNL1        0.0170
      3  C         19.4290  -21.2190  -12.1570 C.2     1  UNL1        0.0030
      4  C         20.7890  -21.0980  -12.4570 C.2     1  UNL1        0.0290
      5  C         21.7600  -21.7210  -11.6610 C.2     1  UNL1        0.0370
      6  C         21.3460  -22.4840  -10.5660 C.2     1  UNL1        0.0460
      7  N         23.1070  -21.5640  -12.0490 N.am    1  UNL1       -0.3090
      8  C         24.2070  -21.4310  -11.2280 C.2     1  UNL1        0.3270
      9  O         24.1400  -21.2520  -10.0110 O.2     1  UNL1       -0.2460
     10  N         25.4440  -21.4160  -11.8950 N.am    1  UNL1       -0.2960
     11  C         26.5440  -20.7090  -11.2410 C.3     1  UNL1        0.1440
     12  C         25.6500  -21.7250  -13.2760 C.2     1  UNL1        0.0800
     13  C         26.6560  -19.2980  -11.7900 C.3     1  UNL1        0.1010
     14  S         27.1200  -19.3160  -13.5470 S.3     1  UNL1       -0.1060
     15  C         26.3680  -20.8420  -14.1040 C.2     1  UNL1        0.1210
     16  N         26.5470  -21.0610  -15.4280 N.2     1  UNL1       -0.2440
     17  C         26.0400  -22.1850  -15.9740 C.2     1  UNL1        0.0320
     18  C         26.2690  -22.3960  -17.4380 C.3     1  UNL1        0.0700
     19  C         25.3750  -23.1390  -15.2180 C.2     1  UNL1        0.0350
     20  C         25.1940  -22.9330  -13.8440 C.2     1  UNL1       -0.0300
     21  C         24.5770  -24.0540  -13.0470 C.3     1  UNL1        0.0500
     22  H         23.2680  -21.3810  -13.0280 H       1  UNL1        0.1700
     23  C         19.5940  -23.4420   -9.0900 C.2     1  UNL1        0.2520
     24  N         18.4090  -23.1140   -8.4700 N.am    1  UNL1       -0.3530
     25  H         17.9440  -22.2490   -8.7030 H       1  UNL1        0.1630
     26  O         20.3270  -24.3520   -8.7200 O.2     1  UNL1       -0.2680
     27  C         17.9640  -23.7820   -7.2620 C.3     1  UNL1        0.1640
     28  C         18.1140  -22.8890   -6.0510 C.2     1  UNL1       -0.0070
     29  C         18.9430  -21.7560   -6.1280 C.2     1  UNL1        0.0110
     30  C         19.1050  -20.9110   -5.0310 C.2     1  UNL1        0.0010
     31  C         18.4410  -21.1880   -3.8370 C.2     1  UNL1        0.0030
     32  C         17.6370  -22.3200   -3.7370 C.2     1  UNL1        0.0370
     33  C         17.4860  -23.1800   -4.8310 C.2     1  UNL1        0.0760
     34  O         16.6780  -24.2840   -4.7690 O.2     1  UNL1       -0.3510
     35  C         15.3680  -23.9990   -4.2520 C.3     1  UNL1        0.1710
     36  C         14.5260  -23.4780   -5.4020 C.3     1  UNL1        0.0340
@<TRIPOS>BOND
     1    18    17    1
     2    17    16    2
     3    17    19    1
     4    16    15    1
     5    19    20    2
     6    15    14    1
     7    15    12    2
     8    20    12    1
     9    20    21    1
    10    14    13    1
    11    12    10    1
    12    22     7    1
    13     4     3    2
    14     4     5    1
    15     3     2    1
    16     7     5    1
    17     7     8   am
    18    10    11    1
    19    10     8   am
    20    13    11    1
    21     5     6    2
    22     8     9    2
    23     2     1    2
    24     6     1    1
    25     1    23    1
    26    23    26    2
    27    23    24   am
    28    25    24    1
    29    24    27    1
    30    27    28    1
    31    29    28    2
    32    29    30    1
    33    28    33    1
    34    36    35    1
    35    30    31    2
    36    33    34    1
    37    33    32    2
    38    34    35    1
    39    31    32    1
