@<TRIPOS>MOLECULE
35623_out_ligand_01.pdbqt
 35 38 0 0 0
SMALL
GASTEIGER

@<TRIPOS>ATOM
      1  C         21.9060  -21.8110  -11.6320 C.2     1  UNL1        0.0360
      2  C         21.5900  -22.7420  -10.6390 C.2     1  UNL1        0.0300
      3  C         20.2730  -22.8830  -10.1860 C.2     1  UNL1        0.0190
      4  C         19.2510  -22.1000  -10.7350 C.2     1  UNL1        0.0320
      5  C         19.5640  -21.1590  -11.7200 C.2     1  UNL1        0.0190
      6  C         20.8810  -21.0220  -12.1700 C.2     1  UNL1        0.0300
      7  N         23.2020  -21.6230  -12.1530 N.am    1  UNL1       -0.3090
      8  C         24.3810  -21.4480  -11.4580 C.2     1  UNL1        0.3270
      9  N         25.5280  -21.3650  -12.2640 N.am    1  UNL1       -0.2960
     10  O         24.4490  -21.2930  -10.2400 O.2     1  UNL1       -0.2460
     11  C         26.6470  -20.5680  -11.7590 C.3     1  UNL1        0.1440
     12  C         25.6100  -21.7400  -13.6410 C.2     1  UNL1        0.0800
     13  C         26.6340  -19.1890  -12.3940 C.3     1  UNL1        0.1010
     14  S         26.9270  -19.2860  -14.1870 S.3     1  UNL1       -0.1060
     15  C         26.2010  -20.8740  -14.5840 C.2     1  UNL1        0.1210
     16  N         26.2580  -21.1560  -15.9090 N.2     1  UNL1       -0.2440
     17  C         25.7490  -22.3270  -16.3420 C.2     1  UNL1        0.0320
     18  C         25.8170  -22.6050  -17.8130 C.3     1  UNL1        0.0700
     19  C         25.2010  -23.2620  -15.4760 C.2     1  UNL1        0.0350
     20  C         25.1540  -22.9920  -14.1010 C.2     1  UNL1       -0.0300
     21  C         24.6690  -24.0970  -13.1980 C.3     1  UNL1        0.0500
     22  H         23.2560  -21.4710  -13.1500 H       1  UNL1        0.1700
     23  C         17.8360  -22.2180  -10.2870 C.2     1  UNL1        0.2510
     24  O         16.9740  -21.4930  -10.7720 O.2     1  UNL1       -0.2680
     25  N         17.5720  -23.2000   -9.3520 N.am    1  UNL1       -0.3570
     26  H         18.2550  -23.9390   -9.2530 H       1  UNL1        0.1620
     27  C         16.2040  -23.5100   -8.9820 C.3     1  UNL1        0.1240
     28  C         16.1150  -24.1700   -7.6080 C.3     1  UNL1        0.0500
     29  C         17.5020  -24.3670   -6.9820 C.3     1  UNL1        0.2740
     30  N         17.6900  -23.5530   -5.7700 N.3     1  UNL1        0.0880
     31  C         18.0960  -22.1750   -6.0490 C.3     1  UNL1        0.2720
     32  C         18.5380  -21.4800   -4.7540 C.3     1  UNL1        0.0300
     33  C         17.7130  -21.8930   -3.5330 C.3     1  UNL1        0.0030
     34  C         16.3480  -22.4140   -3.9570 C.3     1  UNL1        0.0300
     35  C         16.4740  -23.5900   -4.9350 C.3     1  UNL1        0.2720
@<TRIPOS>BOND
     1    18    17    1
     2    17    16    2
     3    17    19    1
     4    16    15    1
     5    19    20    2
     6    15    14    1
     7    15    12    2
     8    14    13    1
     9    20    12    1
    10    20    21    1
    11    12     9    1
    12    22     7    1
    13    13    11    1
    14     9    11    1
    15     9     8   am
    16     6     5    1
    17     6     1    2
    18     7     1    1
    19     7     8   am
    20     5     4    2
    21     1     2    1
    22     8    10    2
    23    24    23    2
    24     4    23    1
    25     4     3    1
    26     2     3    2
    27    23    25   am
    28    25    26    1
    29    25    27    1
    30    27    28    1
    31    28    29    1
    32    29    30    1
    33    31    30    1
    34    31    32    1
    35    30    35    1
    36    35    34    1
    37    32    33    1
    38    34    33    1
