@<TRIPOS>MOLECULE
35630_out_ligand_01.pdbqt
 31 34 0 0 0
SMALL
GASTEIGER

@<TRIPOS>ATOM
      1  C         25.6110  -21.6130  -10.8900 C.3     1  UNL1        0.0480
      2  C         24.2520  -22.0940  -10.4720 C.2     1  UNL1       -0.0610
      3  C         24.1250  -23.1810   -9.6030 C.2     1  UNL1        0.0090
      4  C         22.8690  -23.6670   -9.2230 C.2     1  UNL1        0.0310
      5  C         21.7400  -23.0330   -9.7530 C.ar    1  UNL1        0.0430
      6  N         20.4070  -23.2940   -9.5560 N.ar    1  UNL1       -0.3520
      7  C         19.6310  -22.4270  -10.2820 C.ar    1  UNL1        0.0950
      8  C         18.2060  -22.5130  -10.2390 C.2     1  UNL1        0.2230
      9  N         17.5600  -23.4260   -9.5400 N.2     1  UNL1       -0.2030
     10  C         16.2460  -23.1260   -9.8010 C.2     1  UNL1        0.1580
     11  N         16.0580  -22.0830  -10.6170 N.4     1  UNL1       -0.1110
     12  O         17.3580  -21.6740  -10.9130 O.2     1  UNL1       -0.1890
     13  C         20.4780  -21.5720  -10.9700 C.ar    1  UNL1       -0.0180
     14  C         20.0770  -20.4650  -11.8820 C.3     1  UNL1        0.0520
     15  C         21.8200  -21.9550  -10.6330 C.ar    1  UNL1       -0.0010
     16  C         23.0990  -21.4860  -11.0010 C.2     1  UNL1        0.0210
     17  H         20.0370  -24.0230   -8.9600 H       1  UNL1        0.1660
     18  C         15.1240  -23.8990   -9.2150 C.3     1  UNL1        0.1030
     19  C         15.4940  -24.5720   -7.8890 C.3     1  UNL1        0.1330
     20  N         15.9240  -23.6400   -6.8400 N.am    1  UNL1       -0.3520
     21  C         15.1350  -22.4260   -6.6570 C.3     1  UNL1        0.1520
     22  C         17.1910  -23.8350   -6.2920 C.2     1  UNL1        0.2550
     23  O         17.8970  -24.8120   -6.5290 O.2     1  UNL1       -0.2670
     24  C         17.7140  -22.8410   -5.3450 C.2     1  UNL1        0.0560
     25  C         18.6140  -21.8900   -5.8360 C.2     1  UNL1        0.0610
     26  C         19.1090  -20.9240   -4.9710 C.2     1  UNL1        0.1170
     27  F         19.9790  -20.0140   -5.4260 F       1  UNL1       -0.2060
     28  C         18.7160  -20.8850   -3.6350 C.2     1  UNL1        0.0440
     29  C         17.8050  -21.8280   -3.1540 C.2     1  UNL1        0.0280
     30  C         17.2950  -22.8090   -4.0100 C.2     1  UNL1        0.0500
     31 CL         16.1660  -23.9430   -3.3690 Cl      1  UNL1       -0.0830
@<TRIPOS>BOND
     1    14    13    1
     2    16    15    1
     3    16     2    2
     4    13    15   ar
     5    13     7   ar
     6    12    11    1
     7    12     8    1
     8     1     2    1
     9    15     5   ar
    10    11    10    1
    11     2     3    1
    12     7     8    1
    13     7     6   ar
    14     8     9    2
    15    10     9    2
    16    10    18    1
    17     5     6   ar
    18     5     4    1
    19     3     4    2
    20     6    17    1
    21    18    19    1
    22    19    20    1
    23    20    21    1
    24    20    22   am
    25    23    22    2
    26    22    24    1
    27    25    24    2
    28    25    26    1
    29    27    26    1
    30    24    30    1
    31    26    28    2
    32    30    31    1
    33    30    29    2
    34    28    29    1
