@<TRIPOS>MOLECULE
35642_out_ligand_01.pdbqt
 36 39 0 0 0
SMALL
GASTEIGER

@<TRIPOS>ATOM
      1  C         22.6880  -22.4570  -11.1270 C.2     1  UNL1        0.0370
      2  C         23.0670  -23.2830  -10.0590 C.2     1  UNL1        0.0290
      3  C         22.1260  -23.7320   -9.1290 C.2     1  UNL1        0.0030
      4  C         20.7940  -23.3430   -9.2480 C.2     1  UNL1        0.0170
      5  C         20.4090  -22.5040  -10.3010 C.2     1  UNL1        0.0340
      6  C         21.3500  -22.0740  -11.2460 C.2     1  UNL1        0.0460
      7  N         23.7110  -22.0330  -11.9980 N.am    1  UNL1       -0.3090
      8  C         24.9850  -21.6090  -11.6740 C.2     1  UNL1        0.3270
      9  N         25.8170  -21.3720  -12.7800 N.am    1  UNL1       -0.2960
     10  O         25.3650  -21.3710  -10.5310 O.2     1  UNL1       -0.2460
     11  C         26.8710  -20.3700  -12.6260 C.3     1  UNL1        0.1440
     12  C         25.5770  -21.8170  -14.1170 C.2     1  UNL1        0.0800
     13  C         26.4430  -19.0560  -13.2560 C.3     1  UNL1        0.1010
     14  S         26.2330  -19.2210  -15.0550 S.3     1  UNL1       -0.1060
     15  C         25.7130  -20.9280  -15.2010 C.2     1  UNL1        0.1210
     16  N         25.4350  -21.2790  -16.4810 N.2     1  UNL1       -0.2440
     17  C         25.0430  -22.5440  -16.7330 C.2     1  UNL1        0.0320
     18  C         24.7150  -22.8940  -18.1530 C.3     1  UNL1        0.0700
     19  C         24.9390  -23.5000  -15.7330 C.2     1  UNL1        0.0350
     20  C         25.2410  -23.1560  -14.4070 C.2     1  UNL1       -0.0300
     21  C         25.2450  -24.2690  -13.3930 C.3     1  UNL1        0.0500
     22  H         23.4460  -21.9050  -12.9630 H       1  UNL1        0.1700
     23  C         18.9980  -22.0590  -10.4440 C.2     1  UNL1        0.2510
     24  O         18.7310  -21.0270  -11.0460 O.2     1  UNL1       -0.2680
     25  N         18.0590  -22.8680   -9.8390 N.am    1  UNL1       -0.3570
     26  H         18.3800  -23.5680   -9.1810 H       1  UNL1        0.1620
     27  C         16.6510  -22.5210   -9.8090 C.3     1  UNL1        0.1240
     28  C         15.8880  -23.3680   -8.7930 C.3     1  UNL1        0.0500
     29  C         15.8490  -22.6950   -7.4140 C.3     1  UNL1        0.2740
     30  N         16.5060  -23.5220   -6.3890 N.3     1  UNL1        0.0880
     31  C         15.8340  -23.5060   -5.0900 C.3     1  UNL1        0.2720
     32  C         16.0130  -22.2600   -4.2130 C.3     1  UNL1        0.0300
     33  C         17.4000  -22.1680   -3.5880 C.3     1  UNL1        0.0020
     34  C         18.4810  -21.5690   -4.4810 C.3     1  UNL1        0.0020
     35  C         18.4150  -21.8870   -5.9710 C.3     1  UNL1        0.0300
     36  C         17.9560  -23.3040   -6.3220 C.3     1  UNL1        0.2720
@<TRIPOS>BOND
     1    18    17    1
     2    17    16    2
     3    17    19    1
     4    16    15    1
     5    19    20    2
     6    15    14    1
     7    15    12    2
     8    14    13    1
     9    20    12    1
    10    20    21    1
    11    12     9    1
    12    13    11    1
    13    22     7    1
    14     9    11    1
    15     9     8   am
    16     7     8   am
    17     7     1    1
    18     8    10    2
    19     6     1    2
    20     6     5    1
    21     1     2    1
    22    24    23    2
    23    23     5    1
    24    23    25   am
    25     5     4    2
    26     2     3    2
    27    25    27    1
    28    25    26    1
    29    27    28    1
    30     4     3    1
    31    28    29    1
    32    29    30    1
    33    30    36    1
    34    30    31    1
    35    36    35    1
    36    35    34    1
    37    31    32    1
    38    34    33    1
    39    32    33    1
