@<TRIPOS>MOLECULE
35644_out_ligand_01.pdbqt
 36 40 0 0 0
SMALL
GASTEIGER

@<TRIPOS>ATOM
      1  C         16.4720  -21.7410  -10.0020 C.3     1  UNL1        0.1210
      2  C         17.8460  -21.6710  -10.6230 C.2     1  UNL1       -0.0480
      3  C         18.3740  -20.4390  -11.0410 C.2     1  UNL1        0.0090
      4  C         19.6450  -20.3680  -11.6180 C.2     1  UNL1        0.0170
      5  C         20.4000  -21.5340  -11.7920 C.2     1  UNL1        0.0320
      6  C         19.8830  -22.7630  -11.3720 C.2     1  UNL1        0.0170
      7  C         18.6110  -22.8320  -10.7980 C.2     1  UNL1        0.0090
      8  C         21.7610  -21.5050  -12.3920 C.2     1  UNL1        0.2510
      9  O         21.9160  -21.1100  -13.5420 O.2     1  UNL1       -0.2680
     10  N         22.7930  -21.9140  -11.5740 N.am    1  UNL1       -0.3560
     11  H         22.6050  -22.0540  -10.5900 H       1  UNL1        0.1620
     12  C         24.1820  -21.7890  -11.9810 C.3     1  UNL1        0.1290
     13  C         24.8820  -23.1410  -12.1490 C.3     1  UNL1        0.0840
     14  C         25.0180  -23.5780  -13.5630 C.2     1  UNL1        0.0540
     15  C         24.9470  -22.9250  -14.7770 C.2     1  UNL1        0.0340
     16  C         25.1630  -23.9080  -15.7730 C.2     1  UNL1        0.0270
     17  C         25.3460  -25.0970  -15.1060 C.2     1  UNL1        0.1420
     18  O         25.2560  -24.9070  -13.7650 O.2     1  UNL1       -0.3270
     19  S         16.0350  -23.4460   -9.5490 S.3     1  UNL1       -0.0870
     20  C         16.0640  -23.3190   -7.8210 C.ar    1  UNL1        0.1710
     21  N         15.1780  -22.6520   -7.1140 N.ar    1  UNL1       -0.2210
     22  C         15.6080  -22.7630   -5.8180 C.ar    1  UNL1        0.1050
     23  C         15.0830  -22.2500   -4.6270 C.2     1  UNL1        0.0370
     24  C         16.7760  -23.5150   -5.7430 C.ar    1  UNL1        0.1610
     25  C         15.7780  -22.5320   -3.4490 C.2     1  UNL1        0.0220
     26  C         16.9430  -23.2930   -3.5130 C.2     1  UNL1        0.1190
     27  N         17.4940  -23.8060   -4.6400 N.2     1  UNL1       -0.2410
     28  N         17.0370  -23.8940   -7.0370 N.ar    1  UNL1       -0.3040
     29  C         18.1870  -24.6840   -7.4470 C.3     1  UNL1        0.1740
     30  C         19.4230  -23.8570   -7.6980 C.2     1  UNL1       -0.0010
     31  C         19.5210  -22.5430   -7.2080 C.2     1  UNL1        0.0120
     32  C         20.6700  -21.7820   -7.4350 C.2     1  UNL1        0.0010
     33  C         21.7400  -22.3220   -8.1470 C.2     1  UNL1        0.0030
     34  C         21.6620  -23.6270   -8.6280 C.2     1  UNL1        0.0430
     35  C         20.5150  -24.3820   -8.3970 C.2     1  UNL1        0.1240
     36  F         20.4770  -25.6410   -8.8540 F       1  UNL1       -0.2050
@<TRIPOS>BOND
     1    16    17    2
     2    16    15    1
     3    17    18    1
     4    15    14    2
     5    18    14    1
     6    14    13    1
     7     9     8    2
     8     8     5    1
     9     8    10   am
    10    13    12    1
    11    12    10    1
    12     5     4    2
    13     5     6    1
    14     4     3    1
    15    10    11    1
    16     6     7    2
    17     3     2    2
    18     7     2    1
    19     2     1    1
    20     1    19    1
    21    19    20    1
    22    36    35    1
    23    34    35    1
    24    34    33    2
    25    35    30    2
    26    33    32    1
    27    20    21   ar
    28    20    28   ar
    29    30    29    1
    30    30    31    1
    31    29    28    1
    32    32    31    2
    33    21    22   ar
    34    28    24   ar
    35    22    24   ar
    36    22    23    1
    37    24    27    1
    38    27    26    2
    39    23    25    2
    40    26    25    1
