@<TRIPOS>MOLECULE
35645_out_ligand_01.pdbqt
 28 31 0 0 0
SMALL
GASTEIGER

@<TRIPOS>ATOM
      1  C         20.0000  -21.9020  -11.0820 C.2     1  UNL1        0.0320
      2  C         18.8510  -21.6860  -11.8560 C.2     1  UNL1        0.0180
      3  C         17.5860  -21.8550  -11.2880 C.2     1  UNL1        0.0190
      4  C         17.4590  -22.2410   -9.9460 C.2     1  UNL1        0.0450
      5  C         18.6040  -22.4680   -9.1720 C.2     1  UNL1       -0.0380
      6  C         19.8720  -22.3110   -9.7470 C.2     1  UNL1        0.0250
      7  C         18.4400  -22.9290   -7.7540 C.3     1  UNL1        0.0770
      8  C         17.1580  -22.3110   -7.1980 C.3     1  UNL1        0.1690
      9  O         16.0290  -22.6520   -8.0330 O.3     1  UNL1       -0.3070
     10  C         16.1020  -22.4520   -9.3730 C.2     1  UNL1        0.2940
     11  O         15.1100  -22.4680  -10.0890 O.2     1  UNL1       -0.2590
     12  C         21.3730  -21.7480  -11.6480 C.2     1  UNL1        0.2560
     13  O         21.5070  -21.0620  -12.6530 O.2     1  UNL1       -0.2670
     14  N         22.3630  -22.4500  -10.9850 N.am    1  UNL1       -0.3230
     15  H         22.0710  -23.0810  -10.2510 H       1  UNL1        0.1690
     16  C         23.7440  -22.4570  -11.2780 C.2     1  UNL1        0.0370
     17  C         24.5330  -21.4730  -10.6620 C.2     1  UNL1        0.0290
     18  C         25.9090  -21.4030  -10.9000 C.2     1  UNL1        0.0050
     19  C         26.5090  -22.3170  -11.7590 C.2     1  UNL1        0.0420
     20  C         25.7270  -23.2890  -12.3700 C.2     1  UNL1        0.1180
     21  F         26.3070  -24.1680  -13.2000 F       1  UNL1       -0.2060
     22  C         24.3560  -23.3680  -12.1400 C.2     1  UNL1        0.0710
     23  C         16.9010  -22.7840   -5.7810 C.2     1  UNL1       -0.0290
     24  C         17.8280  -22.5570   -4.7530 C.2     1  UNL1        0.0100
     25  C         17.5610  -22.9740   -3.4480 C.2     1  UNL1        0.0010
     26  C         16.3620  -23.6180   -3.1530 C.2     1  UNL1        0.0000
     27  C         15.4280  -23.8450   -4.1610 C.2     1  UNL1        0.0010
     28  C         15.6940  -23.4300   -5.4680 C.2     1  UNL1        0.0100
@<TRIPOS>BOND
     1    21    20    1
     2    13    12    2
     3    20    22    1
     4    20    19    2
     5    22    16    2
     6     2     3    1
     7     2     1    2
     8    19    18    1
     9    12     1    1
    10    12    14   am
    11     3     4    2
    12    16    14    1
    13    16    17    1
    14     1     6    1
    15    14    15    1
    16    18    17    2
    17    11    10    2
    18     4    10    1
    19     4     5    1
    20     6     5    2
    21    10     9    1
    22     5     7    1
    23     9     8    1
    24     7     8    1
    25     8    23    1
    26    23    28    2
    27    23    24    1
    28    28    27    1
    29    24    25    2
    30    27    26    2
    31    25    26    1
