@<TRIPOS>MOLECULE
3565_out_ligand_01.pdbqt
 33 36 0 0 0
SMALL
GASTEIGER

@<TRIPOS>ATOM
      1  C         21.8740  -22.6300  -10.3790 C.2     1  UNL1        0.0350
      2  C         22.2990  -23.6730   -9.5470 C.2     1  UNL1        0.0290
      3  C         21.3720  -24.4520   -8.8500 C.2     1  UNL1        0.0030
      4  C         20.0100  -24.1940   -8.9790 C.2     1  UNL1        0.0090
      5  C         19.5620  -23.1520   -9.8020 C.2     1  UNL1       -0.0280
      6  C         20.5050  -22.3760  -10.4990 C.2     1  UNL1        0.0380
      7  C         18.0840  -22.8700   -9.9440 C.3     1  UNL1        0.3090
      8  N         17.5740  -22.1740   -8.7620 N.3     1  UNL1        0.0960
      9  H         18.2640  -21.4730   -8.5000 H       1  UNL1        0.3170
     10  C         17.3360  -23.0770   -7.6220 C.3     1  UNL1        0.2570
     11  C         15.8990  -23.6050   -7.6890 C.3     1  UNL1        0.0600
     12  C         15.5090  -24.3930   -6.4510 C.3     1  UNL1        0.1250
     13  N         14.9740  -23.5380   -5.4190 N.am    1  UNL1       -0.3560
     14  C         15.6170  -22.5260   -4.7660 C.2     1  UNL1        0.2680
     15  H         14.1010  -23.7970   -4.9750 H       1  UNL1        0.1620
     16  O         15.0650  -22.0280   -3.7850 O.2     1  UNL1       -0.2660
     17  C         16.9300  -22.1070   -5.2030 C.2     1  UNL1        0.1090
     18  N         17.6840  -21.3050   -4.3690 N.pl3   1  UNL1       -0.3610
     19  C         17.6860  -22.3210   -6.3560 C.2     1  UNL1        0.0080
     20  C         18.9300  -21.1050   -4.8830 C.2     1  UNL1        0.0890
     21  H         17.3480  -20.9690   -3.4740 H       1  UNL1        0.1650
     22  C         18.9710  -21.7250   -6.1050 C.2     1  UNL1        0.0280
     23  N         22.8750  -21.8890  -11.0430 N.am    1  UNL1       -0.3230
     24  C         23.8340  -22.3690  -11.9170 C.2     1  UNL1        0.2560
     25  O         24.0330  -23.5380  -12.2250 O.2     1  UNL1       -0.2670
     26  H         22.9290  -20.9110  -10.7920 H       1  UNL1        0.1690
     27  C         24.7290  -21.3280  -12.5000 C.2     1  UNL1        0.0320
     28  C         24.4470  -20.8500  -13.7880 C.2     1  UNL1        0.0200
     29  C         25.2590  -19.8730  -14.3660 C.2     1  UNL1        0.0430
     30  C         26.3410  -19.3720  -13.6500 C.2     1  UNL1        0.1160
     31  F         27.1210  -18.4340  -14.2020 F       1  UNL1       -0.2060
     32  C         26.6220  -19.8230  -12.3630 C.2     1  UNL1        0.0430
     33  C         25.8130  -20.8020  -11.7810 C.2     1  UNL1        0.0200
@<TRIPOS>BOND
     1    29    28    1
     2    29    30    2
     3    31    30    1
     4    28    27    2
     5    30    32    1
     6    27    24    1
     7    27    33    1
     8    32    33    2
     9    25    24    2
    10    24    23   am
    11    23    26    1
    12    23     1    1
    13     6     1    2
    14     6     5    1
    15     1     2    1
    16     7     5    1
    17     7     8    1
    18     5     4    2
    19     2     3    2
    20     4     3    1
    21     8     9    1
    22     8    10    1
    23    11    10    1
    24    11    12    1
    25    10    19    1
    26    12    13    1
    27    19    22    1
    28    19    17    2
    29    22    20    2
    30    13    15    1
    31    13    14   am
    32    17    14    1
    33    17    18    1
    34    20    18    1
    35    14    16    2
    36    18    21    1
