@<TRIPOS>MOLECULE
35650_out_ligand_01.pdbqt
 36 40 0 0 0
SMALL
GASTEIGER

@<TRIPOS>ATOM
      1  C         24.2390  -21.4070  -12.3550 C.ar    1  UNL1        0.1360
      2  N         25.2530  -21.0330  -11.5930 N.ar    1  UNL1       -0.1340
      3  N         24.8860  -21.1860  -10.2850 N.ar    1  UNL1       -0.1230
      4  C         23.6590  -21.6510  -10.2660 C.ar    1  UNL1        0.1920
      5  N         23.1890  -21.7750  -11.5440 N.ar    1  UNL1       -0.3110
      6  S         22.7720  -22.0950   -8.8550 S.3     1  UNL1       -0.0810
      7  C         22.5120  -23.8650   -9.1570 C.3     1  UNL1        0.1850
      8  C         21.1500  -24.3070   -8.6550 C.2     1  UNL1        0.2310
      9  O         20.8300  -25.4930   -8.6930 O.2     1  UNL1       -0.2720
     10  N         20.3750  -23.2680   -8.1650 N.am    1  UNL1       -0.3260
     11  H         20.6490  -22.3340   -8.4640 H       1  UNL1        0.1690
     12  C         19.2050  -23.3710   -7.3650 C.2     1  UNL1        0.0450
     13  C         18.3250  -24.4510   -7.5330 C.2     1  UNL1        0.0300
     14  C         17.2270  -24.6230   -6.6930 C.2     1  UNL1        0.0030
     15  C         16.9870  -23.7130   -5.6700 C.2     1  UNL1        0.0120
     16  C         17.8330  -22.6150   -5.4760 C.2     1  UNL1       -0.0240
     17  C         17.5600  -21.7170   -4.4310 C.2     1  UNL1        0.0120
     18  C         18.9610  -22.4190   -6.3230 C.2     1  UNL1        0.0010
     19  C         18.3740  -20.6090   -4.2040 C.2     1  UNL1        0.0010
     20  C         19.4730  -20.3880   -5.0200 C.2     1  UNL1        0.0010
     21  C         19.7600  -21.2740   -6.0620 C.2     1  UNL1        0.0140
     22  C         21.8790  -22.2270  -11.9670 C.3     1  UNL1        0.1370
     23  C         20.9120  -21.0650  -12.2130 C.3     1  UNL1        0.0590
     24  C         19.5380  -21.3650  -11.6660 C.2     1  UNL1       -0.0570
     25  C         19.2150  -22.6580  -11.2310 C.2     1  UNL1        0.0070
     26  C         17.9520  -22.9300  -10.7030 C.2     1  UNL1        0.0010
     27  C         16.9990  -21.9160  -10.6120 C.2     1  UNL1        0.0000
     28  C         17.3120  -20.6280  -11.0450 C.2     1  UNL1        0.0010
     29  C         18.5740  -20.3520  -11.5680 C.2     1  UNL1        0.0070
     30  C         24.2470  -21.4670  -13.8480 C.3     1  UNL1        0.1370
     31  C         24.7830  -22.7570  -14.3920 C.2     1  UNL1        0.0180
     32  C         25.1650  -23.8990  -13.7090 C.2     1  UNL1        0.0270
     33  C         25.6470  -24.8360  -14.6540 C.2     1  UNL1        0.0190
     34  C         25.5490  -24.2490  -15.8930 C.2     1  UNL1        0.0900
     35  N         25.0240  -22.9890  -15.7310 N.pl3   1  UNL1       -0.3640
     36  C         24.7920  -22.0700  -16.8250 C.3     1  UNL1        0.1550
@<TRIPOS>BOND
     1    36    35    1
     2    34    35    1
     3    34    33    2
     4    35    31    1
     5    33    32    1
     6    31    30    1
     7    31    32    2
     8    30     1    1
     9     1     2   ar
    10     1     5   ar
    11    23    22    1
    12    23    24    1
    13    22     5    1
    14    24    29    2
    15    24    25    1
    16     2     3   ar
    17    29    28    1
    18     5     4   ar
    19    25    26    2
    20    28    27    2
    21    26    27    1
    22     3     4   ar
    23     4     6    1
    24     7     6    1
    25     7     8    1
    26     9     8    2
    27     8    10   am
    28    11    10    1
    29    10    12    1
    30    13    12    2
    31    13    14    1
    32    12    18    1
    33    14    15    2
    34    18    21    1
    35    18    16    2
    36    21    20    2
    37    15    16    1
    38    16    17    1
    39    20    19    1
    40    17    19    2
