@<TRIPOS>MOLECULE
3566_out_ligand_01.pdbqt
 38 42 0 0 0
SMALL
GASTEIGER

@<TRIPOS>ATOM
      1  C         19.9210  -22.6560   -9.4380 C.2     1  UNL1        0.0800
      2  C         19.0890  -22.1480  -10.4380 C.2     1  UNL1        0.0260
      3  C         19.6490  -21.6620  -11.6210 C.2     1  UNL1        0.0090
      4  C         21.0400  -21.6720  -11.8170 C.2     1  UNL1       -0.0460
      5  C         21.6020  -21.1000  -13.0880 C.3     1  UNL1        0.0490
      6  C         21.8580  -22.2150  -10.8040 C.2     1  UNL1        0.0390
      7  C         21.3060  -22.6820   -9.6060 C.2     1  UNL1        0.0420
      8  C         23.3290  -22.3170  -10.9420 C.2     1  UNL1        0.2520
      9  O         24.0600  -21.8220  -10.0950 O.2     1  UNL1       -0.2680
     10  N         23.7610  -23.0270  -12.0380 N.am    1  UNL1       -0.3480
     11  H         23.0810  -23.3090  -12.7310 H       1  UNL1        0.1630
     12  C         25.1590  -23.0570  -12.4110 C.3     1  UNL1        0.1180
     13  C         25.4530  -24.1660  -13.4400 C.3     1  UNL1        0.0340
     14  C         25.2330  -23.5530  -14.8330 C.3     1  UNL1        0.0410
     15  C         25.5530  -22.1150  -14.5760 C.2     1  UNL1       -0.0490
     16  C         25.8170  -21.1200  -15.5050 C.2     1  UNL1        0.0230
     17  C         25.5150  -21.8330  -13.2080 C.2     1  UNL1       -0.0290
     18  C         26.0660  -19.8130  -15.0520 C.2     1  UNL1        0.0150
     19  C         26.0320  -19.5440  -13.6650 C.2     1  UNL1        0.0160
     20  C         25.7520  -20.5510  -12.7370 C.2     1  UNL1        0.0110
     21  C         26.3520  -18.7490  -16.0070 C.2     1  UNL1        0.1970
     22  N         26.6470  -17.4590  -15.6240 N.2     1  UNL1       -0.1360
     23  N         26.8500  -16.7640  -16.7340 N.pl3   1  UNL1        0.0220
     24  N         26.6710  -17.6490  -17.7200 N.3     1  UNL1       -0.2000
     25  N         26.3670  -18.8990  -17.3440 N.pl3   1  UNL1       -0.1390
     26  H         26.7640  -17.3830  -18.6960 H       1  UNL1        0.2080
     27  S         19.2170  -23.2570   -7.9250 S.O2    1  UNL1        0.2630
     28  O         19.6210  -22.3890   -6.8400 O.2     1  UNL1       -0.2000
     29  O         19.4640  -24.6820   -7.8690 O.2     1  UNL1       -0.2000
     30  N         17.5550  -23.0830   -8.2000 N.pl3   1  UNL1       -0.2810
     31  H         17.2780  -23.5990   -9.0340 H       1  UNL1        0.1790
     32  C         16.6880  -23.1530   -7.0760 C.2     1  UNL1        0.0430
     33  C         16.9760  -24.0230   -6.0250 C.2     1  UNL1        0.0300
     34  C         16.1470  -24.0490   -4.9040 C.2     1  UNL1        0.0030
     35  C         15.0350  -23.2070   -4.8350 C.2     1  UNL1        0.0070
     36  C         14.7360  -22.3360   -5.8910 C.2     1  UNL1       -0.0600
     37  C         13.5640  -21.4060   -5.8020 C.3     1  UNL1        0.0480
     38  C         15.5820  -22.3060   -7.0080 C.2     1  UNL1        0.0370
@<TRIPOS>BOND
     1    26    24    1
     2    24    25    1
     3    24    23    1
     4    25    21    1
     5    23    22    1
     6    21    22    2
     7    21    18    1
     8    16    18    1
     9    16    15    2
    10    18    19    2
    11    14    15    1
    12    14    13    1
    13    15    17    1
    14    19    20    1
    15    13    12    1
    16    17    20    2
    17    17    12    1
    18     5     4    1
    19    11    10    1
    20    12    10    1
    21    10     8   am
    22     4     3    2
    23     4     6    1
    24     3     2    1
    25     8     6    1
    26     8     9    2
    27     6     7    2
    28     2     1    2
    29     7     1    1
    30     1    27    1
    31    31    30    1
    32    30    27    1
    33    30    32    1
    34    27    29    2
    35    27    28    2
    36    32    38    2
    37    32    33    1
    38    38    36    1
    39    33    34    2
    40    36    37    1
    41    36    35    2
    42    34    35    1
