@<TRIPOS>MOLECULE
35662_out_ligand_01.pdbqt
 38 42 0 0 0
SMALL
GASTEIGER

@<TRIPOS>ATOM
      1  C         22.8670  -22.8270  -10.3280 C.2     1  UNL1        0.0540
      2  C         21.5290  -22.7190  -10.2130 C.2     1  UNL1        0.1450
      3  O         20.8120  -21.8720  -11.0350 O.2     1  UNL1       -0.3030
      4  C         19.4600  -21.7800  -10.8560 C.2     1  UNL1        0.1030
      5  C         18.8020  -20.8930  -11.7150 C.2     1  UNL1        0.0390
      6  C         17.4240  -20.7200  -11.6190 C.2     1  UNL1        0.0030
      7  C         16.7120  -21.4340  -10.6620 C.2     1  UNL1        0.0020
      8  C         17.3760  -22.3200   -9.8030 C.2     1  UNL1        0.0330
      9  C         18.7630  -22.5080   -9.8890 C.2     1  UNL1        0.0710
     10  N         19.4800  -23.3960   -9.0380 N.am    1  UNL1       -0.3050
     11  C         20.8570  -23.5420   -9.1540 C.2     1  UNL1        0.2820
     12  O         21.5120  -24.3080   -8.4440 O.2     1  UNL1       -0.2650
     13  C         23.6930  -22.1020  -11.3030 C.2     1  UNL1       -0.0330
     14  C         24.8120  -21.3550  -10.9130 C.2     1  UNL1        0.0120
     15  C         25.5640  -20.6510  -11.8590 C.2     1  UNL1        0.0180
     16  C         25.1910  -20.6760  -13.2090 C.2     1  UNL1        0.0320
     17  C         24.0760  -21.4240  -13.6030 C.2     1  UNL1        0.0180
     18  C         23.3260  -22.1230  -12.6530 C.2     1  UNL1        0.0120
     19  C         25.9600  -19.9450  -14.2530 C.2     1  UNL1        0.2510
     20  O         27.1200  -19.6100  -14.0430 O.2     1  UNL1       -0.2680
     21  N         25.3070  -19.7210  -15.4480 N.am    1  UNL1       -0.3570
     22  H         24.4400  -20.2040  -15.6350 H       1  UNL1        0.1620
     23  C         25.9860  -19.0900  -16.5670 C.3     1  UNL1        0.1270
     24  C         26.4060  -20.1040  -17.6340 C.3     1  UNL1        0.0580
     25  C         25.7430  -21.4430  -17.4230 C.2     1  UNL1       -0.0570
     26  C         26.3140  -22.3960  -16.5690 C.2     1  UNL1        0.0070
     27  C         25.6850  -23.6260  -16.3650 C.2     1  UNL1        0.0010
     28  C         24.4800  -23.9100  -17.0060 C.2     1  UNL1        0.0000
     29  C         23.9030  -22.9660  -17.8530 C.2     1  UNL1        0.0010
     30  C         24.5310  -21.7360  -18.0600 C.2     1  UNL1        0.0070
     31  C         18.7910  -24.1960   -8.0220 C.3     1  UNL1        0.1740
     32  C         18.4500  -23.4250   -6.7690 C.2     1  UNL1       -0.0010
     33  C         19.1220  -22.2400   -6.4310 C.2     1  UNL1        0.0120
     34  C         18.7770  -21.5310   -5.2770 C.2     1  UNL1        0.0010
     35  C         17.7510  -21.9880   -4.4520 C.2     1  UNL1        0.0030
     36  C         17.0650  -23.1530   -4.7840 C.2     1  UNL1        0.0430
     37  C         17.4130  -23.8550   -5.9350 C.2     1  UNL1        0.1240
     38  F         16.7320  -24.9710   -6.2360 F       1  UNL1       -0.2050
@<TRIPOS>BOND
     1    30    29    1
     2    30    25    2
     3    29    28    2
     4    24    25    1
     5    24    23    1
     6    25    26    1
     7    28    27    1
     8    26    27    2
     9    23    21    1
    10    22    21    1
    11    21    19   am
    12    19    20    2
    13    19    16    1
    14    17    16    2
    15    17    18    1
    16    16    15    1
    17    18    13    2
    18    15    14    2
    19     5     6    1
    20     5     4    2
    21     6     7    2
    22    13    14    1
    23    13     1    1
    24     3     4    1
    25     3     2    1
    26     4     9    1
    27     7     8    1
    28     1     2    2
    29     2    11    1
    30     9     8    2
    31     9    10    1
    32    11    10   am
    33    11    12    2
    34    10    31    1
    35    31    32    1
    36    32    33    2
    37    32    37    1
    38    33    34    1
    39    38    37    1
    40    37    36    2
    41    34    35    2
    42    36    35    1
