@<TRIPOS>MOLECULE
35677_out_ligand_01.pdbqt
 36 39 0 0 0
SMALL
GASTEIGER

@<TRIPOS>ATOM
      1  C         21.1920  -22.8250  -10.0910 C.3     1  UNL1        0.1310
      2  C         22.4810  -21.9790  -10.3610 C.3     1  UNL1        0.1520
      3  N         23.1440  -22.2880  -11.6160 N.am    1  UNL1       -0.3510
      4  C         24.3750  -22.8970  -11.6780 C.2     1  UNL1        0.3090
      5  O         25.0720  -23.2120  -10.7230 O.2     1  UNL1       -0.2620
      6  H         22.6560  -22.1700  -12.5030 H       1  UNL1        0.1620
      7  C         24.8540  -23.1980  -13.1160 C.2     1  UNL1        0.3130
      8  N         24.4330  -22.2300  -14.0020 N.am    1  UNL1       -0.3180
      9  H         23.8830  -21.4960  -13.5650 H       1  UNL1        0.1690
     10  O         25.5200  -24.2050  -13.3100 O.2     1  UNL1       -0.2620
     11  C         24.6640  -22.1490  -15.3920 C.2     1  UNL1        0.0410
     12  C         24.3190  -23.1950  -16.2530 C.2     1  UNL1        0.0300
     13  C         24.5540  -23.0990  -17.6230 C.2     1  UNL1        0.0030
     14  C         25.1370  -21.9540  -18.1510 C.2     1  UNL1        0.0070
     15  C         25.4950  -20.8840  -17.3180 C.2     1  UNL1       -0.0540
     16  C         26.1230  -19.6700  -17.9530 C.3     1  UNL1        0.0490
     17  C         25.2620  -20.9750  -15.9230 C.2     1  UNL1       -0.0290
     18  C         25.6400  -19.8350  -15.0050 C.3     1  UNL1        0.0510
     19  C         19.9220  -22.1630  -10.5950 C.2     1  UNL1       -0.0170
     20  C         18.6870  -22.8160  -10.4890 C.2     1  UNL1        0.0120
     21  C         17.5280  -22.2060  -10.9600 C.2     1  UNL1        0.0200
     22  C         17.6360  -20.9520  -11.5340 C.2     1  UNL1        0.1160
     23  N         18.8030  -20.2880  -11.6660 N.2     1  UNL1       -0.2730
     24  C         19.9120  -20.9080  -11.2020 C.2     1  UNL1        0.1250
     25  N         21.1700  -23.2820   -8.6890 N.3     1  UNL1       -0.4000
     26  C         21.0200  -22.2770   -7.6240 C.3     1  UNL1        0.1320
     27  C         19.5740  -21.9970   -7.1410 C.3     1  UNL1        0.1150
     28  N         18.8850  -23.2560   -6.8050 N.pl3   1  UNL1       -0.2800
     29  C         18.8960  -24.2180   -7.9280 C.3     1  UNL1        0.1150
     30  C         20.3430  -24.4710   -8.4160 C.3     1  UNL1        0.1320
     31  C         17.6320  -23.1660   -6.1740 C.2     1  UNL1        0.0100
     32  C         17.4070  -23.5120   -4.8330 C.2     1  UNL1        0.0240
     33  C         16.1370  -23.4040   -4.2540 C.2     1  UNL1        0.0020
     34  C         15.0580  -22.9540   -5.0100 C.2     1  UNL1        0.0000
     35  C         15.2500  -22.6180   -6.3440 C.2     1  UNL1        0.0020
     36  C         16.5210  -22.7260   -6.9160 C.2     1  UNL1        0.0240
@<TRIPOS>BOND
     1    14    13    2
     2    14    15    1
     3    16    15    1
     4    13    12    1
     5    15    17    2
     6    12    11    2
     7    17    11    1
     8    17    18    1
     9    11     8    1
    10     8     9    1
    11     8     7   am
    12    10     7    2
    13     7     4    1
    14     6     3    1
    15     4     3   am
    16     4     5    2
    17    23    22    2
    18    23    24    1
    19     3     2    1
    20    22    21    1
    21    24    19    2
    22    21    20    2
    23    19    20    1
    24    19     1    1
    25     2     1    1
    26     1    25    1
    27    25    30    1
    28    25    26    1
    29    30    29    1
    30    29    28    1
    31    26    27    1
    32    27    28    1
    33    36    35    1
    34    36    31    2
    35    28    31    1
    36    35    34    2
    37    31    32    1
    38    34    33    1
    39    32    33    2
