@<TRIPOS>MOLECULE
35676_out_ligand_01.pdbqt
 34 37 0 0 0
SMALL
GASTEIGER

@<TRIPOS>ATOM
      1  C         23.5430  -22.4600  -10.0940 C.2     1  UNL1        0.0320
      2  C         23.3620  -21.7760   -8.8870 C.2     1  UNL1        0.0190
      3  C         22.1570  -21.8930   -8.1870 C.2     1  UNL1        0.0300
      4  C         21.1260  -22.7090   -8.6710 C.2     1  UNL1        0.0360
      5  C         21.3170  -23.3990   -9.8700 C.2     1  UNL1        0.0300
      6  C         22.5190  -23.2800  -10.5790 C.2     1  UNL1        0.0190
      7  N         19.9370  -22.7590   -7.9190 N.am    1  UNL1       -0.3090
      8  C         18.6390  -22.5540   -8.3570 C.2     1  UNL1        0.3270
      9  O         18.3160  -22.4460   -9.5390 O.2     1  UNL1       -0.2460
     10  N         17.6880  -22.5580   -7.3170 N.am    1  UNL1       -0.2990
     11  C         16.2660  -22.5310   -7.6800 C.3     1  UNL1        0.1340
     12  C         17.9790  -22.1850   -5.9690 C.2     1  UNL1        0.0450
     13  C         15.5410  -23.8280   -7.3450 C.3     1  UNL1        0.0210
     14  C         15.3300  -24.0130   -5.8440 C.3     1  UNL1        0.0060
     15  C         16.6330  -24.1660   -5.0700 C.3     1  UNL1        0.0410
     16  C         17.4130  -22.8840   -4.8880 C.2     1  UNL1       -0.0310
     17  C         17.6810  -22.4410   -3.5790 C.2     1  UNL1        0.0090
     18  C         18.4960  -21.3340   -3.3460 C.2     1  UNL1        0.0010
     19  C         19.0630  -20.6550   -4.4160 C.2     1  UNL1        0.0020
     20  C         18.8060  -21.0770   -5.7210 C.2     1  UNL1        0.0300
     21  H         20.0150  -23.0940   -6.9690 H       1  UNL1        0.1700
     22  C         24.8380  -22.3090  -10.8120 C.2     1  UNL1        0.2510
     23  O         25.4050  -23.2930  -11.2700 O.2     1  UNL1       -0.2680
     24  N         25.3550  -21.0320  -10.8730 N.am    1  UNL1       -0.3550
     25  H         24.9310  -20.2930  -10.3320 H       1  UNL1        0.1620
     26  C         26.5990  -20.7390  -11.5630 C.3     1  UNL1        0.1530
     27  C         26.4590  -19.6420  -12.6400 C.3     1  UNL1        0.2920
     28  N         26.4720  -20.1520  -14.0260 N.3     1  UNL1        0.0900
     29  C         25.2470  -19.8730  -14.7790 C.3     1  UNL1        0.2720
     30  C         23.9910  -20.6550  -14.3890 C.3     1  UNL1        0.0300
     31  C         24.1210  -22.1790  -14.3880 C.3     1  UNL1        0.0020
     32  C         25.0710  -22.7430  -15.4440 C.2     1  UNL1        0.0020
     33  C         26.5530  -22.3620  -15.2970 C.2     1  UNL1        0.0300
     34  C         26.9180  -21.5530  -14.0460 C.3     1  UNL1        0.2720
@<TRIPOS>BOND
     1    32    33    2
     2    32    31    1
     3    33    34    1
     4    29    30    1
     5    29    28    1
     6    30    31    1
     7    34    28    1
     8    28    27    1
     9    27    26    1
    10    26    24    1
    11    23    22    2
    12    24    22   am
    13    24    25    1
    14    22     1    1
    15     6     1    2
    16     6     5    1
    17     1     2    1
    18     5     4    2
    19     9     8    2
    20     2     3    2
    21     4     3    1
    22     4     7    1
    23     8     7   am
    24     8    10   am
    25     7    21    1
    26    11    13    1
    27    11    10    1
    28    13    14    1
    29    10    12    1
    30    12    20    2
    31    12    16    1
    32    14    15    1
    33    20    19    1
    34    15    16    1
    35    16    17    2
    36    19    18    2
    37    17    18    1
