@<TRIPOS>MOLECULE
35689_out_ligand_01.pdbqt
 33 36 0 0 0
SMALL
GASTEIGER

@<TRIPOS>ATOM
      1  C         21.9370  -22.6410   -8.6870 C.2     1  UNL1        0.1060
      2  C         21.5490  -21.7530   -7.6510 C.2     1  UNL1        0.0670
      3  C         20.3490  -22.2260   -7.1470 C.2     1  UNL1        0.1060
      4  O         19.9960  -23.3510   -7.8450 O.2     1  UNL1       -0.3110
      5  C         20.9560  -23.5970   -8.7790 C.2     1  UNL1        0.0720
      6  C         20.7460  -24.7800   -9.6370 C.3     1  UNL1        0.0780
      7  C         19.5360  -21.7070   -6.0930 C.2     1  UNL1        0.1010
      8  N         19.7860  -20.5310   -5.4400 N.pl3   1  UNL1       -0.2750
      9  N         18.8720  -20.2200   -4.5040 N.2     1  UNL1       -0.1860
     10  H         20.5510  -19.8830   -5.5900 H       1  UNL1        0.1890
     11  C         18.0280  -21.2550   -4.5410 C.2     1  UNL1        0.1580
     12  C         18.3770  -22.2040   -5.5240 C.2     1  UNL1        0.0820
     13  C         17.7060  -23.4480   -5.8360 C.2     1  UNL1        0.2570
     14  O         17.7200  -24.3780   -5.0330 O.2     1  UNL1       -0.2670
     15  N         17.0220  -23.5050   -7.0510 N.am    1  UNL1       -0.3480
     16  C         16.2680  -24.7150   -7.3650 C.3     1  UNL1        0.1260
     17  C         17.0620  -22.4500   -8.0670 C.3     1  UNL1        0.1260
     18  C         15.0460  -24.4050   -8.2230 C.3     1  UNL1        0.0200
     19  C         15.4150  -23.6980   -9.5280 C.3     1  UNL1        0.0030
     20  C         16.7650  -22.9850   -9.4630 C.3     1  UNL1        0.0200
     21  S         23.3640  -22.5490   -9.6390 S.O2    1  UNL1        0.2480
     22  O         23.5800  -21.1310   -9.8020 O.2     1  UNL1       -0.2050
     23  O         24.2960  -23.4120   -8.9450 O.2     1  UNL1       -0.2050
     24  N         23.0000  -23.2800  -11.1330 N.pl3   1  UNL1       -0.1810
     25  H         23.5210  -24.1570  -11.1840 H       1  UNL1        0.1460
     26  C         23.2800  -22.4470  -12.2690 C.2     1  UNL1        0.0290
     27  C         22.2890  -21.6030  -12.7880 C.2     1  UNL1       -0.0400
     28  C         22.6210  -20.7550  -13.8550 C.2     1  UNL1        0.0090
     29  C         20.9030  -21.5550  -12.2150 C.3     1  UNL1        0.0500
     30  C         23.9060  -20.7650  -14.4030 C.2     1  UNL1        0.0070
     31  C         24.8880  -21.6190  -13.8940 C.2     1  UNL1       -0.0600
     32  C         26.2810  -21.5920  -14.4510 C.3     1  UNL1        0.0480
     33  C         24.5710  -22.4480  -12.8120 C.2     1  UNL1        0.0310
@<TRIPOS>BOND
     1    32    31    1
     2    30    31    2
     3    30    28    1
     4    31    33    1
     5    28    27    2
     6    33    26    2
     7    27    26    1
     8    27    29    1
     9    26    24    1
    10    25    24    1
    11    24    21    1
    12    22    21    2
    13    21    23    2
    14    21     1    1
    15     6     5    1
    16    19    20    1
    17    19    18    1
    18    20    17    1
    19     5     1    2
    20     5     4    1
    21     1     2    1
    22    18    16    1
    23    17    15    1
    24     4     3    1
    25     2     3    2
    26    16    15    1
    27     3     7    1
    28    15    13   am
    29     7    12    2
    30     7     8    1
    31    13    12    1
    32    13    14    2
    33    10     8    1
    34    12    11    1
    35     8     9    1
    36    11     9    2
