@<TRIPOS>MOLECULE
35683_out_ligand_01.pdbqt
 31 34 0 0 0
SMALL
GASTEIGER

@<TRIPOS>ATOM
      1  C         18.9930  -22.3770   -9.8340 C.2     1  UNL1        0.0340
      2  C         18.1830  -21.5580  -10.6270 C.2     1  UNL1        0.0170
      3  C         18.7190  -20.9550  -11.7650 C.2     1  UNL1        0.0030
      4  C         20.0560  -21.1710  -12.1170 C.2     1  UNL1        0.0290
      5  C         20.8710  -21.9940  -11.3370 C.2     1  UNL1        0.0370
      6  C         20.3280  -22.6030  -10.1990 C.2     1  UNL1        0.0460
      7  N         22.2160  -22.2810  -11.6400 N.am    1  UNL1       -0.3090
      8  C         23.3470  -21.8600  -10.9730 C.2     1  UNL1        0.3270
      9  O         23.3350  -21.2950   -9.8810 O.2     1  UNL1       -0.2460
     10  N         24.5490  -22.2320  -11.5940 N.am    1  UNL1       -0.2960
     11  C         25.7340  -22.3460  -10.7400 C.3     1  UNL1        0.1440
     12  C         24.7710  -22.3610  -13.0080 C.2     1  UNL1        0.0740
     13  C         26.4040  -23.6990  -10.9000 C.3     1  UNL1        0.1010
     14  S         27.1200  -23.8760  -12.5530 S.3     1  UNL1       -0.1060
     15  C         25.8730  -23.0590  -13.5370 C.2     1  UNL1        0.1200
     16  N         26.1010  -23.1840  -14.8700 N.2     1  UNL1       -0.2520
     17  C         25.2420  -22.5900  -15.7200 C.2     1  UNL1        0.1180
     18  C         24.1530  -21.8530  -15.3040 C.2     1  UNL1        0.0220
     19  C         23.9260  -21.7320  -13.9360 C.2     1  UNL1        0.0340
     20  H         22.3740  -23.0010  -12.3330 H       1  UNL1        0.1700
     21  C         18.4790  -23.0600   -8.6160 C.2     1  UNL1        0.2520
     22  O         18.9280  -24.1560   -8.3000 O.2     1  UNL1       -0.2680
     23  N         17.5220  -22.3840   -7.8870 N.am    1  UNL1       -0.3520
     24  H         17.2110  -21.4730   -8.1900 H       1  UNL1        0.1630
     25  C         16.8740  -22.9780   -6.7180 C.3     1  UNL1        0.0840
     26  C         17.6970  -22.6470   -5.4640 C.3     1  UNL1        0.0250
     27  C         17.3130  -23.4970   -4.2570 C.3     1  UNL1        0.0020
     28  C         16.1680  -22.9460   -3.4140 C.3     1  UNL1        0.0000
     29  C         15.0000  -22.3100   -4.1600 C.3     1  UNL1        0.0000
     30  C         14.6100  -23.0040   -5.4610 C.3     1  UNL1        0.0020
     31  C         15.4140  -22.5090   -6.6620 C.3     1  UNL1        0.0250
@<TRIPOS>BOND
     1    17    18    2
     2    17    16    1
     3    18    19    1
     4    16    15    2
     5    19    12    2
     6    15    12    1
     7    15    14    1
     8    12    10    1
     9    14    13    1
    10    20     7    1
    11     4     3    2
    12     4     5    1
    13     3     2    1
    14     7     5    1
    15     7     8   am
    16    10     8   am
    17    10    11    1
    18     5     6    2
    19     8     9    2
    20    13    11    1
    21     2     1    2
    22     6     1    1
    23     1    21    1
    24    21    22    2
    25    21    23   am
    26    24    23    1
    27    23    25    1
    28    25    31    1
    29    25    26    1
    30    31    30    1
    31    26    27    1
    32    30    29    1
    33    27    28    1
    34    29    28    1
