@<TRIPOS>MOLECULE
35698_out_ligand_01.pdbqt
 35 39 0 0 0
SMALL
GASTEIGER

@<TRIPOS>ATOM
      1  N         23.8760  -22.4720  -10.5510 N.am    1  UNL1       -0.2250
      2  N         22.7820  -21.8260  -11.1540 N.pl3   1  UNL1       -0.1670
      3  C         21.7270  -22.2800  -10.5260 C.2     1  UNL1        0.1060
      4  C         20.3180  -21.9600  -10.7450 C.2     1  UNL1        0.0220
      5  C         19.9760  -21.0710  -11.7700 C.3     1  UNL1        0.0160
      6  C         18.6390  -20.7640  -11.9910 C.2     1  UNL1        0.0010
      7  C         17.6600  -21.3490  -11.1910 C.2     1  UNL1        0.0020
      8  C         18.0090  -22.2420  -10.1660 C.2     1  UNL1        0.0300
      9  C         19.3460  -22.5760   -9.9070 C.2     1  UNL1        0.0470
     10  N         19.7600  -23.4780   -8.8850 N.pl3   1  UNL1       -0.3510
     11  C         21.1200  -23.7570   -8.7300 C.2     1  UNL1        0.1110
     12  C         22.0830  -23.2210   -9.4720 C.2     1  UNL1        0.0800
     13  C         23.5400  -23.3320   -9.4960 C.2     1  UNL1        0.2780
     14  O         24.2400  -24.0040   -8.7680 O.2     1  UNL1       -0.2650
     15  C         25.2420  -22.1910  -10.9540 C.3     1  UNL1        0.2570
     16  C         25.5220  -22.5810  -12.4090 C.2     1  UNL1        0.2420
     17  N         24.9080  -21.7440  -13.3230 N.am    1  UNL1       -0.3260
     18  H         24.3450  -21.0070  -12.8950 H       1  UNL1        0.1690
     19  O         26.1300  -23.6170  -12.6750 O.2     1  UNL1       -0.2710
     20  C         24.9250  -21.8090  -14.7270 C.2     1  UNL1        0.0360
     21  C         24.4540  -22.9890  -15.3120 C.2     1  UNL1        0.0290
     22  C         24.4320  -23.1320  -16.6990 C.2     1  UNL1        0.0040
     23  C         24.8830  -22.0920  -17.5120 C.2     1  UNL1        0.0180
     24  C         25.3640  -20.9080  -16.9450 C.2     1  UNL1        0.0020
     25  C         25.3670  -20.7690  -15.5500 C.2     1  UNL1        0.0480
     26  S         25.9060  -19.6160  -18.0590 S.3     1  UNL1       -0.1340
     27  C         26.4700  -18.3420  -16.8930 C.3     1  UNL1        0.0950
     28  C         18.7740  -24.1100   -7.9850 C.3     1  UNL1        0.1670
     29  C         18.5610  -23.3090   -6.7160 C.2     1  UNL1       -0.0370
     30  C         17.7990  -23.8090   -5.6470 C.2     1  UNL1        0.0090
     31  C         17.5920  -23.0450   -4.4930 C.2     1  UNL1        0.0040
     32  C         18.1380  -21.7680   -4.3960 C.2     1  UNL1        0.0420
     33  C         18.8850  -21.2650   -5.4530 C.2     1  UNL1        0.1170
     34  F         19.4080  -20.0350   -5.3650 F       1  UNL1       -0.2060
     35  C         19.0980  -22.0150   -6.6060 C.2     1  UNL1        0.0510
@<TRIPOS>BOND
     1    26    24    1
     2    26    27    1
     3    23    24    2
     4    23    22    1
     5    24    25    1
     6    22    21    2
     7    25    20    2
     8    21    20    1
     9    20    17    1
    10    17    18    1
    11    17    16   am
    12    19    16    2
    13    16    15    1
    14     6     5    1
    15     6     7    2
    16     5     4    1
    17     7     8    1
    18     2     1    1
    19     2     3    1
    20    15     1    1
    21     4     3    2
    22     4     9    1
    23     1    13   am
    24     3    12    1
    25     8     9    2
    26     9    10    1
    27    13    12    1
    28    13    14    2
    29    12    11    2
    30    10    11    1
    31    10    28    1
    32    28    29    1
    33    29    35    2
    34    29    30    1
    35    35    33    1
    36    30    31    2
    37    33    34    1
    38    33    32    2
    39    31    32    1
