@<TRIPOS>MOLECULE
3569_out_ligand_01.pdbqt
 34 38 0 0 0
SMALL
GASTEIGER

@<TRIPOS>ATOM
      1  C         20.3890  -21.7860  -10.9710 C.2     1  UNL1        0.0480
      2  C         19.9040  -20.8320  -11.8780 C.2     1  UNL1        0.0180
      3  C         18.5300  -20.6750  -12.0520 C.2     1  UNL1        0.0010
      4  C         17.6460  -21.4660  -11.3230 C.2     1  UNL1        0.0010
      5  C         18.1310  -22.4170  -10.4200 C.2     1  UNL1        0.0190
      6  C         19.5090  -22.5860  -10.2280 C.2     1  UNL1        0.0160
      7  C         21.8540  -21.9030  -10.8270 C.2     1  UNL1        0.2540
      8  O         22.4920  -21.0550  -10.2170 O.2     1  UNL1       -0.2680
      9  N         22.3980  -23.0040  -11.4450 N.am    1  UNL1       -0.3400
     10  H         21.8030  -23.5700  -12.0340 H       1  UNL1        0.1640
     11  C         23.8300  -23.0970  -11.6780 C.3     1  UNL1        0.2110
     12  C         24.5210  -23.0830  -10.2850 C.2     1  UNL1        0.2450
     13  O         23.9920  -23.4940   -9.2520 O.2     1  UNL1       -0.2710
     14  N         25.7950  -22.5800  -10.2300 N.am    1  UNL1       -0.3550
     15  C         26.5480  -22.2200  -11.4040 C.3     1  UNL1        0.1610
     16  H         26.2550  -22.6610   -9.3320 H       1  UNL1        0.1620
     17  C         25.6750  -21.5560  -12.4320 C.2     1  UNL1       -0.0320
     18  C         26.1890  -20.5700  -13.2840 C.2     1  UNL1        0.0090
     19  C         24.3400  -21.9840  -12.5800 C.2     1  UNL1       -0.0180
     20  C         25.3850  -20.0080  -14.2750 C.2     1  UNL1        0.0010
     21  C         24.0700  -20.4400  -14.4340 C.2     1  UNL1        0.0010
     22  C         23.5510  -21.4300  -13.6000 C.2     1  UNL1        0.0100
     23  S         20.0540  -23.8570   -9.0940 S.3     1  UNL1       -0.1230
     24  C         20.1380  -22.8570   -7.5650 C.3     1  UNL1        0.1420
     25  C         18.8340  -22.8820   -6.8390 C.ar    1  UNL1        0.0810
     26  N         17.8940  -23.8560   -7.1310 N.ar    1  UNL1       -0.2320
     27  C         16.8740  -23.6170   -6.3350 C.ar    1  UNL1        0.1350
     28  C         15.6280  -24.2900   -6.1860 C.2     1  UNL1        0.0510
     29  N         17.1030  -22.5090   -5.5240 N.ar    1  UNL1       -0.2990
     30  C         14.7310  -23.8460   -5.2840 C.2     1  UNL1        0.0050
     31  C         15.0020  -22.6850   -4.4510 C.2     1  UNL1        0.0180
     32  C         16.1760  -22.0440   -4.5880 C.2     1  UNL1        0.0990
     33  C         18.3520  -22.0420   -5.8540 C.ar    1  UNL1        0.1130
     34 BR         19.2550  -20.5460   -5.1010 Br      1  UNL1       -0.0290
@<TRIPOS>BOND
     1    21    20    2
     2    21    22    1
     3    20    18    1
     4    22    19    2
     5    18    17    2
     6    19    17    1
     7    19    11    1
     8    17    15    1
     9     3     2    1
    10     3     4    2
    11    10     9    1
    12     2     1    2
    13    11     9    1
    14    11    12    1
    15     9     7   am
    16    15    14    1
    17     4     5    1
    18     1     7    1
    19     1     6    1
    20     7     8    2
    21     5     6    2
    22    12    14   am
    23    12    13    2
    24    14    16    1
    25     6    23    1
    26    23    24    1
    27    24    25    1
    28    26    25   ar
    29    26    27   ar
    30    25    33   ar
    31    27    28    1
    32    27    29   ar
    33    28    30    2
    34    33    29   ar
    35    33    34    1
    36    29    32    1
    37    30    31    1
    38    32    31    2
