@<TRIPOS>MOLECULE
356_out_ligand_01.pdbqt
 39 41 0 0 0
SMALL
GASTEIGER

@<TRIPOS>ATOM
      1  C         20.3780  -21.9030  -11.1500 C.2     1  UNL1        0.0320
      2  C         20.8840  -22.6990  -10.1130 C.2     1  UNL1        0.0190
      3  C         22.2210  -23.1010  -10.1180 C.2     1  UNL1        0.0310
      4  C         23.0560  -22.7180  -11.1680 C.2     1  UNL1        0.0420
      5  C         22.5610  -21.9280  -12.2040 C.2     1  UNL1        0.0310
      6  C         21.2220  -21.5230  -12.2010 C.2     1  UNL1        0.0190
      7  C         18.9410  -21.5150  -11.1060 C.2     1  UNL1        0.2510
      8  N         18.1230  -22.2720  -10.2960 N.am    1  UNL1       -0.3570
      9  H         18.4590  -23.1650   -9.9560 H       1  UNL1        0.1620
     10  O         18.5350  -20.5880  -11.7980 O.2     1  UNL1       -0.2680
     11  C         16.6860  -22.0610  -10.2700 C.3     1  UNL1        0.1270
     12  C         15.9110  -23.2460   -9.6830 C.3     1  UNL1        0.0580
     13  C         16.0060  -23.3200   -8.1740 C.2     1  UNL1       -0.0570
     14  C         16.7590  -24.3340   -7.5650 C.2     1  UNL1        0.0090
     15  C         16.8740  -24.3920   -6.1760 C.2     1  UNL1        0.0250
     16  C         16.2240  -23.4350   -5.3920 C.2     1  UNL1        0.0740
     17  C         15.4810  -22.4110   -5.9840 C.2     1  UNL1        0.0250
     18  C         15.3720  -22.3580   -7.3740 C.2     1  UNL1        0.0090
     19  S         16.3810  -23.5110   -3.6280 S.O2    1  UNL1        0.2390
     20  O         15.6260  -24.6460   -3.1530 O.2     1  UNL1       -0.2060
     21  O         17.7670  -23.2970   -3.2800 O.2     1  UNL1       -0.2060
     22  N         15.5730  -22.1100   -3.1580 N.3     1  UNL1       -0.2250
     23  H         14.8450  -21.8260   -3.8130 H       1  UNL1        0.1360
     24  H         16.2600  -21.3690   -3.0070 H       1  UNL1        0.1360
     25  N         24.3970  -23.1810  -11.1810 N.pl3   1  UNL1       -0.2810
     26  H         24.6030  -24.0830  -11.6080 H       1  UNL1        0.1790
     27  S         25.6740  -22.0840  -11.2930 S.O2    1  UNL1        0.2650
     28  O         25.3210  -20.8570  -10.6220 O.2     1  UNL1       -0.2000
     29  O         26.8510  -22.8240  -10.8840 O.2     1  UNL1       -0.2000
     30  C         25.8280  -21.8240  -13.0480 C.2     1  UNL1        0.1030
     31  C         25.4880  -22.9190  -13.8700 C.2     1  UNL1        0.0630
     32  C         25.5940  -22.8080  -15.2620 C.2     1  UNL1        0.1040
     33  C         26.0470  -21.6230  -15.8440 C.2     1  UNL1        0.0380
     34  C         26.3900  -20.5470  -15.0220 C.2     1  UNL1        0.0280
     35  C         26.2880  -20.6360  -13.6240 C.2     1  UNL1        0.0570
     36 CL         26.7270  -19.2110  -12.7600 Cl      1  UNL1       -0.0830
     37  N         25.2140  -23.9400  -16.1150 N.pl3   1  UNL1       -0.1160
     38  O         25.1990  -25.0640  -15.5950 O.2     1  UNL1       -0.5320
     39  O         24.9230  -23.6990  -17.2940 O.2     1  UNL1       -0.5320
@<TRIPOS>BOND
     1    39    37    2
     2    37    38    2
     3    37    32    1
     4    33    32    2
     5    33    34    1
     6    32    31    1
     7    34    35    2
     8    31    30    2
     9    35    30    1
    10    35    36    1
    11    30    27    1
    12     5     6    1
    13     5     4    2
    14     6     1    2
    15    10     7    2
    16    26    25    1
    17    27    25    1
    18    27    29    2
    19    27    28    2
    20    25     4    1
    21     4     3    1
    22     1     7    1
    23     1     2    1
    24     7     8   am
    25     8    11    1
    26     8     9    1
    27    11    12    1
    28     3     2    2
    29    12    13    1
    30    13    14    2
    31    13    18    1
    32    14    15    1
    33    18    17    2
    34    15    16    2
    35    17    16    1
    36    16    19    1
    37    23    22    1
    38    19    21    2
    39    19    22    1
    40    19    20    2
    41    22    24    1
