@<TRIPOS>MOLECULE
35702_out_ligand_01.pdbqt
 34 37 0 0 0
SMALL
GASTEIGER

@<TRIPOS>ATOM
      1  C         20.9230  -22.1750  -11.3270 C.2     1  UNL1        0.0370
      2  C         20.1340  -21.2190  -11.9830 C.2     1  UNL1        0.0290
      3  C         18.7950  -21.0350  -11.6330 C.2     1  UNL1        0.0030
      4  C         18.2320  -21.7960  -10.6120 C.2     1  UNL1        0.0170
      5  C         19.0150  -22.7380   -9.9340 C.2     1  UNL1        0.0340
      6  C         20.3560  -22.9330  -10.3000 C.2     1  UNL1        0.0460
      7  N         22.2640  -22.2880  -11.7470 N.am    1  UNL1       -0.3090
      8  C         23.3920  -21.7730  -11.1390 C.2     1  UNL1        0.3270
      9  N         24.5930  -22.0350  -11.8270 N.am    1  UNL1       -0.2960
     10  O         23.4030  -21.2170  -10.0440 O.2     1  UNL1       -0.2460
     11  C         25.7560  -22.2040  -10.9490 C.3     1  UNL1        0.1440
     12  C         24.7000  -22.3290  -13.2310 C.2     1  UNL1        0.0800
     13  C         27.0610  -22.6380  -11.5980 C.3     1  UNL1        0.1010
     14  S         26.7640  -24.1030  -12.6100 S.3     1  UNL1       -0.1060
     15  C         25.5890  -23.3170  -13.6960 C.2     1  UNL1        0.1210
     16  N         25.6650  -23.7280  -14.9840 N.2     1  UNL1       -0.2440
     17  C         24.8700  -23.1220  -15.8870 C.2     1  UNL1        0.0320
     18  C         24.9710  -23.5830  -17.3100 C.3     1  UNL1        0.0700
     19  C         24.0260  -22.0750  -15.5440 C.2     1  UNL1        0.0350
     20  C         23.9550  -21.6410  -14.2110 C.2     1  UNL1       -0.0300
     21  C         23.1320  -20.4070  -13.9430 C.3     1  UNL1        0.0500
     22  H         22.4430  -22.9430  -12.4950 H       1  UNL1        0.1700
     23  C         18.4490  -23.5650   -8.8330 C.2     1  UNL1        0.2510
     24  O         19.1820  -24.2390   -8.1210 O.2     1  UNL1       -0.2680
     25  N         17.0790  -23.4830   -8.6580 N.am    1  UNL1       -0.3570
     26  H         16.6090  -22.6820   -9.0580 H       1  UNL1        0.1620
     27  C         16.4570  -24.1100   -7.5030 C.3     1  UNL1        0.1270
     28  C         15.9520  -23.0710   -6.4970 C.3     1  UNL1        0.0530
     29  C         16.9660  -22.4790   -5.5360 C.2     1  UNL1       -0.0820
     30  C         18.0040  -21.6990   -5.8950 C.2     1  UNL1       -0.0240
     31  C         18.9770  -21.0910   -4.9240 C.3     1  UNL1        0.0270
     32  C         18.5070  -21.1630   -3.4720 C.3     1  UNL1        0.0040
     33  C         17.9110  -22.5300   -3.1620 C.3     1  UNL1        0.0050
     34  C         16.7270  -22.8360   -4.0820 C.3     1  UNL1        0.0340
@<TRIPOS>BOND
     1    18    17    1
     2    17    19    2
     3    17    16    1
     4    19    20    1
     5    16    15    2
     6    20    21    1
     7    20    12    2
     8    15    12    1
     9    15    14    1
    10    12     9    1
    11    14    13    1
    12    22     7    1
    13     2     3    1
    14     2     1    2
    15     9     8   am
    16     9    11    1
    17     7     1    1
    18     7     8   am
    19     3     4    2
    20    13    11    1
    21     1     6    1
    22     8    10    2
    23     4     5    1
    24     6     5    2
    25     5    23    1
    26    26    25    1
    27    23    25   am
    28    23    24    2
    29    25    27    1
    30    27    28    1
    31    28    29    1
    32    30    29    2
    33    30    31    1
    34    29    34    1
    35    31    32    1
    36    34    33    1
    37    32    33    1
