@<TRIPOS>MOLECULE
35703_out_ligand_01.pdbqt
 31 34 0 0 0
SMALL
GASTEIGER

@<TRIPOS>ATOM
      1  C         19.5730  -23.2330   -9.2190 C.2     1  UNL1       -0.0050
      2  C         21.0240  -23.4460   -9.6120 C.2     1  UNL1        0.0410
      3  C         21.8780  -24.3930   -8.7930 C.3     1  UNL1        0.0710
      4  N         21.6170  -22.8730  -10.6180 N.2     1  UNL1       -0.2330
      5  C         20.8780  -22.0260  -11.3880 C.2     1  UNL1        0.1680
      6  C         21.1990  -21.2790  -12.5070 C.2     1  UNL1        0.0980
      7  C         20.0030  -20.6050  -12.8220 C.2     1  UNL1        0.1600
      8  N         19.0080  -20.8700  -11.9790 N.2     1  UNL1       -0.1770
      9  N         19.5370  -21.7630  -11.0990 N.pl3   1  UNL1       -0.2190
     10  C         18.8870  -22.3710  -10.0100 C.2     1  UNL1        0.0430
     11  C         17.4380  -22.0030   -9.8330 C.3     1  UNL1        0.0710
     12  C         22.4780  -21.2360  -13.1930 C.2     1  UNL1        0.2570
     13  O         22.6270  -20.7870  -14.3240 O.2     1  UNL1       -0.2670
     14  N         23.5290  -21.7530  -12.4560 N.am    1  UNL1       -0.3520
     15  H         23.3020  -22.3330  -11.6610 H       1  UNL1        0.1630
     16  C         24.8600  -21.9090  -13.0390 C.3     1  UNL1        0.0880
     17  C         24.8560  -23.1170  -13.9950 C.3     1  UNL1        0.0250
     18  C         26.2050  -23.8160  -14.0530 C.3     1  UNL1        0.0020
     19  C         26.6290  -24.3410  -12.6810 C.3     1  UNL1        0.0050
     20  C         26.1560  -23.4670  -11.4990 C.3     1  UNL1       -0.0130
     21  C         27.1210  -23.6360  -10.3220 C.3     1  UNL1        0.0100
     22  C         25.9690  -22.0010  -11.9510 C.3     1  UNL1        0.0080
     23  C         25.7280  -21.0190  -10.7990 C.3     1  UNL1        0.0120
     24  C         19.0390  -23.9250   -7.9860 C.3     1  UNL1        0.0820
     25  C         18.7260  -23.0150   -6.8080 C.2     1  UNL1       -0.0480
     26  C         19.5680  -21.9240   -6.5190 C.2     1  UNL1        0.0080
     27  C         19.3200  -21.0850   -5.4330 C.2     1  UNL1        0.0010
     28  C         18.2340  -21.3300   -4.6030 C.2     1  UNL1        0.0010
     29  C         17.4020  -22.4190   -4.8530 C.2     1  UNL1        0.0070
     30  C         17.6410  -23.2770   -5.9400 C.2     1  UNL1       -0.0550
     31  C         16.7130  -24.4440   -6.1450 C.3     1  UNL1        0.0490
@<TRIPOS>BOND
     1    13    12    2
     2    18    17    1
     3    18    19    1
     4    17    16    1
     5    12     6    1
     6    12    14   am
     7    16    14    1
     8    16    22    1
     9     7     6    1
    10     7     8    2
    11    19    20    1
    12     6     5    2
    13    14    15    1
    14     8     9    1
    15    22    20    1
    16    22    23    1
    17    20    21    1
    18     5     9    1
    19     5     4    1
    20     9    10    1
    21     4     2    2
    22    10    11    1
    23    10     1    2
    24     2     1    1
    25     2     3    1
    26     1    24    1
    27    24    25    1
    28    25    26    2
    29    25    30    1
    30    26    27    1
    31    31    30    1
    32    30    29    2
    33    27    28    2
    34    29    28    1
