@<TRIPOS>MOLECULE
35717_out_ligand_01.pdbqt
 43 46 0 0 0
SMALL
GASTEIGER

@<TRIPOS>ATOM
      1  C         22.0320  -21.9020  -11.0830 C.2     1  UNL1        0.0980
      2  C         21.5880  -20.9690  -11.9410 C.2     1  UNL1        0.1090
      3  N         20.2690  -20.6820  -12.1880 N.pl3   1  UNL1       -0.3640
      4  C         19.2540  -21.2820  -11.4340 C.2     1  UNL1        0.0460
      5  C         17.9160  -20.9160  -11.6070 C.2     1  UNL1        0.0320
      6  C         16.9110  -21.5370  -10.8590 C.2     1  UNL1        0.0270
      7  C         17.2470  -22.5490   -9.9520 C.2     1  UNL1        0.0810
      8  C         18.5770  -22.9320   -9.7660 C.2     1  UNL1        0.0430
      9  C         19.5740  -22.2990  -10.5140 C.2     1  UNL1        0.0430
     10  C         21.0000  -22.6910  -10.3480 C.2     1  UNL1        0.2010
     11  O         21.3010  -23.6370   -9.6250 O.2     1  UNL1       -0.2860
     12  H         20.0500  -19.8740  -12.7680 H       1  UNL1        0.1650
     13  C         23.5030  -22.0680  -10.9190 C.2     1  UNL1        0.2570
     14  N         24.0330  -23.1910  -11.5020 N.am    1  UNL1       -0.3560
     15  H         23.3930  -23.8370  -11.9680 H       1  UNL1        0.1620
     16  O         24.1740  -21.2570  -10.2860 O.2     1  UNL1       -0.2670
     17  C         25.4260  -23.5620  -11.3760 C.3     1  UNL1        0.1270
     18  C         26.3020  -23.0050  -12.5080 C.3     1  UNL1        0.0580
     19  C         25.7390  -23.0760  -13.9110 C.2     1  UNL1       -0.0540
     20  C         25.5370  -24.2970  -14.5630 C.2     1  UNL1        0.0100
     21  C         24.9710  -24.3410  -15.8410 C.2     1  UNL1        0.0400
     22  C         24.5870  -23.1630  -16.4890 C.2     1  UNL1        0.1010
     23  C         24.7640  -21.9270  -15.8380 C.2     1  UNL1        0.1020
     24  C         25.3370  -21.8930  -14.5580 C.2     1  UNL1        0.0460
     25  O         24.0210  -23.1160  -17.7430 O.2     1  UNL1       -0.3530
     26  C         22.8180  -23.8420  -17.9450 C.3     1  UNL1        0.2100
     27  O         24.3450  -20.8160  -16.5300 O.2     1  UNL1       -0.3530
     28  C         25.3170  -20.1000  -17.2750 C.3     1  UNL1        0.2100
     29  S         15.9720  -23.3480   -9.0050 S.O2    1  UNL1        0.2630
     30  O         15.3600  -24.3590   -9.8390 O.2     1  UNL1       -0.2000
     31  O         15.1780  -22.3110   -8.3830 O.2     1  UNL1       -0.2000
     32  N         16.8430  -24.0860   -7.7670 N.pl3   1  UNL1       -0.2810
     33  H         16.9530  -25.0940   -7.8960 H       1  UNL1        0.1790
     34  C         16.8300  -23.5570   -6.4500 C.2     1  UNL1        0.0430
     35  C         15.8780  -23.9630   -5.5140 C.2     1  UNL1        0.0300
     36  C         15.8840  -23.4200   -4.2290 C.2     1  UNL1        0.0030
     37  C         16.8440  -22.4690   -3.8760 C.2     1  UNL1        0.0160
     38  C         17.8070  -22.0510   -4.8060 C.2     1  UNL1        0.0500
     39  C         17.7840  -22.5950   -6.1010 C.2     1  UNL1        0.0460
     40  C         18.8290  -21.0070   -4.4240 C.3     1  UNL1        0.4170
     41  F         19.9300  -21.0270   -5.2280 F       1  UNL1       -0.1660
     42  F         19.2880  -21.1750   -3.1530 F       1  UNL1       -0.1660
     43  F         18.3480  -19.7320   -4.4860 F       1  UNL1       -0.1660
@<TRIPOS>BOND
     1    26    25    1
     2    25    22    1
     3    28    27    1
     4    27    23    1
     5    22    21    2
     6    22    23    1
     7    21    20    1
     8    23    24    2
     9    20    19    2
    10    24    19    1
    11    19    18    1
    12    12     3    1
    13    18    17    1
    14     3     2    1
    15     3     4    1
    16    15    14    1
    17     2     1    2
    18     5     4    2
    19     5     6    1
    20    14    17    1
    21    14    13   am
    22     4     9    1
    23     1    13    1
    24     1    10    1
    25    13    16    2
    26     6     7    2
    27     9    10    1
    28     9     8    2
    29    10    11    2
    30     7     8    1
    31     7    29    1
    32    30    29    2
    33    29    31    2
    34    29    32    1
    35    33    32    1
    36    32    34    1
    37    34    39    2
    38    34    35    1
    39    39    38    1
    40    35    36    2
    41    41    40    1
    42    38    40    1
    43    38    37    2
    44    43    40    1
    45    40    42    1
    46    36    37    1
