@<TRIPOS>MOLECULE
35714_out_ligand_01.pdbqt
 35 38 0 0 0
SMALL
GASTEIGER

@<TRIPOS>ATOM
      1  C         21.7000  -22.2420  -11.5250 C.2     1  UNL1        0.0170
      2  C         20.7420  -21.4450  -12.1740 C.2     1  UNL1        0.0170
      3  C         19.4030  -21.4520  -11.7660 C.2     1  UNL1        0.0180
      4  C         18.9990  -22.2750  -10.7070 C.2     1  UNL1        0.0320
      5  C         19.9450  -23.0870  -10.0690 C.2     1  UNL1        0.0180
      6  C         21.2830  -23.0720  -10.4750 C.2     1  UNL1        0.0170
      7  C         23.1010  -22.1390  -11.9180 C.ar    1  UNL1        0.1800
      8  N         23.6680  -21.3070  -12.7710 N.ar    1  UNL1       -0.2250
      9  C         25.0190  -21.5170  -12.6110 C.ar    1  UNL1        0.0780
     10  C         25.2120  -22.5380  -11.7020 C.ar    1  UNL1        0.0770
     11  O         23.9870  -22.9470  -11.2590 O.2     1  UNL1       -0.2940
     12  C         26.3790  -23.2060  -11.1030 C.3     1  UNL1        0.0790
     13  C         26.0260  -20.6930  -13.3270 C.3     1  UNL1        0.1760
     14  S         26.3670  -21.1980  -15.0490 S.O     1  UNL1        0.0550
     15  O         25.1650  -21.9120  -15.5980 O.2     1  UNL1       -0.2520
     16  C         26.4160  -19.5810  -15.8520 C.2     1  UNL1        0.0310
     17  C         26.6510  -18.4300  -15.0930 C.2     1  UNL1        0.0210
     18  C         26.6330  -17.1710  -15.7010 C.2     1  UNL1        0.0080
     19  C         26.3790  -17.0480  -17.0730 C.2     1  UNL1       -0.0620
     20  C         26.3650  -15.6980  -17.7230 C.3     1  UNL1        0.0480
     21  C         26.1840  -18.2060  -17.8360 C.2     1  UNL1        0.0080
     22  C         26.2040  -19.4640  -17.2300 C.2     1  UNL1        0.0210
     23  C         17.6050  -22.2640  -10.1800 C.2     1  UNL1        0.2510
     24  O         16.8500  -21.3450  -10.4740 O.2     1  UNL1       -0.2680
     25  N         17.2370  -23.3240   -9.3770 N.am    1  UNL1       -0.3570
     26  H         17.9670  -23.8920   -8.9650 H       1  UNL1        0.1620
     27  C         15.9240  -23.3700   -8.7660 C.3     1  UNL1        0.1230
     28  C         15.9870  -23.9860   -7.3760 C.3     1  UNL1        0.0240
     29  C         17.4330  -24.1710   -6.9180 C.3     1  UNL1        0.0400
     30  C         17.8790  -23.0460   -6.0180 C.2     1  UNL1       -0.0580
     31  C         17.3960  -22.9550   -4.7050 C.2     1  UNL1        0.0070
     32  C         17.8260  -21.9280   -3.8640 C.2     1  UNL1        0.0010
     33  C         18.7410  -20.9850   -4.3250 C.2     1  UNL1        0.0000
     34  C         19.2320  -21.0700   -5.6270 C.2     1  UNL1        0.0010
     35  C         18.8040  -22.0970   -6.4700 C.2     1  UNL1        0.0070
@<TRIPOS>BOND
     1    21    22    1
     2    21    19    2
     3    20    19    1
     4    22    16    2
     5    19    18    1
     6    16    17    1
     7    16    14    1
     8    18    17    2
     9    15    14    2
    10    14    13    1
    11    13     9    1
    12     8     9   ar
    13     8     7   ar
    14     9    10   ar
    15     2     3    1
    16     2     1    2
    17     7     1    1
    18     7    11   ar
    19     3     4    2
    20    10    11   ar
    21    10    12    1
    22     1     6    1
    23     4    23    1
    24     4     5    1
    25     6     5    2
    26    24    23    2
    27    23    25   am
    28    25    26    1
    29    25    27    1
    30    27    28    1
    31    28    29    1
    32    29    30    1
    33    35    30    2
    34    35    34    1
    35    30    31    1
    36    34    33    2
    37    31    32    2
    38    33    32    1
