@<TRIPOS>MOLECULE
35721_out_ligand_01.pdbqt
 36 39 0 0 0
SMALL
GASTEIGER

@<TRIPOS>ATOM
      1  C         26.0920  -21.2980  -15.2740 C.2     1  UNL1        0.0690
      2  C         24.7600  -20.8760  -15.2910 C.2     1  UNL1        0.0390
      3  C         23.9190  -21.1730  -14.2160 C.2     1  UNL1        0.0410
      4  C         24.4230  -21.8870  -13.1340 C.2     1  UNL1        0.0880
      5  O         23.5440  -22.1720  -12.0760 O.2     1  UNL1       -0.2890
      6  C         23.9630  -22.8420  -10.9270 C.2     1  UNL1        0.2050
      7  N         23.1290  -23.1170   -9.9660 N.pl3   1  UNL1       -0.1450
      8  C         25.3700  -23.3030  -10.9140 C.2     1  UNL1        0.0870
      9  C         26.2100  -23.0470  -11.9300 C.2     1  UNL1        0.0360
     10  C         25.7440  -22.3140  -13.0950 C.2     1  UNL1        0.0020
     11  C         26.5790  -22.0160  -14.1730 C.3     1  UNL1        0.0510
     12  N         21.8630  -22.5790  -10.0310 N.am    1  UNL1       -0.2400
     13  C         20.7380  -23.3290   -9.6830 C.2     1  UNL1        0.2740
     14  O         20.7520  -24.4470   -9.1760 O.2     1  UNL1       -0.2660
     15  H         21.7420  -21.9630  -10.8290 H       1  UNL1        0.1920
     16  C         19.4300  -22.6910  -10.0200 C.2     1  UNL1        0.0600
     17  C         19.2990  -21.9800  -11.2270 C.2     1  UNL1        0.0190
     18  C         18.0890  -21.3730  -11.5590 C.2     1  UNL1        0.0010
     19  C         17.0110  -21.4620  -10.6850 C.2     1  UNL1        0.0020
     20  C         17.1400  -22.1550   -9.4780 C.2     1  UNL1        0.0300
     21  C         18.3440  -22.7780   -9.1170 C.2     1  UNL1        0.0480
     22  N         18.4610  -23.4980   -7.9100 N.pl3   1  UNL1       -0.3550
     23  H         18.5080  -24.5130   -8.0590 H       1  UNL1        0.1660
     24  C         18.2980  -23.1380   -6.5610 C.2     1  UNL1        0.0320
     25  C         18.7290  -21.8670   -6.1520 C.2     1  UNL1        0.0290
     26  C         18.5560  -21.4310   -4.8350 C.2     1  UNL1        0.0020
     27  C         17.9400  -22.2620   -3.9040 C.2     1  UNL1        0.0000
     28  C         17.4990  -23.5240   -4.2930 C.2     1  UNL1        0.0020
     29  C         17.6750  -23.9540   -5.6130 C.2     1  UNL1        0.0290
     30  C         25.9270  -24.0200   -9.7420 C.2     1  UNL1        0.2530
     31  N         25.0110  -24.3940   -8.7990 N.am    1  UNL1       -0.3660
     32  H         25.3770  -24.8110   -7.9530 H       1  UNL1        0.1590
     33  H         24.0520  -24.0780   -8.8080 H       1  UNL1        0.1590
     34  O         27.1150  -24.2740   -9.6050 O.2     1  UNL1       -0.2680
     35  O         27.0160  -21.0760  -16.2600 O.2     1  UNL1       -0.3560
     36  C         26.6860  -20.1030  -17.2440 C.3     1  UNL1        0.2100
@<TRIPOS>BOND
     1    36    35    1
     2    35     1    1
     3     2     1    2
     4     2     3    1
     5     1    11    1
     6     3     4    2
     7    11    10    1
     8     4    10    1
     9     4     5    1
    10    10     9    2
    11     5     6    1
    12     9     8    1
    13    18    17    1
    14    18    19    2
    15    17    16    2
    16     6     8    2
    17     6     7    1
    18     8    30    1
    19    15    12    1
    20    19    20    1
    21    12     7    1
    22    12    13   am
    23    16    13    1
    24    16    21    1
    25    30    34    2
    26    30    31   am
    27    13    14    2
    28    20    21    2
    29    21    22    1
    30    33    31    1
    31    31    32    1
    32    23    22    1
    33    22    24    1
    34    24    25    2
    35    24    29    1
    36    25    26    1
    37    29    28    2
    38    26    27    2
    39    28    27    1
