@<TRIPOS>MOLECULE
35745_out_ligand_01.pdbqt
 30 33 0 0 0
SMALL
GASTEIGER

@<TRIPOS>ATOM
      1  C         17.8610  -23.0250   -8.3780 C.3     1  UNL1        0.1690
      2  C         19.2870  -22.4730   -8.3100 C.3     1  UNL1        0.0770
      3  C         19.7430  -22.1700   -9.7090 C.2     1  UNL1       -0.0380
      4  C         21.0920  -22.2610  -10.0730 C.2     1  UNL1        0.0250
      5  C         21.4950  -21.9480  -11.3790 C.2     1  UNL1        0.0320
      6  C         20.5420  -21.5580  -12.3280 C.2     1  UNL1        0.0180
      7  C         19.1970  -21.4510  -11.9620 C.2     1  UNL1        0.0190
      8  C         18.7970  -21.7520  -10.6530 C.2     1  UNL1        0.0450
      9  C         17.3690  -21.5920  -10.2720 C.2     1  UNL1        0.2940
     10  O         16.5740  -21.0310  -11.0150 O.2     1  UNL1       -0.2590
     11  O         17.0100  -22.0690   -9.0540 O.3     1  UNL1       -0.3070
     12  C         22.9410  -22.0740  -11.7230 C.2     1  UNL1        0.2560
     13  O         23.7180  -22.3710  -10.8250 O.2     1  UNL1       -0.2670
     14  N         23.2530  -21.7960  -13.0410 N.am    1  UNL1       -0.3230
     15  H         22.5100  -21.4330  -13.6250 H       1  UNL1        0.1690
     16  C         24.5200  -21.8750  -13.6570 C.2     1  UNL1        0.0350
     17  C         25.1810  -20.7860  -14.2270 C.2     1  UNL1        0.0360
     18  C         26.4450  -20.9390  -14.8170 C.2     1  UNL1       -0.0590
     19  C         27.1210  -19.7660  -15.4640 C.3     1  UNL1        0.0480
     20  C         27.0400  -22.2070  -14.8480 C.2     1  UNL1        0.0130
     21  C         26.4030  -23.3060  -14.2660 C.2     1  UNL1       -0.0590
     22  C         27.0340  -24.6660  -14.3230 C.3     1  UNL1        0.0480
     23  C         25.1410  -23.1330  -13.6810 C.2     1  UNL1        0.0360
     24  C         17.2080  -23.3550   -7.0450 C.2     1  UNL1       -0.0290
     25  C         15.8550  -23.7010   -6.9070 C.2     1  UNL1        0.0100
     26  C         15.3100  -23.9750   -5.6480 C.2     1  UNL1        0.0070
     27  C         16.0970  -23.8970   -4.4960 C.2     1  UNL1       -0.0620
     28  C         15.5160  -24.2260   -3.1530 C.3     1  UNL1        0.0480
     29  C         17.4470  -23.5670   -4.6230 C.2     1  UNL1        0.0070
     30  C         17.9920  -23.2930   -5.8800 C.2     1  UNL1        0.0100
@<TRIPOS>BOND
     1    19    18    1
     2    20    18    2
     3    20    21    1
     4    18    17    1
     5    22    21    1
     6    21    23    2
     7    17    16    2
     8    23    16    1
     9    16    14    1
    10    15    14    1
    11    14    12   am
    12     6     7    2
    13     6     5    1
    14     7     8    1
    15    12     5    1
    16    12    13    2
    17     5     4    2
    18    10     9    2
    19     8     9    1
    20     8     3    2
    21     9    11    1
    22     4     3    1
    23     3     2    1
    24    11     1    1
    25     1     2    1
    26     1    24    1
    27    24    25    2
    28    24    30    1
    29    25    26    1
    30    30    29    2
    31    26    27    2
    32    29    27    1
    33    27    28    1
