@<TRIPOS>MOLECULE
35775_out_ligand_01.pdbqt
 28 31 0 0 0
SMALL
GASTEIGER

@<TRIPOS>ATOM
      1  C         19.6420  -21.9540  -10.8150 C.2     1  UNL1        0.0120
      2  C         18.7260  -21.5660  -11.8010 C.2     1  UNL1        0.0150
      3  C         17.3720  -21.4200  -11.4900 C.2     1  UNL1        0.0030
      4  C         16.9140  -21.6620  -10.1930 C.2     1  UNL1        0.0290
      5  C         17.8050  -22.0500   -9.1950 C.2     1  UNL1        0.0350
      6  C         19.1620  -22.1940   -9.5160 C.2     1  UNL1        0.0440
      7  C         21.0750  -22.1240  -11.0830 C.ar    1  UNL1        0.1390
      8  N         21.6790  -21.8660  -12.2320 N.ar    1  UNL1       -0.2280
      9  C         23.0060  -22.1660  -12.0470 C.ar    1  UNL1        0.0860
     10  C         24.0810  -22.0770  -12.9410 C.2     1  UNL1        0.0340
     11  C         23.2320  -22.6220  -10.7580 C.ar    1  UNL1        0.0630
     12  C         25.3560  -22.4510  -12.4970 C.2     1  UNL1        0.0090
     13  C         25.5690  -22.8980  -11.1830 C.2     1  UNL1       -0.0600
     14  C         26.9440  -23.3230  -10.7520 C.3     1  UNL1        0.0480
     15  C         24.4910  -23.0030  -10.2860 C.2     1  UNL1        0.0380
     16  N         21.9950  -22.5890  -10.1700 N.ar    1  UNL1       -0.3380
     17  H         21.7940  -22.8700   -9.2240 H       1  UNL1        0.1670
     18  N         17.4270  -22.3200   -7.8640 N.am    1  UNL1       -0.3230
     19  C         16.7020  -23.3970   -7.3980 C.2     1  UNL1        0.2560
     20  O         16.1890  -24.2980   -8.0500 O.2     1  UNL1       -0.2670
     21  H         17.6940  -21.6230   -7.1780 H       1  UNL1        0.1690
     22  C         16.5030  -23.3920   -5.9260 C.2     1  UNL1        0.0380
     23  C         17.5150  -23.9700   -5.1490 C.2     1  UNL1        0.0170
     24  C         17.3800  -24.0350   -3.7630 C.2     1  UNL1        0.0010
     25  C         16.2390  -23.5190   -3.1530 C.2     1  UNL1        0.0010
     26  C         15.2380  -22.9210   -3.9240 C.2     1  UNL1        0.0070
     27  C         15.3620  -22.8300   -5.3200 C.2     1  UNL1       -0.0460
     28  C         14.2780  -22.1490   -6.1060 C.3     1  UNL1        0.0490
@<TRIPOS>BOND
     1    10    12    1
     2    10     9    2
     3    12    13    2
     4     8     9   ar
     5     8     7   ar
     6     9    11   ar
     7     2     3    1
     8     2     1    2
     9     3     4    2
    10    13    14    1
    11    13    15    1
    12     7     1    1
    13     7    16   ar
    14     1     6    1
    15    11    15    2
    16    11    16   ar
    17     4     5    1
    18    16    17    1
    19     6     5    2
    20     5    18    1
    21    20    19    2
    22    18    19   am
    23    18    21    1
    24    19    22    1
    25    28    27    1
    26    22    27    2
    27    22    23    1
    28    27    26    1
    29    23    24    2
    30    26    25    2
    31    24    25    1
