@<TRIPOS>MOLECULE
35790_out_ligand_01.pdbqt
 38 42 0 0 0
SMALL
GASTEIGER

@<TRIPOS>ATOM
      1  C         17.2880  -22.5080   -9.7860 C.2     1  UNL1        0.0980
      2  C         17.1000  -21.7200  -10.8570 C.2     1  UNL1        0.1090
      3  N         18.0980  -21.2960  -11.6980 N.pl3   1  UNL1       -0.3640
      4  C         19.4430  -21.5550  -11.3870 C.2     1  UNL1        0.0460
      5  C         20.4720  -21.0590  -12.1930 C.2     1  UNL1        0.0320
      6  C         21.8060  -21.3600  -11.9000 C.2     1  UNL1        0.0270
      7  C         22.1090  -22.1790  -10.8060 C.2     1  UNL1        0.0810
      8  C         21.0940  -22.7190  -10.0130 C.2     1  UNL1        0.0430
      9  C         19.7660  -22.3970  -10.3050 C.2     1  UNL1        0.0430
     10  C         18.6680  -22.9340   -9.4560 C.2     1  UNL1        0.2010
     11  O         18.9160  -23.7020   -8.5330 O.2     1  UNL1       -0.2860
     12  H         17.8910  -20.5290  -12.3310 H       1  UNL1        0.1650
     13  S         23.8030  -22.5530  -10.4140 S.O2    1  UNL1        0.2630
     14  O         23.8130  -23.4330   -9.2650 O.2     1  UNL1       -0.2000
     15  O         24.5260  -21.3000  -10.4080 O.2     1  UNL1       -0.2000
     16  N         24.3280  -23.4050  -11.7740 N.pl3   1  UNL1       -0.2810
     17  H         24.6500  -24.3430  -11.5360 H       1  UNL1        0.1790
     18  C         24.9900  -22.7150  -12.8300 C.2     1  UNL1        0.0450
     19  C         26.3810  -22.5960  -12.7770 C.2     1  UNL1        0.0330
     20  C         27.0610  -21.8950  -13.7760 C.2     1  UNL1        0.0420
     21  C         26.3500  -21.3210  -14.8250 C.2     1  UNL1        0.1020
     22  C         24.9610  -21.4710  -14.8960 C.2     1  UNL1        0.1040
     23  O         27.0800  -20.6280  -15.7580 O.2     1  UNL1       -0.3460
     24  C         24.2790  -22.1580  -13.8930 C.2     1  UNL1        0.0690
     25  O         24.2050  -20.9630  -15.9200 O.2     1  UNL1       -0.3460
     26  C         25.0180  -20.6050  -17.0440 C.3     1  UNL1        0.2020
     27  C         26.2390  -19.8210  -16.5900 C.3     1  UNL1        0.2020
     28  C         16.1240  -22.8500   -8.9490 C.2     1  UNL1        0.2570
     29  O         15.2770  -23.6470   -9.3290 O.2     1  UNL1       -0.2670
     30  N         16.1440  -22.2500   -7.7130 N.am    1  UNL1       -0.3520
     31  H         16.9230  -21.6620   -7.4530 H       1  UNL1        0.1630
     32  C         15.1910  -22.5990   -6.6860 C.3     1  UNL1        0.1610
     33  C         15.9060  -23.0970   -5.4550 C.2     1  UNL1       -0.0410
     34  C         15.1920  -23.4330   -4.2960 C.2     1  UNL1        0.0090
     35  C         15.8660  -23.8680   -3.1530 C.2     1  UNL1        0.0010
     36  C         17.2570  -23.9640   -3.1550 C.2     1  UNL1        0.0000
     37  C         17.9760  -23.6230   -4.2980 C.2     1  UNL1        0.0010
     38  C         17.3050  -23.1890   -5.4410 C.2     1  UNL1        0.0090
@<TRIPOS>BOND
     1    26    27    1
     2    26    25    1
     3    27    23    1
     4    25    22    1
     5    23    21    1
     6    22    21    2
     7    22    24    1
     8    21    20    1
     9    24    18    2
    10    20    19    2
    11    18    19    1
    12    18    16    1
    13    12     3    1
    14     5     6    1
    15     5     4    2
    16     6     7    2
    17    16    17    1
    18    16    13    1
    19     3     4    1
    20     3     2    1
    21     4     9    1
    22     2     1    2
    23     7    13    1
    24     7     8    1
    25    13    15    2
    26    13    14    2
    27     9     8    2
    28     9    10    1
    29     1    10    1
    30     1    28    1
    31    10    11    2
    32    29    28    2
    33    28    30   am
    34    30    31    1
    35    30    32    1
    36    32    33    1
    37    33    38    2
    38    33    34    1
    39    38    37    1
    40    37    36    2
    41    34    35    2
    42    36    35    1
