@<TRIPOS>MOLECULE
35799_out_ligand_01.pdbqt
 28 31 0 0 0
SMALL
GASTEIGER

@<TRIPOS>ATOM
      1  C         19.6900  -21.9880  -10.8670 C.2     1  UNL1        0.0120
      2  C         18.7510  -21.4910  -11.7810 C.2     1  UNL1        0.0150
      3  C         17.4070  -21.3810  -11.4250 C.2     1  UNL1        0.0030
      4  C         16.9920  -21.7660  -10.1500 C.2     1  UNL1        0.0290
      5  C         17.9100  -22.2630   -9.2170 C.2     1  UNL1        0.0350
      6  C         19.2550  -22.3640   -9.5830 C.2     1  UNL1        0.0440
      7  C         21.1110  -22.1120  -11.2120 C.ar    1  UNL1        0.1390
      8  N         21.6670  -21.7730  -12.3620 N.ar    1  UNL1       -0.2280
      9  C         23.0060  -22.0480  -12.2390 C.ar    1  UNL1        0.0860
     10  C         24.0450  -21.8850  -13.1630 C.2     1  UNL1        0.0340
     11  C         23.2910  -22.5620  -10.9820 C.ar    1  UNL1        0.0630
     12  C         25.3450  -22.2460  -12.7830 C.2     1  UNL1        0.0090
     13  C         25.6160  -22.7490  -11.5010 C.2     1  UNL1       -0.0600
     14  C         27.0170  -23.1550  -11.1400 C.3     1  UNL1        0.0480
     15  C         24.5760  -22.9290  -10.5740 C.2     1  UNL1        0.0380
     16  N         22.0750  -22.5880  -10.3510 N.ar    1  UNL1       -0.3380
     17  H         21.9150  -22.8800   -9.4000 H       1  UNL1        0.1670
     18  N         17.3950  -22.6260   -7.9530 N.am    1  UNL1       -0.3230
     19  C         17.8210  -22.2020   -6.7070 C.2     1  UNL1        0.2590
     20  O         18.7560  -21.4380   -6.4920 O.2     1  UNL1       -0.2670
     21  H         16.6250  -23.2850   -7.9720 H       1  UNL1        0.1690
     22  C         17.0710  -22.7350   -5.5270 C.2     1  UNL1        0.0700
     23  C         17.7920  -23.4040   -4.5250 C.2     1  UNL1        0.0200
     24  C         17.1400  -23.9220   -3.4010 C.2     1  UNL1        0.0010
     25  C         15.7610  -23.7780   -3.2650 C.2     1  UNL1        0.0030
     26  C         15.0350  -23.1170   -4.2520 C.2     1  UNL1        0.0430
     27  C         15.6880  -22.6020   -5.3710 C.2     1  UNL1        0.1320
     28  F         14.9440  -21.9740   -6.2970 F       1  UNL1       -0.2050
@<TRIPOS>BOND
     1    10    12    1
     2    10     9    2
     3    12    13    2
     4     8     9   ar
     5     8     7   ar
     6     9    11   ar
     7     2     3    1
     8     2     1    2
     9    13    14    1
    10    13    15    1
    11     3     4    2
    12     7     1    1
    13     7    16   ar
    14    11    15    2
    15    11    16   ar
    16     1     6    1
    17    16    17    1
    18     4     5    1
    19     6     5    2
    20     5    18    1
    21    21    18    1
    22    18    19   am
    23    19    20    2
    24    19    22    1
    25    28    27    1
    26    22    27    2
    27    22    23    1
    28    27    26    1
    29    23    24    2
    30    26    25    2
    31    24    25    1
