@<TRIPOS>MOLECULE
35815_out_ligand_01.pdbqt
 28 31 0 0 0
SMALL
GASTEIGER

@<TRIPOS>ATOM
      1  C         19.9890  -22.4020   -9.0140 C.3     1  UNL1        0.1690
      2  C         19.9290  -22.3090  -10.5410 C.3     1  UNL1        0.0770
      3  C         21.3350  -22.3390  -11.0700 C.2     1  UNL1       -0.0380
      4  C         21.6830  -21.6820  -12.2580 C.2     1  UNL1        0.0250
      5  C         22.9970  -21.7440  -12.7430 C.2     1  UNL1        0.0320
      6  C         23.9570  -22.5000  -12.0580 C.2     1  UNL1        0.0180
      7  C         23.6090  -23.1670  -10.8800 C.2     1  UNL1        0.0190
      8  C         22.3020  -23.0850  -10.3830 C.2     1  UNL1        0.0450
      9  C         21.9400  -23.8350   -9.1500 C.2     1  UNL1        0.2940
     10  O         22.7140  -24.6400   -8.6490 O.2     1  UNL1       -0.2590
     11  O         20.7090  -23.5970   -8.6330 O.3     1  UNL1       -0.3070
     12  C         23.3170  -21.0250  -14.0120 C.2     1  UNL1        0.2560
     13  O         22.4880  -20.2340  -14.4470 O.2     1  UNL1       -0.2670
     14  N         24.5590  -21.3100  -14.5480 N.am    1  UNL1       -0.3230
     15  H         25.1810  -21.8860  -13.9960 H       1  UNL1        0.1690
     16  C         25.1070  -20.8120  -15.7500 C.2     1  UNL1        0.0350
     17  C         24.8420  -21.3490  -17.0110 C.2     1  UNL1        0.0290
     18  C         25.4310  -20.7980  -18.1530 C.2     1  UNL1        0.0020
     19  C         26.2930  -19.7100  -18.0450 C.2     1  UNL1        0.0000
     20  C         26.5680  -19.1690  -16.7920 C.2     1  UNL1        0.0020
     21  C         25.9780  -19.7190  -15.6510 C.2     1  UNL1        0.0290
     22  C         18.6520  -22.4240   -8.2940 C.2     1  UNL1       -0.0290
     23  C         17.4180  -22.5480   -8.9490 C.2     1  UNL1        0.0100
     24  C         16.2180  -22.5430   -8.2290 C.2     1  UNL1        0.0070
     25  C         16.2200  -22.4030   -6.8380 C.2     1  UNL1       -0.0620
     26  C         14.9350  -22.4360   -6.0670 C.3     1  UNL1        0.0480
     27  C         17.4440  -22.2950   -6.1740 C.2     1  UNL1        0.0070
     28  C         18.6410  -22.2990   -6.8930 C.2     1  UNL1        0.0100
@<TRIPOS>BOND
     1    18    19    2
     2    18    17    1
     3    19    20    1
     4    17    16    2
     5    20    21    2
     6    16    21    1
     7    16    14    1
     8    14    12   am
     9    14    15    1
    10    13    12    2
    11    12     5    1
    12     5     4    1
    13     5     6    2
    14     4     3    2
    15     6     7    1
    16     3     2    1
    17     3     8    1
    18     7     8    2
    19     2     1    1
    20     8     9    1
    21     9    10    2
    22     9    11    1
    23     1    11    1
    24     1    22    1
    25    23    22    2
    26    23    24    1
    27    22    28    1
    28    24    25    2
    29    28    27    2
    30    25    27    1
    31    25    26    1
