@<TRIPOS>MOLECULE
35821_out_ligand_01.pdbqt
 29 32 0 0 0
SMALL
GASTEIGER

@<TRIPOS>ATOM
      1  C         20.2490  -23.5440   -8.8020 C.2     1  UNL1        0.2580
      2  O         21.0590  -24.4640   -8.7210 O.2     1  UNL1       -0.2670
      3  N         20.1100  -22.6320   -9.8680 N.am    1  UNL1       -0.3130
      4  C         18.8730  -21.8510  -10.0200 C.3     1  UNL1        0.1330
      5  C         18.4690  -21.6550  -11.4710 C.3     1  UNL1        0.0250
      6  C         19.5730  -20.9150  -12.1930 C.3     1  UNL1        0.0420
      7  C         20.8980  -21.5950  -11.9780 C.2     1  UNL1       -0.0300
      8  C         21.9130  -21.3510  -12.9250 C.2     1  UNL1        0.0260
      9  C         23.1800  -21.9110  -12.7720 C.2     1  UNL1        0.0320
     10  C         23.4340  -22.7320  -11.6750 C.2     1  UNL1        0.0190
     11  C         22.4270  -22.9700  -10.7280 C.2     1  UNL1        0.0310
     12  C         21.1450  -22.4140  -10.8530 C.2     1  UNL1        0.0430
     13  C         24.2190  -21.6200  -13.7960 C.2     1  UNL1        0.2510
     14  O         24.3210  -20.4830  -14.2560 O.2     1  UNL1       -0.2680
     15  N         25.0420  -22.6820  -14.1320 N.am    1  UNL1       -0.3540
     16  H         25.0030  -23.5300  -13.5750 H       1  UNL1        0.1620
     17  C         26.1980  -22.5090  -15.0010 C.3     1  UNL1        0.1550
     18  C         25.8810  -22.9040  -16.4510 C.3     1  UNL1        0.1390
     19  C         24.5470  -23.6210  -16.5960 C.3     1  UNL1        0.0350
     20  C         24.1610  -23.2800  -18.0150 C.3     1  UNL1        0.0290
     21  C         24.6470  -21.8530  -18.1380 C.3     1  UNL1        0.1680
     22  O         25.8040  -21.7370  -17.2960 O.3     1  UNL1       -0.3840
     23  C         19.3280  -23.4140   -7.6470 C.2     1  UNL1        0.0330
     24  C         18.3680  -24.4040   -7.4290 C.2     1  UNL1        0.0170
     25  C         17.4990  -24.2910   -6.3460 C.2     1  UNL1        0.0020
     26  C         17.6040  -23.2060   -5.4740 C.2     1  UNL1        0.0070
     27  C         18.5940  -22.2300   -5.6620 C.2     1  UNL1       -0.0610
     28  C         18.7020  -21.0630   -4.7270 C.3     1  UNL1        0.0480
     29  C         19.4550  -22.3370   -6.7610 C.2     1  UNL1        0.0230
@<TRIPOS>BOND
     1    21    20    1
     2    21    22    1
     3    20    19    1
     4    22    18    1
     5    19    18    1
     6    18    17    1
     7    17    15    1
     8    14    13    2
     9    15    13   am
    10    15    16    1
    11    13     9    1
    12     8     9    1
    13     8     7    2
    14     9    10    2
    15     6     7    1
    16     6     5    1
    17     7    12    1
    18    10    11    1
    19     5     4    1
    20    12    11    2
    21    12     3    1
    22     4     3    1
    23     3     1   am
    24     1     2    2
    25     1    23    1
    26    23    24    2
    27    23    29    1
    28    24    25    1
    29    29    27    2
    30    25    26    2
    31    27    26    1
    32    27    28    1
