@<TRIPOS>MOLECULE
35846_out_ligand_01.pdbqt
 33 36 0 0 0
SMALL
GASTEIGER

@<TRIPOS>ATOM
      1  C         21.4950  -22.5700  -10.8920 C.ar    1  UNL1        0.1530
      2  N         22.0380  -21.8570  -11.8590 N.ar    1  UNL1       -0.1330
      3  N         21.0430  -21.1080  -12.4480 N.ar    1  UNL1       -0.1280
      4  C         19.9150  -21.3860  -11.8330 C.ar    1  UNL1        0.1740
      5  C         18.5910  -20.9340  -12.0090 C.2     1  UNL1        0.0570
      6  C         17.6250  -21.4230  -11.2170 C.2     1  UNL1        0.0440
      7  C         18.0420  -22.4070  -10.1850 C.2     1  UNL1        0.1140
      8  N         19.2370  -22.8590   -9.9770 N.2     1  UNL1       -0.1580
      9  N         20.1470  -22.3120  -10.8350 N.ar    1  UNL1       -0.1970
     10  C         22.1820  -23.5480  -10.0060 C.3     1  UNL1        0.1030
     11  C         23.5170  -23.0040   -9.4970 C.3     1  UNL1        0.1400
     12  N         24.6190  -23.4630  -10.3520 N.3     1  UNL1       -0.3150
     13  H         25.0900  -24.3400  -10.1140 H       1  UNL1        0.1720
     14  S         25.6370  -22.3220  -11.0360 S.O2    1  UNL1        0.2580
     15  O         25.1350  -21.0090  -10.6980 O.2     1  UNL1       -0.2010
     16  O         26.9880  -22.7280  -10.7180 O.2     1  UNL1       -0.2010
     17  C         25.3820  -22.6040  -12.7690 C.2     1  UNL1        0.0790
     18  C         25.3750  -23.9070  -13.2710 C.2     1  UNL1        0.0260
     19  C         25.1560  -24.1170  -14.6340 C.2     1  UNL1        0.0080
     20  C         24.9400  -23.0320  -15.4960 C.2     1  UNL1       -0.0620
     21  C         24.6800  -23.2730  -16.9520 C.3     1  UNL1        0.0480
     22  C         24.9290  -21.7310  -14.9730 C.2     1  UNL1        0.0080
     23  C         25.1500  -21.5140  -13.6120 C.2     1  UNL1        0.0260
     24  S         16.7350  -22.9890   -9.1870 S.3     1  UNL1       -0.1040
     25  C         17.7230  -23.8000   -7.8880 C.3     1  UNL1        0.1200
     26  C         17.7610  -23.0070   -6.5970 C.2     1  UNL1       -0.0420
     27  C         16.6600  -23.1000   -5.7190 C.2     1  UNL1        0.0150
     28  C         16.6070  -22.3690   -4.5280 C.2     1  UNL1       -0.0610
     29  C         15.4390  -22.4900   -3.5970 C.3     1  UNL1        0.0480
     30  C         17.6830  -21.5470   -4.1950 C.2     1  UNL1        0.0070
     31  C         18.7900  -21.4570   -5.0400 C.2     1  UNL1        0.0080
     32  C         18.8480  -22.1830   -6.2400 C.2     1  UNL1       -0.0550
     33  C         20.0880  -22.0700   -7.0860 C.3     1  UNL1        0.0490
@<TRIPOS>BOND
     1    21    20    1
     2    20    22    2
     3    20    19    1
     4    22    23    1
     5    19    18    2
     6    23    17    2
     7    18    17    1
     8    17    14    1
     9     3     2   ar
    10     3     4   ar
    11     5     4    1
    12     5     6    2
    13     2     1   ar
    14     4     9   ar
    15     6     7    1
    16    14    16    2
    17    14    15    2
    18    14    12    1
    19     1     9   ar
    20     1    10    1
    21     9     8    1
    22    12    13    1
    23    12    11    1
    24     7     8    2
    25     7    24    1
    26    10    11    1
    27    24    25    1
    28    25    26    1
    29    33    32    1
    30    26    32    2
    31    26    27    1
    32    32    31    1
    33    27    28    2
    34    31    30    2
    35    28    30    1
    36    28    29    1
