@<TRIPOS>MOLECULE
35850_out_ligand_01.pdbqt
 30 33 0 0 0
SMALL
GASTEIGER

@<TRIPOS>ATOM
      1  C         26.7080  -23.3910  -10.8870 C.3     1  UNL1        0.0480
      2  C         25.3700  -22.8530  -11.2980 C.2     1  UNL1       -0.0610
      3  C         25.2700  -21.9390  -12.3510 C.2     1  UNL1        0.0090
      4  C         24.0380  -21.3980  -12.7340 C.2     1  UNL1        0.0310
      5  C         22.9040  -21.7960  -12.0170 C.ar    1  UNL1        0.0430
      6  N         21.5890  -21.4300  -12.1690 N.ar    1  UNL1       -0.3520
      7  C         20.7980  -22.0610  -11.2410 C.ar    1  UNL1        0.0950
      8  C         19.3860  -21.8450  -11.1990 C.2     1  UNL1        0.2230
      9  N         18.5730  -22.4100  -10.3300 N.2     1  UNL1       -0.2030
     10  C         17.3450  -21.9230  -10.7020 C.2     1  UNL1        0.1580
     11  N         17.3700  -21.0760  -11.7380 N.4     1  UNL1       -0.1110
     12  O         18.7210  -21.0260  -12.0760 O.2     1  UNL1       -0.1890
     13  C         21.6210  -22.8590  -10.4590 C.ar    1  UNL1       -0.0180
     14  C         21.1950  -23.7250   -9.3240 C.3     1  UNL1        0.0520
     15  C         22.9580  -22.6920  -10.9520 C.ar    1  UNL1       -0.0010
     16  C         24.2140  -23.2220  -10.5870 C.2     1  UNL1        0.0210
     17  H         21.2550  -20.7830  -12.8700 H       1  UNL1        0.1660
     18  C         16.0920  -22.2810   -9.9940 C.3     1  UNL1        0.1030
     19  C         16.2750  -23.3720   -8.9350 C.3     1  UNL1        0.1330
     20  N         16.4150  -22.8660   -7.5650 N.am    1  UNL1       -0.3520
     21  C         15.4310  -21.8920   -7.1070 C.3     1  UNL1        0.1520
     22  C         17.6060  -23.1520   -6.8940 C.2     1  UNL1        0.2550
     23  O         18.4630  -23.9190   -7.3240 O.2     1  UNL1       -0.2670
     24  C         17.8460  -22.5310   -5.5830 C.2     1  UNL1        0.0530
     25  C         18.7360  -21.4500   -5.5280 C.2     1  UNL1        0.0190
     26  C         18.9850  -20.8200   -4.3100 C.2     1  UNL1        0.0010
     27  C         18.3390  -21.2600   -3.1530 C.2     1  UNL1        0.0020
     28  C         17.4380  -22.3270   -3.2140 C.2     1  UNL1        0.0250
     29  C         17.1850  -22.9640   -4.4320 C.2     1  UNL1        0.0490
     30 CL         16.0550  -24.2690   -4.4490 Cl      1  UNL1       -0.0830
@<TRIPOS>BOND
     1    17     6    1
     2     4     3    1
     3     4     5    2
     4     3     2    2
     5     6     5   ar
     6     6     7   ar
     7    12    11    1
     8    12     8    1
     9     5    15   ar
    10    11    10    1
    11     2     1    1
    12     2    16    1
    13     7     8    1
    14     7    13   ar
    15     8     9    2
    16    15    16    2
    17    15    13   ar
    18    10     9    2
    19    10    18    1
    20    13    14    1
    21    18    19    1
    22    19    20    1
    23    20    21    1
    24    20    22   am
    25    23    22    2
    26    22    24    1
    27    24    25    2
    28    24    29    1
    29    25    26    1
    30    30    29    1
    31    29    28    2
    32    26    27    2
    33    28    27    1
