@<TRIPOS>MOLECULE
35860_out_ligand_01.pdbqt
 28 31 0 0 0
SMALL
GASTEIGER

@<TRIPOS>ATOM
      1  C         20.2800  -21.9060  -10.5890 C.2     1  UNL1        0.0320
      2  C         19.2130  -21.6520  -11.4610 C.2     1  UNL1        0.0180
      3  C         17.8960  -21.8500  -11.0320 C.2     1  UNL1        0.0190
      4  C         17.6400  -22.3030   -9.7320 C.2     1  UNL1        0.0450
      5  C         18.7030  -22.5710   -8.8600 C.2     1  UNL1       -0.0380
      6  C         20.0220  -22.3850   -9.2960 C.2     1  UNL1        0.0250
      7  C         18.4010  -23.1050   -7.4900 C.3     1  UNL1        0.0770
      8  C         17.0660  -22.5160   -7.0350 C.3     1  UNL1        0.1690
      9  O         16.0290  -22.8150   -7.9940 O.3     1  UNL1       -0.3070
     10  C         16.2340  -22.5470   -9.3080 C.2     1  UNL1        0.2940
     11  O         15.3180  -22.5260  -10.1190 O.2     1  UNL1       -0.2590
     12  C         21.7000  -21.7220  -11.0050 C.2     1  UNL1        0.2560
     13  N         21.9410  -21.8960  -12.3560 N.am    1  UNL1       -0.3230
     14  H         21.1380  -22.0280  -12.9570 H       1  UNL1        0.1690
     15  O         22.5120  -21.4040  -10.1460 O.2     1  UNL1       -0.2670
     16  C         23.1850  -21.8260  -13.0200 C.2     1  UNL1        0.0350
     17  C         23.2970  -20.9100  -14.0720 C.2     1  UNL1        0.0300
     18  C         24.4940  -20.7810  -14.7850 C.2     1  UNL1        0.0090
     19  C         25.5960  -21.5780  -14.4650 C.2     1  UNL1       -0.0620
     20  C         26.8920  -21.4200  -15.2030 C.3     1  UNL1        0.0480
     21  C         25.4880  -22.4840  -13.4070 C.2     1  UNL1        0.0090
     22  C         24.2890  -22.6120  -12.6940 C.2     1  UNL1        0.0300
     23  C         16.6740  -23.0600   -5.6760 C.2     1  UNL1       -0.0290
     24  C         15.3680  -23.5340   -5.4620 C.2     1  UNL1        0.0100
     25  C         14.9820  -24.0100   -4.2090 C.2     1  UNL1        0.0010
     26  C         15.8910  -24.0170   -3.1530 C.2     1  UNL1        0.0000
     27  C         17.1870  -23.5480   -3.3490 C.2     1  UNL1        0.0010
     28  C         17.5760  -23.0690   -4.6020 C.2     1  UNL1        0.0100
@<TRIPOS>BOND
     1    20    19    1
     2    18    19    2
     3    18    17    1
     4    19    21    1
     5    17    16    2
     6    21    22    2
     7    16    22    1
     8    16    13    1
     9    14    13    1
    10    13    12   am
    11     2     3    1
    12     2     1    2
    13     3     4    2
    14    12     1    1
    15    12    15    2
    16     1     6    1
    17    11    10    2
    18     4    10    1
    19     4     5    1
    20    10     9    1
    21     6     5    2
    22     5     7    1
    23     9     8    1
    24     7     8    1
    25     8    23    1
    26    23    24    2
    27    23    28    1
    28    24    25    1
    29    28    27    2
    30    25    26    2
    31    27    26    1
