@<TRIPOS>MOLECULE
35885_out_ligand_01.pdbqt
 41 44 0 0 0
SMALL
GASTEIGER

@<TRIPOS>ATOM
      1  C         23.1110  -22.7560  -10.4130 C.2     1  UNL1        0.0340
      2  C         22.7660  -23.6430   -9.3880 C.2     1  UNL1        0.0190
      3  C         21.4230  -23.8140   -9.0340 C.2     1  UNL1        0.0270
      4  C         20.4050  -23.1240   -9.7070 C.2     1  UNL1        0.0360
      5  C         20.7720  -22.2200  -10.7140 C.2     1  UNL1        0.0570
      6  C         22.1090  -22.0330  -11.0670 C.2     1  UNL1        0.0480
      7  N         19.7900  -21.4960  -11.3940 N.am    1  UNL1       -0.3240
      8  C         18.4530  -21.6390  -11.1540 C.2     1  UNL1        0.2410
      9  O         17.6300  -21.0210  -11.8300 O.2     1  UNL1       -0.2710
     10  C         18.0240  -22.6710  -10.1010 C.3     1  UNL1        0.1660
     11  N         19.0880  -23.2360   -9.2470 N.pl3   1  UNL1       -0.2770
     12  H         20.0420  -20.8110  -12.0930 H       1  UNL1        0.1690
     13  H         18.8780  -24.1820   -8.9300 H       1  UNL1        0.1280
     14  C         24.5260  -22.5150  -10.8070 C.2     1  UNL1        0.2510
     15  N         25.3700  -23.6050  -10.7810 N.am    1  UNL1       -0.3570
     16  H         24.9840  -24.5340  -10.6790 H       1  UNL1        0.1620
     17  O         24.8790  -21.3970  -11.1640 O.2     1  UNL1       -0.2680
     18  C         26.7540  -23.4830  -11.2060 C.3     1  UNL1        0.1270
     19  C         27.0590  -24.3380  -12.4400 C.3     1  UNL1        0.0580
     20  C         26.3640  -23.8160  -13.6720 C.2     1  UNL1       -0.0540
     21  C         25.6470  -24.6760  -14.5080 C.2     1  UNL1        0.0100
     22  C         25.0070  -24.1820  -15.6490 C.2     1  UNL1        0.0400
     23  C         25.0790  -22.8220  -15.9720 C.2     1  UNL1        0.1010
     24  C         25.8120  -21.9500  -15.1430 C.2     1  UNL1        0.1020
     25  C         26.4460  -22.4530  -14.0010 C.2     1  UNL1        0.0460
     26  O         24.4800  -22.2540  -17.0690 O.2     1  UNL1       -0.3530
     27  C         24.1430  -23.1070  -18.1530 C.3     1  UNL1        0.2100
     28  O         25.8400  -20.6320  -15.5280 O.2     1  UNL1       -0.3530
     29  C         25.4650  -19.6570  -14.5660 C.3     1  UNL1        0.2100
     30  C         16.8670  -22.1560   -9.2620 C.3     1  UNL1        0.1700
     31  S         16.1330  -23.3750   -8.1790 S.O2    1  UNL1        0.1500
     32  O         15.2080  -22.7170   -7.2760 O.2     1  UNL1       -0.2280
     33  O         15.6270  -24.4380   -9.0360 O.2     1  UNL1       -0.2280
     34  C         17.4460  -24.0660   -7.1690 C.3     1  UNL1        0.1780
     35  C         17.7500  -23.2230   -5.9560 C.2     1  UNL1       -0.0440
     36  C         17.4040  -23.6840   -4.6780 C.2     1  UNL1        0.0080
     37  C         17.6850  -22.9210   -3.5450 C.2     1  UNL1        0.0010
     38  C         18.3280  -21.6920   -3.6710 C.2     1  UNL1        0.0070
     39  C         18.7020  -21.2180   -4.9320 C.2     1  UNL1       -0.0610
     40  C         19.4490  -19.9230   -5.0690 C.3     1  UNL1        0.0480
     41  C         18.4290  -21.9990   -6.0650 C.2     1  UNL1        0.0140
@<TRIPOS>BOND
     1    27    26    1
     2    26    23    1
     3    23    22    2
     4    23    24    1
     5    22    21    1
     6    28    24    1
     7    28    29    1
     8    24    25    2
     9    21    20    2
    10    25    20    1
    11    20    19    1
    12    19    18    1
    13    12     7    1
    14     9     8    2
    15     7     8   am
    16     7     5    1
    17    18    15    1
    18    17    14    2
    19     8    10    1
    20     6     5    1
    21     6     1    2
    22    14    15   am
    23    14     1    1
    24    15    16    1
    25     5     4    2
    26     1     2    1
    27    10    30    1
    28    10    11    1
    29     4    11    1
    30     4     3    1
    31     2     3    2
    32    30    31    1
    33    11    13    1
    34    33    31    2
    35    31    32    2
    36    31    34    1
    37    34    35    1
    38    41    35    2
    39    41    39    1
    40    35    36    1
    41    40    39    1
    42    39    38    2
    43    36    37    2
    44    38    37    1
