@<TRIPOS>MOLECULE
35894_out_ligand_01.pdbqt
 36 39 0 0 0
SMALL
GASTEIGER

@<TRIPOS>ATOM
      1  C         19.4210  -22.9020   -9.9270 C.2     1  UNL1       -0.0040
      2  C         19.5870  -21.7350  -10.8950 C.2     1  UNL1        0.0580
      3  C         18.3480  -21.0430  -11.4280 C.3     1  UNL1        0.0720
      4  N         20.7210  -21.2740  -11.3360 N.2     1  UNL1       -0.0650
      5  C         21.8480  -21.9100  -10.9200 C.cat   1  UNL1        0.7520
      6  N         23.1000  -21.6520  -11.2280 N.2     1  UNL1       -0.0330
      7  C         23.7870  -22.6320  -10.5790 C.2     1  UNL1        0.2270
      8  N         23.0520  -23.4750   -9.8600 N.pl3   1  UNL1       -0.1240
      9  N         21.7930  -23.0290  -10.0850 N.pl3   1  UNL1       -0.0610
     10  C         20.5780  -23.5360   -9.6040 C.3     1  UNL1        0.0590
     11  C         20.6760  -24.7750   -8.7570 C.3     1  UNL1        0.0720
     12  S         25.5150  -22.8160  -10.6860 S.3     1  UNL1       -0.0790
     13  C         25.9720  -21.1480  -11.2210 C.3     1  UNL1        0.1850
     14  C         26.1840  -21.1020  -12.7310 C.2     1  UNL1        0.2310
     15  O         27.1200  -20.4650  -13.2180 O.2     1  UNL1       -0.2720
     16  N         25.2130  -21.7960  -13.4370 N.am    1  UNL1       -0.3260
     17  H         24.5330  -22.3130  -12.8730 H       1  UNL1        0.1690
     18  C         25.1230  -21.9920  -14.8390 C.2     1  UNL1        0.0490
     19  C         24.9350  -20.9200  -15.7220 C.2     1  UNL1        0.0300
     20  C         24.8700  -21.1280  -17.1040 C.2     1  UNL1        0.0020
     21  C         24.9850  -22.4140  -17.6290 C.2     1  UNL1        0.0010
     22  C         25.1640  -23.4920  -16.7660 C.2     1  UNL1        0.0180
     23  C         25.2430  -23.2990  -15.3700 C.2     1  UNL1        0.0740
     24  C         25.3340  -24.5290  -14.4930 C.3     1  UNL1        0.4190
     25  F         25.0190  -25.6850  -15.1400 F       1  UNL1       -0.1660
     26  F         26.5980  -24.7160  -14.0050 F       1  UNL1       -0.1660
     27  F         24.5180  -24.4890  -13.3990 F       1  UNL1       -0.1660
     28  C         18.0330  -23.2490   -9.4230 C.3     1  UNL1        0.0820
     29  C         17.7800  -22.9980   -7.9440 C.2     1  UNL1       -0.0470
     30  C         16.7720  -23.6660   -7.2120 C.2     1  UNL1       -0.0550
     31  C         16.5940  -23.3560   -5.8530 C.2     1  UNL1        0.0080
     32  C         15.8640  -24.6980   -7.8290 C.3     1  UNL1        0.0490
     33  C         17.4080  -22.4160   -5.2130 C.2     1  UNL1        0.0070
     34  C         18.4270  -21.7700   -5.9180 C.2     1  UNL1       -0.0610
     35  C         19.2620  -20.7070   -5.2500 C.3     1  UNL1        0.0480
     36  C         18.6060  -22.0700   -7.2760 C.2     1  UNL1        0.0140
@<TRIPOS>BOND
     1    21    20    2
     2    21    22    1
     3    20    19    1
     4    22    23    2
     5    19    18    2
     6    23    18    1
     7    23    24    1
     8    25    24    1
     9    18    16    1
    10    24    26    1
    11    24    27    1
    12    16    17    1
    13    16    14   am
    14    15    14    2
    15    14    13    1
    16     3     2    1
    17     4     5    2
    18     4     2    1
    19     6     5    1
    20     6     7    2
    21    13    12    1
    22     5     9    1
    23     2     1    2
    24    12     7    1
    25     7     8    1
    26     9     8    1
    27     9    10    1
    28     1    10    1
    29     1    28    1
    30    10    11    1
    31    28    29    1
    32    29    36    2
    33    29    30    1
    34    32    30    1
    35    36    34    1
    36    30    31    2
    37    34    35    1
    38    34    33    2
    39    31    33    1
