@<TRIPOS>MOLECULE
358_out_ligand_01.pdbqt
 38 41 0 0 0
SMALL
GASTEIGER

@<TRIPOS>ATOM
      1  C         21.1620  -21.6700  -11.9300 C.2     1  UNL1        0.2560
      2  O         21.2360  -20.8530  -12.8380 O.2     1  UNL1       -0.2670
      3  N         22.2010  -22.3850  -11.3630 N.am    1  UNL1       -0.3220
      4  H         21.9690  -22.9610  -10.5680 H       1  UNL1        0.1690
      5  C         19.8200  -21.9200  -11.3230 C.2     1  UNL1        0.0320
      6  C         18.6830  -21.1970  -11.7130 C.2     1  UNL1        0.0180
      7  C         17.4430  -21.4760  -11.1290 C.2     1  UNL1        0.0260
      8  C         17.3470  -22.4740  -10.1540 C.2     1  UNL1        0.0790
      9  C         18.4830  -23.1680   -9.7270 C.2     1  UNL1        0.0260
     10  C         19.7180  -22.8890  -10.3150 C.2     1  UNL1        0.0180
     11  S         15.7680  -22.8410   -9.4160 S.O2    1  UNL1        0.2630
     12  O         14.7480  -22.2940  -10.2840 O.2     1  UNL1       -0.2000
     13  O         15.7650  -24.2390   -9.0400 O.2     1  UNL1       -0.2000
     14  N         15.7720  -21.8820   -8.0260 N.pl3   1  UNL1       -0.2810
     15  H         15.9870  -20.9080   -8.2330 H       1  UNL1        0.1790
     16  C         16.2480  -22.4270   -6.8020 C.2     1  UNL1        0.0420
     17  C         15.3970  -23.1220   -5.9450 C.2     1  UNL1        0.0300
     18  C         15.8960  -23.6790   -4.7660 C.2     1  UNL1        0.0090
     19  C         17.2520  -23.5550   -4.4400 C.2     1  UNL1       -0.0620
     20  C         17.7800  -24.1220   -3.1530 C.3     1  UNL1        0.0480
     21  C         18.0960  -22.8400   -5.2970 C.2     1  UNL1        0.0090
     22  C         17.5960  -22.2800   -6.4760 C.2     1  UNL1        0.0300
     23  C         23.5720  -22.3550  -11.7200 C.2     1  UNL1        0.0420
     24  C         24.0150  -21.8700  -12.9540 C.2     1  UNL1        0.0540
     25  C         25.3810  -21.8610  -13.2620 C.2     1  UNL1        0.0760
     26  C         26.3250  -22.3320  -12.3540 C.2     1  UNL1        0.0250
     27  C         25.8950  -22.8140  -11.1200 C.2     1  UNL1        0.0100
     28  C         24.5260  -22.8330  -10.7890 C.2     1  UNL1       -0.0350
     29  C         24.1340  -23.3670   -9.4360 C.3     1  UNL1        0.0500
     30  S         25.9030  -21.2390  -14.8400 S.O2    1  UNL1        0.2430
     31  O         24.7440  -20.6450  -15.4660 O.2     1  UNL1       -0.2060
     32  O         27.1190  -20.4770  -14.6430 O.2     1  UNL1       -0.2060
     33  N         26.3190  -22.6520  -15.6890 N.3     1  UNL1       -0.2020
     34  C         26.9370  -22.4830  -17.0390 C.3     1  UNL1        0.1340
     35  C         25.8780  -22.3250  -18.1390 C.3     1  UNL1        0.1830
     36  O         24.9300  -23.4010  -18.1180 O.3     1  UNL1       -0.3890
     37  C         24.2630  -23.4590  -16.8490 C.3     1  UNL1        0.1830
     38  C         25.2670  -23.7130  -15.7220 C.3     1  UNL1        0.1340
@<TRIPOS>BOND
     1    35    36    1
     2    35    34    1
     3    36    37    1
     4    34    33    1
     5    37    38    1
     6    38    33    1
     7    33    30    1
     8    31    30    2
     9    30    32    2
    10    30    25    1
    11    25    24    1
    12    25    26    2
    13    24    23    2
    14     2     1    2
    15    26    27    1
    16     1     3   am
    17     1     5    1
    18    23     3    1
    19    23    28    1
    20     6     5    2
    21     6     7    1
    22     3     4    1
    23     5    10    1
    24     7     8    2
    25    27    28    2
    26    28    29    1
    27    10     9    2
    28    12    11    2
    29     8     9    1
    30     8    11    1
    31    11    13    2
    32    11    14    1
    33    15    14    1
    34    14    16    1
    35    16    22    2
    36    16    17    1
    37    22    21    1
    38    17    18    2
    39    21    19    2
    40    18    19    1
    41    19    20    1
