@<TRIPOS>MOLECULE
3591_out_ligand_01.pdbqt
 29 32 0 0 0
SMALL
GASTEIGER

@<TRIPOS>ATOM
      1  O         20.6920  -22.9700   -8.4090 O.3     1  UNL1       -0.3020
      2  C         21.4370  -23.9650   -8.9660 C.2     1  UNL1        0.2950
      3  O         21.2540  -25.1620   -8.7850 O.2     1  UNL1       -0.2590
      4  C         22.5070  -23.4460   -9.8110 C.2     1  UNL1        0.0570
      5  C         22.3770  -22.7760  -11.0530 C.2     1  UNL1        0.0540
      6  C         23.6350  -22.4340  -11.5490 C.2     1  UNL1        0.1030
      7  N         24.5370  -22.8980  -10.6130 N.pl3   1  UNL1       -0.3510
      8  C         23.8250  -21.7520  -12.8170 C.2     1  UNL1        0.2680
      9  C         23.8640  -23.4990   -9.5680 C.2     1  UNL1        0.1090
     10  C         25.9830  -22.7860  -10.5850 C.3     1  UNL1        0.1300
     11  C         26.6810  -22.6490  -11.9230 C.3     1  UNL1        0.0400
     12  C         26.3150  -21.3360  -12.5760 C.3     1  UNL1        0.1240
     13  N         25.0610  -21.3970  -13.2730 N.am    1  UNL1       -0.3560
     14  H         24.9820  -20.8750  -14.1390 H       1  UNL1        0.1620
     15  O         22.8800  -21.4700  -13.5570 O.2     1  UNL1       -0.2660
     16  C         19.2850  -23.2370   -8.3050 C.3     1  UNL1        0.1980
     17  C         18.5690  -22.4440   -9.3890 C.2     1  UNL1       -0.0240
     18  C         19.2820  -21.7530  -10.3820 C.2     1  UNL1        0.0100
     19  C         18.6090  -21.0390  -11.3750 C.2     1  UNL1        0.0010
     20  C         17.2160  -21.0120  -11.3930 C.2     1  UNL1        0.0000
     21  C         16.4950  -21.7040  -10.4220 C.2     1  UNL1        0.0010
     22  C         17.1660  -22.4170   -9.4270 C.2     1  UNL1        0.0100
     23  C         18.7880  -22.9010   -6.9000 C.2     1  UNL1       -0.0210
     24  C         18.0290  -23.8490   -6.1880 C.2     1  UNL1        0.0100
     25  C         17.5540  -23.5730   -4.9020 C.2     1  UNL1        0.0040
     26  C         17.8300  -22.3450   -4.3090 C.2     1  UNL1        0.0420
     27  C         18.5750  -21.4030   -5.0050 C.2     1  UNL1        0.1170
     28  F         18.8380  -20.2180   -4.4370 F       1  UNL1       -0.2060
     29  C         19.0540  -21.6660   -6.2860 C.2     1  UNL1        0.0520
@<TRIPOS>BOND
     1    14    13    1
     2    15     8    2
     3    13     8   am
     4    13    12    1
     5     8     6    1
     6    12    11    1
     7    11    10    1
     8     6     5    2
     9     6     7    1
    10    20    19    2
    11    20    21    1
    12    19    18    1
    13     5     4    1
    14     7    10    1
    15     7     9    1
    16    21    22    2
    17    18    17    2
    18     4     9    2
    19     4     2    1
    20    22    17    1
    21    17    16    1
    22     2     3    2
    23     2     1    1
    24     1    16    1
    25    16    23    1
    26    23    29    2
    27    23    24    1
    28    29    27    1
    29    24    25    2
    30    27    28    1
    31    27    26    2
    32    25    26    1
