@<TRIPOS>MOLECULE
35927_out_ligand_01.pdbqt
 37 41 0 0 0
SMALL
GASTEIGER

@<TRIPOS>ATOM
      1  C         16.6860  -21.6290  -10.0570 C.3     1  UNL1        0.1210
      2  C         18.0570  -21.5920  -10.6930 C.2     1  UNL1       -0.0480
      3  C         18.5860  -20.3840  -11.1720 C.2     1  UNL1        0.0090
      4  C         19.8250  -20.3570  -11.8140 C.2     1  UNL1        0.0170
      5  C         20.5600  -21.5380  -11.9750 C.2     1  UNL1        0.0320
      6  C         20.0370  -22.7500  -11.5080 C.2     1  UNL1        0.0170
      7  C         18.7940  -22.7740  -10.8710 C.2     1  UNL1        0.0090
      8  C         21.8650  -21.4650  -12.6850 C.2     1  UNL1        0.2520
      9  N         22.9050  -22.1790  -12.1260 N.am    1  UNL1       -0.3520
     10  H         22.7400  -22.7120  -11.2850 H       1  UNL1        0.1630
     11  O         21.9700  -20.7840  -13.6970 O.2     1  UNL1       -0.2680
     12  C         24.2070  -22.2760  -12.7760 C.3     1  UNL1        0.0880
     13  C         24.7660  -23.7000  -12.6580 C.3     1  UNL1        0.0250
     14  C         26.1160  -23.8370  -13.3550 C.3     1  UNL1        0.0020
     15  C         27.1200  -22.7880  -12.8870 C.3     1  UNL1        0.0050
     16  C         26.5800  -21.3500  -12.9710 C.3     1  UNL1       -0.0130
     17  C         25.2060  -21.2090  -12.2630 C.3     1  UNL1        0.0080
     18  C         26.5190  -20.8700  -14.4260 C.3     1  UNL1        0.0100
     19  C         25.4000  -21.2390  -10.7360 C.3     1  UNL1        0.0120
     20  S         16.2140  -23.3210   -9.5810 S.3     1  UNL1       -0.0870
     21  C         16.2870  -23.1670   -7.8580 C.ar    1  UNL1        0.1700
     22  N         15.3920  -22.5250   -7.1450 N.ar    1  UNL1       -0.2220
     23  C         15.7960  -22.6740   -5.8440 C.ar    1  UNL1        0.0890
     24  C         15.2100  -22.1860   -4.6760 C.2     1  UNL1        0.0530
     25  C         16.9520  -23.4450   -5.7650 C.ar    1  UNL1        0.0830
     26  C         15.8520  -22.5230   -3.4950 C.2     1  UNL1        0.1180
     27  N         16.9730  -23.2780   -3.4120 N.2     1  UNL1       -0.2710
     28  C         17.5380  -23.7540   -4.5460 C.2     1  UNL1        0.1480
     29  N         17.2570  -23.7450   -7.0770 N.ar    1  UNL1       -0.3190
     30  C         18.3510  -24.6000   -7.5130 C.3     1  UNL1        0.1700
     31  C         19.6170  -23.8240   -7.7890 C.2     1  UNL1       -0.0400
     32  C         19.7880  -22.5160   -7.3030 C.2     1  UNL1        0.0120
     33  C         20.9660  -21.8140   -7.5630 C.2     1  UNL1        0.0430
     34  C         21.9750  -22.4140   -8.3040 C.2     1  UNL1        0.1160
     35  F         23.1040  -21.7370   -8.5560 F       1  UNL1       -0.2060
     36  C         21.8320  -23.7080   -8.7870 C.2     1  UNL1        0.0430
     37  C         20.6560  -24.4130   -8.5280 C.2     1  UNL1        0.0120
@<TRIPOS>BOND
     1    18    16    1
     2    11     8    2
     3    14    15    1
     4    14    13    1
     5    16    15    1
     6    16    17    1
     7    12    13    1
     8    12    17    1
     9    12     9    1
    10     8     9   am
    11     8     5    1
    12    17    19    1
    13     9    10    1
    14     5     4    2
    15     5     6    1
    16     4     3    1
    17     6     7    2
    18     3     2    2
    19     7     2    1
    20     2     1    1
    21     1    20    1
    22    20    21    1
    23    36    37    1
    24    36    34    2
    25    35    34    1
    26    37    31    2
    27    34    33    1
    28    21    22   ar
    29    21    29   ar
    30    31    30    1
    31    31    32    1
    32    33    32    2
    33    30    29    1
    34    22    23   ar
    35    29    25   ar
    36    23    25   ar
    37    23    24    1
    38    25    28    1
    39    24    26    2
    40    28    27    2
    41    26    27    1
