@<TRIPOS>MOLECULE
35953_out_ligand_01.pdbqt
 35 39 0 0 0
SMALL
GASTEIGER

@<TRIPOS>ATOM
      1  N         24.3750  -21.3360  -12.2910 N.am    1  UNL1       -0.2280
      2  C         24.9420  -21.5130  -11.0100 C.2     1  UNL1        0.3580
      3  O         26.1310  -21.7790  -10.8430 O.2     1  UNL1       -0.2440
      4  N         24.1400  -21.4300   -9.8990 N.am    1  UNL1       -0.1680
      5  C         22.8920  -21.6400  -10.0510 C.2     1  UNL1        0.1830
      6  C         22.2190  -21.8950  -11.3130 C.2     1  UNL1        0.0860
      7  C         20.9930  -22.4210  -11.4970 C.2     1  UNL1        0.0330
      8  C         23.0060  -21.5150  -12.5180 C.2     1  UNL1        0.2710
      9  O         22.4190  -21.3590  -13.5890 O.2     1  UNL1       -0.2660
     10  C         20.0790  -22.9170  -10.4660 C.2     1  UNL1       -0.0350
     11  C         20.4540  -23.9950   -9.6680 C.2     1  UNL1        0.0130
     12  C         19.5900  -24.4670   -8.6750 C.2     1  UNL1        0.0310
     13  C         18.3410  -23.8690   -8.4390 C.2     1  UNL1        0.0360
     14  C         17.9700  -22.7790   -9.2500 C.2     1  UNL1       -0.0310
     15  N         17.4920  -24.3800   -7.4410 N.pl3   1  UNL1       -0.3760
     16  C         18.8380  -22.3120  -10.2550 C.2     1  UNL1        0.0210
     17  C         16.6310  -22.1060   -9.0850 C.3     1  UNL1        0.0420
     18  C         15.9910  -22.4470   -7.7490 C.3     1  UNL1        0.0240
     19  C         16.0890  -23.9470   -7.5200 C.3     1  UNL1        0.1230
     20  C         18.0780  -24.4270   -6.0870 C.3     1  UNL1        0.1610
     21  C         18.2990  -23.0360   -5.5300 C.2     1  UNL1       -0.0400
     22  C         17.6810  -22.6330   -4.3370 C.2     1  UNL1        0.0090
     23  C         17.9100  -21.3610   -3.8090 C.2     1  UNL1        0.0010
     24  C         18.7670  -20.4790   -4.4660 C.2     1  UNL1        0.0000
     25  C         19.3960  -20.8700   -5.6460 C.2     1  UNL1        0.0010
     26  C         19.1680  -22.1430   -6.1740 C.2     1  UNL1        0.0090
     27  O         22.1230  -21.5650   -8.9630 O.2     1  UNL1       -0.3440
     28  H         21.2140  -21.3610   -9.2400 H       1  UNL1        0.2190
     29  C         25.2620  -21.0740  -13.4090 C.2     1  UNL1        0.0480
     30  C         25.7890  -22.1060  -14.2010 C.2     1  UNL1        0.0300
     31  C         26.6390  -21.8350  -15.2790 C.2     1  UNL1        0.0030
     32  C         26.9790  -20.5240  -15.5940 C.2     1  UNL1        0.0070
     33  C         26.4620  -19.4710  -14.8400 C.2     1  UNL1       -0.0600
     34  C         26.8470  -18.0530  -15.1470 C.3     1  UNL1        0.0480
     35  C         25.6190  -19.7550  -13.7510 C.2     1  UNL1        0.0370
@<TRIPOS>BOND
     1    32    31    2
     2    32    33    1
     3    31    30    1
     4    34    33    1
     5    33    35    2
     6    30    29    2
     7    35    29    1
     8     9     8    2
     9    29     1    1
    10     8     1   am
    11     8     6    1
    12     1     2   am
    13     7     6    2
    14     7    10    1
    15     6     5    1
    16     2     3    2
    17     2     4    1
    18    10    16    2
    19    10    11    1
    20    16    14    1
    21     5     4    2
    22     5    27    1
    23    11    12    2
    24    14    17    1
    25    14    13    2
    26    28    27    1
    27    17    18    1
    28    12    13    1
    29    13    15    1
    30    18    19    1
    31    19    15    1
    32    15    20    1
    33    26    25    1
    34    26    21    2
    35    20    21    1
    36    25    24    2
    37    21    22    1
    38    24    23    1
    39    22    23    2
