@<TRIPOS>MOLECULE
35952_out_ligand_01.pdbqt
 32 35 0 0 0
SMALL
GASTEIGER

@<TRIPOS>ATOM
      1  C         21.6600  -22.9100   -9.7320 C.3     1  UNL1        0.0970
      2  C         21.9180  -24.1390   -9.0830 C.3     1  UNL1        0.1600
      3  N         20.8530  -24.6140   -8.4370 N.3     1  UNL1       -0.1770
      4  N         19.9530  -23.5960   -8.5230 N.pl3   1  UNL1       -0.2130
      5  C         20.2850  -22.7600   -9.5840 C.3     1  UNL1        0.1530
      6  C         22.6470  -22.1260  -10.4500 C.2     1  UNL1        0.2610
      7  N         22.7800  -22.5130  -11.7710 N.am    1  UNL1       -0.3230
      8  H         22.1970  -23.2860  -12.0730 H       1  UNL1        0.1690
      9  O         23.2110  -21.1860   -9.9070 O.2     1  UNL1       -0.2670
     10  C         23.6260  -21.9610  -12.7520 C.2     1  UNL1        0.0350
     11  C         23.0180  -21.2270  -13.7770 C.2     1  UNL1        0.0300
     12  C         23.7860  -20.6500  -14.7940 C.2     1  UNL1        0.0190
     13  C         25.1750  -20.8060  -14.8040 C.2     1  UNL1        0.0320
     14  C         25.7890  -21.5260  -13.7740 C.2     1  UNL1        0.0190
     15  C         25.0160  -22.1030  -12.7570 C.2     1  UNL1        0.0300
     16  C         25.9490  -20.1740  -15.9060 C.2     1  UNL1        0.2490
     17  N         25.9660  -18.8080  -15.9690 N.am    1  UNL1       -0.3660
     18  H         25.6990  -18.2270  -15.1870 H       1  UNL1        0.1590
     19  H         26.5970  -18.4070  -16.6500 H       1  UNL1        0.1590
     20  O         26.5800  -20.8440  -16.7130 O.2     1  UNL1       -0.2680
     21  N         19.3660  -22.0300  -10.3560 N.pl3   1  UNL1       -0.3170
     22  C         18.0150  -22.2990  -10.5220 C.2     1  UNL1        0.0980
     23  C         17.4430  -21.3500  -11.3400 C.2     1  UNL1        0.0190
     24  C         18.4790  -20.5120  -11.7810 C.2     1  UNL1        0.0190
     25  C         19.6440  -20.9810  -11.2160 C.2     1  UNL1        0.0980
     26  C         18.9780  -23.4640   -7.5010 C.2     1  UNL1        0.0990
     27  C         17.9750  -24.4360   -7.3710 C.2     1  UNL1        0.0350
     28  C         17.0210  -24.3270   -6.3560 C.2     1  UNL1        0.0020
     29  C         17.0760  -23.2640   -5.4540 C.2     1  UNL1        0.0030
     30  C         18.0950  -22.3170   -5.5560 C.2     1  UNL1        0.0450
     31  C         19.0460  -22.4260   -6.5690 C.2     1  UNL1        0.1450
     32  F         20.0560  -21.5440   -6.5800 F       1  UNL1       -0.2040
@<TRIPOS>BOND
     1    20    16    2
     2    19    17    1
     3    17    16   am
     4    17    18    1
     5    16    13    1
     6    13    12    2
     7    13    14    1
     8    12    11    1
     9    11    10    2
    10    14    15    2
    11    15    10    1
    12    10     7    1
    13     8     7    1
    14    24    23    1
    15    24    25    2
    16     7     6   am
    17    23    22    2
    18    25    21    1
    19    22    21    1
    20     6     9    2
    21     6     1    1
    22    21     5    1
    23     1     5    1
    24     1     2    1
    25     5     4    1
    26     2     3    1
    27     4     3    1
    28     4    26    1
    29    26    27    2
    30    26    31    1
    31    27    28    1
    32    32    31    1
    33    31    30    2
    34    28    29    2
    35    30    29    1
