@<TRIPOS>MOLECULE
35971_out_ligand_01.pdbqt
 38 42 0 0 0
SMALL
GASTEIGER

@<TRIPOS>ATOM
      1  C         20.3920  -22.2760  -11.1760 C.2     1  UNL1       -0.0070
      2  C         20.7570  -23.0640  -10.1080 C.2     1  UNL1        0.1040
      3  N         19.6530  -23.2140   -9.3070 N.pl3   1  UNL1       -0.3460
      4  C         18.5820  -22.5110   -9.8260 C.2     1  UNL1        0.0450
      5  C         17.2650  -22.3420   -9.3610 C.2     1  UNL1        0.0300
      6  C         16.3780  -21.5970  -10.1440 C.2     1  UNL1        0.0020
      7  C         16.7860  -21.0310  -11.3470 C.2     1  UNL1        0.0010
      8  C         18.1000  -21.1910  -11.7970 C.2     1  UNL1        0.0140
      9  C         19.0180  -21.9390  -11.0290 C.2     1  UNL1        0.0020
     10  C         21.2620  -21.9290  -12.2470 C.2     1  UNL1        0.0350
     11  C         22.5630  -21.5820  -12.1680 C.2     1  UNL1        0.0860
     12  C         23.3550  -21.3930  -10.9620 C.2     1  UNL1        0.1830
     13  C         23.3040  -21.3590  -13.4370 C.2     1  UNL1        0.2710
     14  N         24.6260  -21.3190  -10.9050 N.am    1  UNL1       -0.1680
     15  C         25.3440  -21.4960  -12.0640 C.2     1  UNL1        0.3580
     16  N         24.6970  -21.3650  -13.3170 N.am    1  UNL1       -0.2280
     17  O         26.5350  -21.7910  -11.9550 O.2     1  UNL1       -0.2440
     18  O         22.6710  -21.1620  -14.4730 O.2     1  UNL1       -0.2660
     19  O         22.6910  -21.2210   -9.8150 O.2     1  UNL1       -0.3440
     20  H         22.2140  -20.3720   -9.8550 H       1  UNL1        0.2190
     21  C         25.5100  -21.3140  -14.5190 C.2     1  UNL1        0.0480
     22  C         25.9550  -22.4800  -15.1610 C.2     1  UNL1        0.0300
     23  C         26.7500  -22.4250  -16.3110 C.2     1  UNL1        0.0030
     24  C         27.1210  -21.1980  -16.8470 C.2     1  UNL1        0.0070
     25  C         26.6850  -20.0190  -16.2480 C.2     1  UNL1       -0.0600
     26  C         27.1100  -18.6900  -16.7900 C.3     1  UNL1        0.0480
     27  C         25.8900  -20.0870  -15.0900 C.2     1  UNL1        0.0370
     28  C         19.6290  -24.0510   -8.1170 C.3     1  UNL1        0.2310
     29  C         18.9920  -23.3480   -6.9290 C.2     1  UNL1        0.2400
     30  O         19.5330  -22.3570   -6.4400 O.2     1  UNL1       -0.2710
     31  N         17.7790  -23.8970   -6.5350 N.am    1  UNL1       -0.3260
     32  H         17.4650  -24.7320   -7.0240 H       1  UNL1        0.1690
     33  C         16.9430  -23.4740   -5.4840 C.2     1  UNL1        0.0340
     34  C         15.7810  -22.7770   -5.8440 C.2     1  UNL1        0.0290
     35  C         14.8890  -22.3220   -4.8680 C.2     1  UNL1        0.0020
     36  C         15.1500  -22.5660   -3.5220 C.2     1  UNL1        0.0000
     37  C         16.3050  -23.2620   -3.1530 C.2     1  UNL1        0.0020
     38  C         17.1990  -23.7130   -4.1310 C.2     1  UNL1        0.0290
@<TRIPOS>BOND
     1    24    23    2
     2    24    25    1
     3    26    25    1
     4    23    22    1
     5    25    27    2
     6    22    21    2
     7    27    21    1
     8    21    16    1
     9    18    13    2
    10    13    16   am
    11    13    11    1
    12    16    15   am
    13    10    11    2
    14    10     1    1
    15    11    12    1
    16    15    17    2
    17    15    14    1
    18     8     7    2
    19     8     9    1
    20     7     6    1
    21     1     9    1
    22     1     2    2
    23     9     4    2
    24    12    14    2
    25    12    19    1
    26     6     5    2
    27     2     3    1
    28    20    19    1
    29     4     5    1
    30     4     3    1
    31     3    28    1
    32    28    29    1
    33    32    31    1
    34    29    31   am
    35    29    30    2
    36    31    33    1
    37    34    33    2
    38    34    35    1
    39    33    38    1
    40    35    36    2
    41    38    37    2
    42    36    37    1
