@<TRIPOS>MOLECULE
3598_out_ligand_01.pdbqt
 38 42 0 0 0
SMALL
GASTEIGER

@<TRIPOS>ATOM
      1  N         19.9550  -20.8880  -11.1480 N.am    1  UNL1       -0.3090
      2  C         18.7420  -21.4580  -11.4640 C.2     1  UNL1        0.3200
      3  O         18.5390  -22.3240  -12.3020 O.2     1  UNL1       -0.2470
      4  N         17.7270  -20.9140  -10.7030 N.am    1  UNL1       -0.3390
      5  H         19.9280  -20.1510  -10.4600 H       1  UNL1        0.1700
      6  H         17.9800  -20.4550   -9.8410 H       1  UNL1        0.1640
      7  C         16.3810  -21.4480  -10.7630 C.3     1  UNL1        0.1630
      8  C         16.1840  -22.5170   -9.7150 C.2     1  UNL1       -0.0380
      9  C         15.3140  -23.5930   -9.9540 C.2     1  UNL1        0.0090
     10  C         15.1540  -24.6030   -9.0030 C.2     1  UNL1        0.0030
     11  C         15.8450  -24.5400   -7.7960 C.2     1  UNL1        0.0370
     12  C         16.6810  -23.4540   -7.5350 C.2     1  UNL1        0.0760
     13  C         16.8690  -22.4590   -8.4970 C.2     1  UNL1        0.0460
     14  O         17.4020  -23.3340   -6.3670 O.2     1  UNL1       -0.3100
     15  C         18.5880  -22.6250   -6.4380 C.2     1  UNL1        0.0870
     16  C         18.7410  -21.4330   -5.7190 C.2     1  UNL1        0.0380
     17  C         19.9260  -20.7100   -5.8180 C.2     1  UNL1        0.0040
     18  C         20.9510  -21.1690   -6.6470 C.2     1  UNL1        0.0120
     19  C         20.8050  -22.3500   -7.3950 C.2     1  UNL1       -0.0230
     20  C         21.8340  -22.8000   -8.2370 C.2     1  UNL1        0.0120
     21  C         19.6040  -23.0950   -7.3000 C.2     1  UNL1        0.0080
     22  C         21.6910  -23.9710   -8.9820 C.2     1  UNL1        0.0010
     23  C         20.5170  -24.7080   -8.8960 C.2     1  UNL1        0.0010
     24  C         19.4830  -24.2760   -8.0630 C.2     1  UNL1        0.0150
     25  C         21.2210  -21.1880  -11.6910 C.2     1  UNL1        0.0360
     26  C         22.3520  -21.4820  -10.9320 C.2     1  UNL1        0.0380
     27  C         23.6040  -21.7610  -11.5330 C.2     1  UNL1       -0.0320
     28  C         24.7600  -21.9660  -10.5890 C.3     1  UNL1        0.0500
     29  C         23.7090  -21.7890  -12.9400 C.2     1  UNL1        0.0510
     30  C         22.5650  -21.4630  -13.6920 C.2     1  UNL1        0.0330
     31  C         21.3410  -21.1740  -13.0790 C.2     1  UNL1        0.0320
     32  N         24.9130  -22.1200  -13.6280 N.am    1  UNL1       -0.2520
     33  C         25.4130  -23.3990  -13.7320 C.2     1  UNL1        0.2310
     34  O         24.9040  -24.4550  -13.3790 O.2     1  UNL1       -0.2730
     35  C         26.7660  -23.3450  -14.3790 C.3     1  UNL1        0.1130
     36  C         26.9000  -21.9160  -14.8440 C.3     1  UNL1        0.1130
     37  C         25.8110  -21.1930  -14.1090 C.2     1  UNL1        0.2310
     38  O         25.8150  -19.9780  -13.9740 O.2     1  UNL1       -0.2730
@<TRIPOS>BOND
     1    36    35    1
     2    36    37    1
     3    35    33    1
     4    37    38    2
     5    37    32   am
     6    33    32   am
     7    33    34    2
     8    30    31    1
     9    30    29    2
    10    32    29    1
    11    31    25    2
    12    29    27    1
    13     3     2    2
    14    25     1    1
    15    25    26    1
    16    27    26    2
    17    27    28    1
    18     2     1   am
    19     2     4   am
    20     1     5    1
    21     7     4    1
    22     7     8    1
    23     4     6    1
    24     9     8    2
    25     9    10    1
    26     8    13    1
    27    10    11    2
    28    22    23    1
    29    22    20    2
    30    23    24    2
    31    13    12    2
    32    20    19    1
    33    24    21    1
    34    11    12    1
    35    12    14    1
    36    19    21    1
    37    19    18    2
    38    21    15    2
    39    18    17    1
    40    15    14    1
    41    15    16    1
    42    17    16    2
