@<TRIPOS>MOLECULE
36006_out_ligand_01.pdbqt
 27 30 0 0 0
SMALL
GASTEIGER

@<TRIPOS>ATOM
      1  C         17.7790  -22.3530  -10.3000 C.2     1  UNL1       -0.0400
      2  C         18.0620  -21.4620  -11.3420 C.2     1  UNL1        0.0100
      3  C         19.3650  -21.3340  -11.8320 C.2     1  UNL1        0.0160
      4  C         20.4130  -22.0970  -11.3010 C.2     1  UNL1        0.0170
      5  C         20.1230  -22.9960  -10.2620 C.2     1  UNL1        0.0160
      6  C         18.8200  -23.1250   -9.7690 C.2     1  UNL1        0.0100
      7  C         16.3670  -22.5020   -9.7910 C.3     1  UNL1        0.1610
      8  N         16.3270  -22.3770   -8.3530 N.am    1  UNL1       -0.3530
      9  C         16.0510  -23.4470   -7.5320 C.2     1  UNL1        0.2550
     10  O         15.7180  -24.5470   -7.9630 O.2     1  UNL1       -0.2680
     11  H         16.6960  -21.5250   -7.9490 H       1  UNL1        0.1630
     12  C         16.1740  -23.2350   -6.0610 C.2     1  UNL1        0.0700
     13  C         17.3350  -23.6910   -5.4190 C.2     1  UNL1        0.0200
     14  C         17.5010  -23.5170   -4.0420 C.2     1  UNL1        0.0010
     15  C         16.5090  -22.8840   -3.2920 C.2     1  UNL1        0.0030
     16  C         15.3530  -22.4260   -3.9210 C.2     1  UNL1        0.0430
     17  C         15.1910  -22.6020   -5.2950 C.2     1  UNL1        0.1320
     18  F         14.0620  -22.1430   -5.8560 F       1  UNL1       -0.2050
     19  C         21.7630  -21.9420  -11.8360 C.ar    1  UNL1        0.1800
     20  N         22.9200  -22.2480  -11.2750 N.ar    1  UNL1       -0.2200
     21  C         23.8500  -21.8930  -12.2210 C.ar    1  UNL1        0.1110
     22  C         25.2420  -21.9610  -12.2410 C.2     1  UNL1        0.1500
     23  C         23.2120  -21.3770  -13.3340 C.ar    1  UNL1        0.1090
     24  N         25.9230  -21.5260  -13.3390 N.2     1  UNL1       -0.2710
     25  C         25.2320  -21.0310  -14.3980 C.2     1  UNL1        0.1190
     26  C         23.8520  -20.9220  -14.4730 C.2     1  UNL1        0.0590
     27  O         21.8700  -21.4040  -13.0970 O.2     1  UNL1       -0.2890
@<TRIPOS>BOND
     1    26    25    2
     2    26    23    1
     3    25    24    1
     4    24    22    2
     5    23    27   ar
     6    23    21   ar
     7    27    19   ar
     8    22    21    1
     9    21    20   ar
    10    19     4    1
    11    19    20   ar
    12     3     2    1
    13     3     4    2
    14     2     1    2
    15     4     5    1
    16     1     7    1
    17     1     6    1
    18     5     6    2
    19     7     8    1
    20     8    11    1
    21     8     9   am
    22    10     9    2
    23     9    12    1
    24    12    13    2
    25    12    17    1
    26    18    17    1
    27    13    14    1
    28    17    16    2
    29    14    15    2
    30    16    15    1
