@<TRIPOS>MOLECULE
36025_out_ligand_01.pdbqt
 31 35 0 0 0
SMALL
GASTEIGER

@<TRIPOS>ATOM
      1  C         16.3170  -22.2200  -10.1150 C.3     1  UNL1        0.1610
      2  N         16.3030  -22.1090   -8.6760 N.am    1  UNL1       -0.3560
      3  C         16.0760  -23.1920   -7.8520 C.2     1  UNL1        0.2310
      4  O         15.7930  -24.3060   -8.2850 O.2     1  UNL1       -0.2720
      5  H         16.5330  -21.2150   -8.2640 H       1  UNL1        0.1620
      6  C         16.2180  -22.8790   -6.3430 C.3     1  UNL1        0.0680
      7  C         15.9740  -24.1930   -5.5590 C.3     1  UNL1        0.0240
      8  C         15.4030  -23.7870   -4.1990 C.3     1  UNL1        0.0020
      9  C         14.9510  -22.3390   -4.3400 C.3     1  UNL1        0.0020
     10  C         15.0290  -22.0330   -5.8310 C.3     1  UNL1        0.0240
     11  C         17.5470  -22.1550   -6.0710 C.2     1  UNL1       -0.0400
     12  C         17.7230  -21.2240   -5.0350 C.2     1  UNL1        0.0080
     13  C         18.9580  -20.6020   -4.8280 C.2     1  UNL1        0.0010
     14  C         20.0410  -20.8950   -5.6530 C.2     1  UNL1        0.0000
     15  C         19.8890  -21.8120   -6.6880 C.2     1  UNL1        0.0010
     16  C         18.6560  -22.4330   -6.8950 C.2     1  UNL1        0.0080
     17  C         17.7270  -22.1060  -10.6340 C.2     1  UNL1       -0.0400
     18  C         18.7040  -23.0200  -10.2230 C.2     1  UNL1        0.0100
     19  C         20.0210  -22.9070  -10.6800 C.2     1  UNL1        0.0160
     20  C         20.3930  -21.8750  -11.5540 C.2     1  UNL1        0.0170
     21  C         19.4120  -20.9570  -11.9570 C.2     1  UNL1        0.0160
     22  C         18.0930  -21.0680  -11.5010 C.2     1  UNL1        0.0100
     23  C         21.7770  -21.7820  -12.0130 C.ar    1  UNL1        0.1800
     24  N         22.8890  -22.0860  -11.3670 N.ar    1  UNL1       -0.2200
     25  C         23.8830  -21.8050  -12.2710 C.ar    1  UNL1        0.1110
     26  C         25.2710  -21.9090  -12.2040 C.2     1  UNL1        0.1500
     27  C         23.3270  -21.3350  -13.4480 C.ar    1  UNL1        0.1090
     28  N         26.0280  -21.5500  -13.2790 N.2     1  UNL1       -0.2710
     29  C         25.4160  -21.0970  -14.4030 C.2     1  UNL1        0.1190
     30  C         24.0460  -20.9580  -14.5680 C.2     1  UNL1        0.0590
     31  O         21.9720  -21.3170  -13.2920 O.2     1  UNL1       -0.2890
@<TRIPOS>BOND
     1    30    29    2
     2    30    27    1
     3    29    28    1
     4    27    31   ar
     5    27    25   ar
     6    31    23   ar
     7    28    26    2
     8    25    26    1
     9    25    24   ar
    10    23    20    1
    11    23    24   ar
    12    21    20    2
    13    21    22    1
    14    20    19    1
    15    22    17    2
    16    19    18    2
    17    17    18    1
    18    17     1    1
    19     1     2    1
    20     2     5    1
    21     2     3   am
    22     4     3    2
    23     3     6    1
    24    16    15    1
    25    16    11    2
    26    15    14    2
    27     6    11    1
    28     6    10    1
    29     6     7    1
    30    11    12    1
    31    10     9    1
    32    14    13    1
    33     7     8    1
    34    12    13    2
    35     9     8    1
